MODEL 1
REMARK VINA RESULT:      -9.3      0.000      0.000
REMARK  Name = 10133
REMARK  7 active torsions:
REMARK  status: ('A' for Active; 'I' for Inactive)
REMARK    1  A    between atoms: C_6  and  C_24
REMARK    2  A    between atoms: C_10  and  O_20
REMARK    3  A    between atoms: C_19  and  O_22
REMARK    4  A    between atoms: C_24  and  C_26
REMARK    5  A    between atoms: C_26  and  C_27
REMARK    6  A    between atoms: C_27  and  C_29
REMARK    7  A    between atoms: C_29  and  O_30
REMARK                            x       y       z     vdW  Elec       q    Type
REMARK                         _______ _______ _______ _____ _____    ______ ____
ROOT
ATOM      1  C   UNL     1      33.303 -23.509 -15.625  0.00  0.00    +0.002 C 
ATOM      2  C   UNL     1      32.104 -23.800 -14.697  0.00  0.00    +0.000 C 
ATOM      3  C   UNL     1      34.587 -23.155 -14.859  0.00  0.00    +0.027 C 
ATOM      4  C   UNL     1      34.963 -24.360 -13.932  0.00  0.00    +0.002 C 
ATOM      5  C   UNL     1      36.275 -24.075 -13.106  0.00  0.00    +0.000 C 
ATOM      6  C   UNL     1      31.013 -24.042 -15.770  0.00  0.00    +0.000 C 
ATOM      7  C   UNL     1      37.439 -23.720 -14.093  0.00  0.00    +0.005 C 
ATOM      8  C   UNL     1      32.460 -25.033 -13.856  0.00  0.00    +0.000 C 
ATOM      9  C   UNL     1      33.760 -24.822 -13.061  0.00  0.00    +0.000 C 
ATOM     10  C   UNL     1      35.744 -22.770 -15.800  0.00  0.00    +0.110 C 
ATOM     11  C   UNL     1      32.745 -22.503 -16.627  0.00  0.00    +0.000 C 
ATOM     12  C   UNL     1      31.278 -22.933 -16.816  0.00  0.00    +0.000 C 
ATOM     13  C   UNL     1      37.066 -22.572 -15.053  0.00  0.00    +0.029 C 
ATOM     14  C   UNL     1      36.712 -25.289 -12.236  0.00  0.00    +0.002 C 
ATOM     15  C   UNL     1      31.720 -22.624 -13.767  0.00  0.00    +0.000 C 
ATOM     16  C   UNL     1      37.963 -24.946 -14.867  0.00  0.00    +0.029 C 
ATOM     17  C   UNL     1      36.069 -22.898 -12.116  0.00  0.00    +0.000 C 
ATOM     18  C   UNL     1      37.199 -26.488 -13.038  0.00  0.00    +0.029 C 
ATOM     19  C   UNL     1      38.357 -26.095 -13.944  0.00  0.00    +0.111 C 
ENDROOT
BRANCH  10  20
ATOM     20  O   UNL     1      35.899 -23.749 -16.823  0.00  0.00    -0.384 OA
ATOM     21  H   UNL     1      35.957 -23.309 -17.685  0.00  0.00    +0.210 HD
ENDBRANCH  10  20
BRANCH  19  22
ATOM     22  O   UNL     1      38.730 -27.229 -14.721  0.00  0.00    -0.384 OA
ATOM     23  H   UNL     1      39.368 -26.960 -15.401  0.00  0.00    +0.210 HD
ENDBRANCH  19  22
BRANCH   6  24
ATOM     24  C   UNL     1      29.572 -24.065 -15.283  0.00  0.00    +0.001 C 
ATOM     25  C   UNL     1      29.142 -25.505 -14.984  0.00  0.00    +0.000 C 
BRANCH  24  26
ATOM     26  C   UNL     1      28.650 -23.390 -16.319  0.00  0.00    +0.012 C 
BRANCH  26  27
ATOM     27  C   UNL     1      27.941 -22.141 -15.793  0.00  0.00    +0.109 C 
BRANCH  27  29
ATOM     28  O   UNL     1      26.682 -21.361 -17.727  0.00  0.00    -0.250 OA
ATOM     29  C   UNL     1      26.699 -21.820 -16.593  0.00  0.00    +0.314 C 
BRANCH  29  30
ATOM     30  O   UNL     1      25.570 -22.099 -15.890  0.00  0.00    -0.480 OA
ATOM     31  H   UNL     1      24.734 -21.846 -16.226  0.00  0.00    +0.295 HD
ENDBRANCH  29  30
ENDBRANCH  27  29
ENDBRANCH  26  27
ENDBRANCH  24  26
ENDBRANCH   6  24
TORSDOF 7
ENDMDL
MODEL 2
REMARK VINA RESULT:      -8.2     10.346     13.333
REMARK  Name = 10133
REMARK  7 active torsions:
REMARK  status: ('A' for Active; 'I' for Inactive)
REMARK    1  A    between atoms: C_6  and  C_24
REMARK    2  A    between atoms: C_10  and  O_20
REMARK    3  A    between atoms: C_19  and  O_22
REMARK    4  A    between atoms: C_24  and  C_26
REMARK    5  A    between atoms: C_26  and  C_27
REMARK    6  A    between atoms: C_27  and  C_29
REMARK    7  A    between atoms: C_29  and  O_30
REMARK                            x       y       z     vdW  Elec       q    Type
REMARK                         _______ _______ _______ _____ _____    ______ ____
ROOT
ATOM      1  C   UNL     1      34.481 -16.541 -23.923  0.00  0.00    +0.002 C 
ATOM      2  C   UNL     1      34.591 -16.741 -22.396  0.00  0.00    +0.000 C 
ATOM      3  C   UNL     1      33.509 -15.418 -24.315  0.00  0.00    +0.027 C 
ATOM      4  C   UNL     1      34.010 -14.078 -23.676  0.00  0.00    +0.002 C 
ATOM      5  C   UNL     1      33.062 -12.871 -24.033  0.00  0.00    +0.000 C 
ATOM      6  C   UNL     1      35.563 -17.947 -22.373  0.00  0.00    +0.000 C 
ATOM      7  C   UNL     1      32.934 -12.756 -25.590  0.00  0.00    +0.005 C 
ATOM      8  C   UNL     1      35.160 -15.448 -21.799  0.00  0.00    +0.000 C 
ATOM      9  C   UNL     1      34.291 -14.229 -22.155  0.00  0.00    +0.000 C 
ATOM     10  C   UNL     1      33.337 -15.299 -25.841  0.00  0.00    +0.110 C 
ATOM     11  C   UNL     1      34.229 -17.949 -24.452  0.00  0.00    +0.000 C 
ATOM     12  C   UNL     1      35.042 -18.857 -23.511  0.00  0.00    +0.000 C 
ATOM     13  C   UNL     1      32.497 -14.084 -26.243  0.00  0.00    +0.029 C 
ATOM     14  C   UNL     1      33.581 -11.514 -23.474  0.00  0.00    +0.002 C 
ATOM     15  C   UNL     1      33.251 -17.092 -21.703  0.00  0.00    +0.000 C 
ATOM     16  C   UNL     1      34.209 -12.201 -26.257  0.00  0.00    +0.029 C 
ATOM     17  C   UNL     1      31.649 -13.067 -23.419  0.00  0.00    +0.000 C 
ATOM     18  C   UNL     1      34.855 -11.013 -24.141  0.00  0.00    +0.029 C 
ATOM     19  C   UNL     1      34.660 -10.878 -25.644  0.00  0.00    +0.111 C 
ENDROOT
BRANCH  10  20
ATOM     20  O   UNL     1      34.608 -15.252 -26.483  0.00  0.00    -0.384 OA
ATOM     21  H   UNL     1      35.086 -16.079 -26.313  0.00  0.00    +0.210 HD
ENDBRANCH  10  20
BRANCH  19  22
ATOM     22  O   UNL     1      35.894 -10.475 -26.228  0.00  0.00    -0.384 OA
ATOM     23  H   UNL     1      36.530 -10.262 -25.527  0.00  0.00    +0.210 HD
ENDBRANCH  19  22
BRANCH   6  24
ATOM     24  C   UNL     1      35.709 -18.680 -21.048  0.00  0.00    +0.001 C 
ATOM     25  C   UNL     1      37.128 -19.243 -20.913  0.00  0.00    +0.000 C 
BRANCH  24  26
ATOM     26  C   UNL     1      34.636 -19.781 -20.928  0.00  0.00    +0.012 C 
BRANCH  26  27
ATOM     27  C   UNL     1      34.985 -20.877 -19.919  0.00  0.00    +0.109 C 
BRANCH  27  29
ATOM     28  O   UNL     1      33.741 -22.872 -19.286  0.00  0.00    -0.250 OA
ATOM     29  C   UNL     1      33.766 -21.669 -19.504  0.00  0.00    +0.314 C 
BRANCH  29  30
ATOM     30  O   UNL     1      32.668 -20.874 -19.405  0.00  0.00    -0.480 OA
ATOM     31  H   UNL     1      32.503 -20.400 -18.615  0.00  0.00    +0.295 HD
ENDBRANCH  29  30
ENDBRANCH  27  29
ENDBRANCH  26  27
ENDBRANCH  24  26
ENDBRANCH   6  24
TORSDOF 7
ENDMDL
MODEL 3
REMARK VINA RESULT:      -6.7     14.241     17.258
REMARK  Name = 10133
REMARK  7 active torsions:
REMARK  status: ('A' for Active; 'I' for Inactive)
REMARK    1  A    between atoms: C_6  and  C_24
REMARK    2  A    between atoms: C_10  and  O_20
REMARK    3  A    between atoms: C_19  and  O_22
REMARK    4  A    between atoms: C_24  and  C_26
REMARK    5  A    between atoms: C_26  and  C_27
REMARK    6  A    between atoms: C_27  and  C_29
REMARK    7  A    between atoms: C_29  and  O_30
REMARK                            x       y       z     vdW  Elec       q    Type
REMARK                         _______ _______ _______ _____ _____    ______ ____
ROOT
ATOM      1  C   UNL     1      32.465 -11.127 -23.109  0.00  0.00    +0.002 C 
ATOM      2  C   UNL     1      33.451 -11.844 -24.056  0.00  0.00    +0.000 C 
ATOM      3  C   UNL     1      32.978  -9.762 -22.626  0.00  0.00    +0.027 C 
ATOM      4  C   UNL     1      33.215  -8.847 -23.876  0.00  0.00    +0.002 C 
ATOM      5  C   UNL     1      33.745  -7.421 -23.464  0.00  0.00    +0.000 C 
ATOM      6  C   UNL     1      32.668 -13.162 -24.278  0.00  0.00    +0.000 C 
ATOM      7  C   UNL     1      32.743  -6.769 -22.452  0.00  0.00    +0.005 C 
ATOM      8  C   UNL     1      33.606 -10.972 -25.309  0.00  0.00    +0.000 C 
ATOM      9  C   UNL     1      34.082  -9.552 -24.957  0.00  0.00    +0.000 C 
ATOM     10  C   UNL     1      32.030  -9.107 -21.605  0.00  0.00    +0.110 C 
ATOM     11  C   UNL     1      32.126 -12.193 -22.072  0.00  0.00    +0.000 C 
ATOM     12  C   UNL     1      32.134 -13.510 -22.868  0.00  0.00    +0.000 C 
ATOM     13  C   UNL     1      32.452  -7.680 -21.242  0.00  0.00    +0.029 C 
ATOM     14  C   UNL     1      33.914  -6.468 -24.683  0.00  0.00    +0.002 C 
ATOM     15  C   UNL     1      34.842 -12.120 -23.436  0.00  0.00    +0.000 C 
ATOM     16  C   UNL     1      31.435  -6.300 -23.122  0.00  0.00    +0.029 C 
ATOM     17  C   UNL     1      35.148  -7.514 -22.804  0.00  0.00    +0.000 C 
ATOM     18  C   UNL     1      32.602  -6.049 -25.331  0.00  0.00    +0.029 C 
ATOM     19  C   UNL     1      31.687  -5.382 -24.315  0.00  0.00    +0.111 C 
ENDROOT
BRANCH  10  20
ATOM     20  O   UNL     1      30.692  -9.113 -22.095  0.00  0.00    -0.384 OA
ATOM     21  H   UNL     1      30.074  -9.067 -21.348  0.00  0.00    +0.210 HD
ENDBRANCH  10  20
BRANCH  19  22
ATOM     22  O   UNL     1      30.451  -5.072 -24.951  0.00  0.00    -0.384 OA
ATOM     23  H   UNL     1      30.013  -4.351 -24.473  0.00  0.00    +0.210 HD
ENDBRANCH  19  22
BRANCH   6  24
ATOM     24  C   UNL     1      33.431 -14.309 -24.923  0.00  0.00    +0.001 C 
ATOM     25  C   UNL     1      32.758 -14.714 -26.238  0.00  0.00    +0.000 C 
BRANCH  24  26
ATOM     26  C   UNL     1      33.541 -15.493 -23.941  0.00  0.00    +0.012 C 
BRANCH  26  27
ATOM     27  C   UNL     1      34.949 -16.084 -23.841  0.00  0.00    +0.109 C 
BRANCH  27  29
ATOM     28  O   UNL     1      34.500 -17.773 -25.536  0.00  0.00    -0.250 OA
ATOM     29  C   UNL     1      35.032 -17.450 -24.484  0.00  0.00    +0.314 C 
BRANCH  29  30
ATOM     30  O   UNL     1      35.780 -18.304 -23.737  0.00  0.00    -0.480 OA
ATOM     31  H   UNL     1      36.402 -17.968 -23.123  0.00  0.00    +0.295 HD
ENDBRANCH  29  30
ENDBRANCH  27  29
ENDBRANCH  26  27
ENDBRANCH  24  26
ENDBRANCH   6  24
TORSDOF 7
ENDMDL
MODEL 4
REMARK VINA RESULT:      -6.6     11.560     14.480
REMARK  Name = 10133
REMARK  7 active torsions:
REMARK  status: ('A' for Active; 'I' for Inactive)
REMARK    1  A    between atoms: C_6  and  C_24
REMARK    2  A    between atoms: C_10  and  O_20
REMARK    3  A    between atoms: C_19  and  O_22
REMARK    4  A    between atoms: C_24  and  C_26
REMARK    5  A    between atoms: C_26  and  C_27
REMARK    6  A    between atoms: C_27  and  C_29
REMARK    7  A    between atoms: C_29  and  O_30
REMARK                            x       y       z     vdW  Elec       q    Type
REMARK                         _______ _______ _______ _____ _____    ______ ____
ROOT
ATOM      1  C   UNL     1      33.756 -13.315 -22.825  0.00  0.00    +0.002 C 
ATOM      2  C   UNL     1      33.458 -14.560 -21.963  0.00  0.00    +0.000 C 
ATOM      3  C   UNL     1      32.627 -12.274 -22.792  0.00  0.00    +0.027 C 
ATOM      4  C   UNL     1      32.420 -11.809 -21.310  0.00  0.00    +0.002 C 
ATOM      5  C   UNL     1      31.272 -10.736 -21.190  0.00  0.00    +0.000 C 
ATOM      6  C   UNL     1      34.729 -15.389 -22.277  0.00  0.00    +0.000 C 
ATOM      7  C   UNL     1      31.592  -9.529 -22.135  0.00  0.00    +0.005 C 
ATOM      8  C   UNL     1      33.341 -14.095 -20.505  0.00  0.00    +0.000 C 
ATOM      9  C   UNL     1      32.260 -13.013 -20.340  0.00  0.00    +0.000 C 
ATOM     10  C   UNL     1      32.896 -11.086 -23.735  0.00  0.00    +0.110 C 
ATOM     11  C   UNL     1      34.175 -13.902 -24.170  0.00  0.00    +0.000 C 
ATOM     12  C   UNL     1      34.922 -15.196 -23.800  0.00  0.00    +0.000 C 
ATOM     13  C   UNL     1      31.856  -9.973 -23.588  0.00  0.00    +0.029 C 
ATOM     14  C   UNL     1      31.100 -10.201 -19.738  0.00  0.00    +0.002 C 
ATOM     15  C   UNL     1      32.177 -15.326 -22.373  0.00  0.00    +0.000 C 
ATOM     16  C   UNL     1      32.738  -8.642 -21.606  0.00  0.00    +0.029 C 
ATOM     17  C   UNL     1      29.897 -11.340 -21.582  0.00  0.00    +0.000 C 
ATOM     18  C   UNL     1      32.264  -9.352 -19.245  0.00  0.00    +0.029 C 
ATOM     19  C   UNL     1      32.501  -8.171 -20.175  0.00  0.00    +0.111 C 
ENDROOT
BRANCH  10  20
ATOM     20  O   UNL     1      34.206 -10.568 -23.519  0.00  0.00    -0.384 OA
ATOM     21  H   UNL     1      34.142  -9.680 -23.135  0.00  0.00    +0.210 HD
ENDBRANCH  10  20
BRANCH  19  22
ATOM     22  O   UNL     1      33.637  -7.450 -19.712  0.00  0.00    -0.384 OA
ATOM     23  H   UNL     1      34.114  -7.983 -19.056  0.00  0.00    +0.210 HD
ENDBRANCH  19  22
BRANCH   6  24
ATOM     24  C   UNL     1      34.707 -16.853 -21.863  0.00  0.00    +0.001 C 
ATOM     25  C   UNL     1      35.275 -17.007 -20.449  0.00  0.00    +0.000 C 
BRANCH  24  26
ATOM     26  C   UNL     1      35.475 -17.708 -22.892  0.00  0.00    +0.012 C 
BRANCH  26  27
ATOM     27  C   UNL     1      34.759 -19.004 -23.276  0.00  0.00    +0.109 C 
BRANCH  27  29
ATOM     28  O   UNL     1      34.113 -18.209 -25.486  0.00  0.00    -0.250 OA
ATOM     29  C   UNL     1      34.539 -19.104 -24.769  0.00  0.00    +0.314 C 
BRANCH  29  30
ATOM     30  O   UNL     1      34.869 -20.336 -25.237  0.00  0.00    -0.480 OA
ATOM     31  H   UNL     1      34.199 -20.966 -25.411  0.00  0.00    +0.295 HD
ENDBRANCH  29  30
ENDBRANCH  27  29
ENDBRANCH  26  27
ENDBRANCH  24  26
ENDBRANCH   6  24
TORSDOF 7
ENDMDL
MODEL 5
REMARK VINA RESULT:      -6.4      3.737      5.737
REMARK  Name = 10133
REMARK  7 active torsions:
REMARK  status: ('A' for Active; 'I' for Inactive)
REMARK    1  A    between atoms: C_6  and  C_24
REMARK    2  A    between atoms: C_10  and  O_20
REMARK    3  A    between atoms: C_19  and  O_22
REMARK    4  A    between atoms: C_24  and  C_26
REMARK    5  A    between atoms: C_26  and  C_27
REMARK    6  A    between atoms: C_27  and  C_29
REMARK    7  A    between atoms: C_29  and  O_30
REMARK                            x       y       z     vdW  Elec       q    Type
REMARK                         _______ _______ _______ _____ _____    ______ ____
ROOT
ATOM      1  C   UNL     1      33.629 -22.607 -16.867  0.00  0.00    +0.002 C 
ATOM      2  C   UNL     1      34.493 -22.470 -18.139  0.00  0.00    +0.000 C 
ATOM      3  C   UNL     1      34.078 -23.759 -15.954  0.00  0.00    +0.027 C 
ATOM      4  C   UNL     1      35.560 -23.501 -15.518  0.00  0.00    +0.002 C 
ATOM      5  C   UNL     1      36.099 -24.644 -14.575  0.00  0.00    +0.000 C 
ATOM      6  C   UNL     1      33.741 -21.303 -18.825  0.00  0.00    +0.000 C 
ATOM      7  C   UNL     1      35.148 -24.785 -13.338  0.00  0.00    +0.005 C 
ATOM      8  C   UNL     1      35.923 -22.136 -17.692  0.00  0.00    +0.000 C 
ATOM      9  C   UNL     1      36.481 -23.202 -16.734  0.00  0.00    +0.000 C 
ATOM     10  C   UNL     1      33.145 -23.945 -14.743  0.00  0.00    +0.110 C 
ATOM     11  C   UNL     1      32.201 -22.609 -17.403  0.00  0.00    +0.000 C 
ATOM     12  C   UNL     1      32.250 -21.653 -18.609  0.00  0.00    +0.000 C 
ATOM     13  C   UNL     1      33.675 -24.981 -13.749  0.00  0.00    +0.029 C 
ATOM     14  C   UNL     1      37.544 -24.370 -14.065  0.00  0.00    +0.002 C 
ATOM     15  C   UNL     1      34.506 -23.730 -19.038  0.00  0.00    +0.000 C 
ATOM     16  C   UNL     1      35.296 -23.623 -12.334  0.00  0.00    +0.029 C 
ATOM     17  C   UNL     1      36.166 -26.002 -15.324  0.00  0.00    +0.000 C 
ATOM     18  C   UNL     1      37.651 -23.201 -13.096  0.00  0.00    +0.029 C 
ATOM     19  C   UNL     1      36.742 -23.412 -11.894  0.00  0.00    +0.111 C 
ENDROOT
BRANCH  10  20
ATOM     20  O   UNL     1      32.930 -22.699 -14.086  0.00  0.00    -0.384 OA
ATOM     21  H   UNL     1      32.044 -22.369 -14.301  0.00  0.00    +0.210 HD
ENDBRANCH  10  20
BRANCH  19  22
ATOM     22  O   UNL     1      36.825 -22.265 -11.055  0.00  0.00    -0.384 OA
ATOM     23  H   UNL     1      36.587 -22.510 -10.147  0.00  0.00    +0.210 HD
ENDBRANCH  19  22
BRANCH   6  24
ATOM     24  C   UNL     1      34.081 -21.035 -20.284  0.00  0.00    +0.001 C 
ATOM     25  C   UNL     1      35.593 -20.844 -20.442  0.00  0.00    +0.000 C 
BRANCH  24  26
ATOM     26  C   UNL     1      33.286 -19.820 -20.801  0.00  0.00    +0.012 C 
BRANCH  26  27
ATOM     27  C   UNL     1      34.070 -18.939 -21.775  0.00  0.00    +0.109 C 
BRANCH  27  29
ATOM     28  O   UNL     1      33.471 -16.614 -21.363  0.00  0.00    -0.250 OA
ATOM     29  C   UNL     1      34.262 -17.539 -21.237  0.00  0.00    +0.314 C 
BRANCH  29  30
ATOM     30  O   UNL     1      35.449 -17.416 -20.586  0.00  0.00    -0.480 OA
ATOM     31  H   UNL     1      36.249 -17.388 -21.071  0.00  0.00    +0.295 HD
ENDBRANCH  29  30
ENDBRANCH  27  29
ENDBRANCH  26  27
ENDBRANCH  24  26
ENDBRANCH   6  24
TORSDOF 7
ENDMDL
MODEL 6
REMARK VINA RESULT:      -6.3     11.327     14.300
REMARK  Name = 10133
REMARK  7 active torsions:
REMARK  status: ('A' for Active; 'I' for Inactive)
REMARK    1  A    between atoms: C_6  and  C_24
REMARK    2  A    between atoms: C_10  and  O_20
REMARK    3  A    between atoms: C_19  and  O_22
REMARK    4  A    between atoms: C_24  and  C_26
REMARK    5  A    between atoms: C_26  and  C_27
REMARK    6  A    between atoms: C_27  and  C_29
REMARK    7  A    between atoms: C_29  and  O_30
REMARK                            x       y       z     vdW  Elec       q    Type
REMARK                         _______ _______ _______ _____ _____    ______ ____
ROOT
ATOM      1  C   UNL     1      33.746 -13.299 -22.818  0.00  0.00    +0.002 C 
ATOM      2  C   UNL     1      33.437 -14.529 -21.937  0.00  0.00    +0.000 C 
ATOM      3  C   UNL     1      32.627 -12.247 -22.798  0.00  0.00    +0.027 C 
ATOM      4  C   UNL     1      32.426 -11.760 -21.323  0.00  0.00    +0.002 C 
ATOM      5  C   UNL     1      31.288 -10.674 -21.216  0.00  0.00    +0.000 C 
ATOM      6  C   UNL     1      34.699 -15.374 -22.242  0.00  0.00    +0.000 C 
ATOM      7  C   UNL     1      31.619  -9.483 -22.178  0.00  0.00    +0.005 C 
ATOM      8  C   UNL     1      33.326 -14.043 -20.486  0.00  0.00    +0.000 C 
ATOM      9  C   UNL     1      32.255 -12.948 -20.336  0.00  0.00    +0.000 C 
ATOM     10  C   UNL     1      32.906 -11.075 -23.758  0.00  0.00    +0.110 C 
ATOM     11  C   UNL     1      34.157 -13.909 -24.154  0.00  0.00    +0.000 C 
ATOM     12  C   UNL     1      34.893 -15.205 -23.767  0.00  0.00    +0.000 C 
ATOM     13  C   UNL     1      31.877  -9.950 -23.625  0.00  0.00    +0.029 C 
ATOM     14  C   UNL     1      31.123 -10.117 -19.771  0.00  0.00    +0.002 C 
ATOM     15  C   UNL     1      32.148 -15.288 -22.336  0.00  0.00    +0.000 C 
ATOM     16  C   UNL     1      32.774  -8.599 -21.664  0.00  0.00    +0.029 C 
ATOM     17  C   UNL     1      29.907 -11.270 -21.599  0.00  0.00    +0.000 C 
ATOM     18  C   UNL     1      32.295  -9.272 -19.292  0.00  0.00    +0.029 C 
ATOM     19  C   UNL     1      32.543  -8.106 -20.239  0.00  0.00    +0.111 C 
ENDROOT
BRANCH  10  20
ATOM     20  O   UNL     1      34.221 -10.566 -23.551  0.00  0.00    -0.384 OA
ATOM     21  H   UNL     1      34.216  -9.956 -22.797  0.00  0.00    +0.210 HD
ENDBRANCH  10  20
BRANCH  19  22
ATOM     22  O   UNL     1      33.687  -7.389 -19.787  0.00  0.00    -0.384 OA
ATOM     23  H   UNL     1      34.421  -7.528 -20.406  0.00  0.00    +0.210 HD
ENDBRANCH  19  22
BRANCH   6  24
ATOM     24  C   UNL     1      34.664 -16.832 -21.807  0.00  0.00    +0.001 C 
ATOM     25  C   UNL     1      35.311 -16.984 -20.427  0.00  0.00    +0.000 C 
BRANCH  24  26
ATOM     26  C   UNL     1      35.347 -17.720 -22.868  0.00  0.00    +0.012 C 
BRANCH  26  27
ATOM     27  C   UNL     1      34.694 -19.092 -23.037  0.00  0.00    +0.109 C 
BRANCH  27  29
ATOM     28  O   UNL     1      35.536 -20.299 -21.097  0.00  0.00    -0.250 OA
ATOM     29  C   UNL     1      34.594 -19.834 -21.724  0.00  0.00    +0.314 C 
BRANCH  29  30
ATOM     30  O   UNL     1      33.305 -19.937 -21.308  0.00  0.00    -0.480 OA
ATOM     31  H   UNL     1      32.934 -20.779 -21.135  0.00  0.00    +0.295 HD
ENDBRANCH  29  30
ENDBRANCH  27  29
ENDBRANCH  26  27
ENDBRANCH  24  26
ENDBRANCH   6  24
TORSDOF 7
ENDMDL
