MODEL 1
REMARK VINA RESULT:      -9.2      0.000      0.000
REMARK  Name = 57469
REMARK  2 active torsions:
REMARK  status: ('A' for Active; 'I' for Inactive)
REMARK    1  A    between atoms: N_1  and  C_17
REMARK    2  A    between atoms: C_17  and  C_18
REMARK                            x       y       z     vdW  Elec       q    Type
REMARK                         _______ _______ _______ _____ _____    ______ ____
ROOT
ATOM      1  N   UNL     1      34.755 -17.367 -23.047  0.00  0.00    -0.286 N 
ATOM      2  N   UNL     1      34.660 -17.150 -25.256  0.00  0.00    -0.243 NA
ATOM      3  N   UNL     1      32.805 -14.054 -24.418  0.00  0.00    -0.386 NA
ATOM      4  N   UNL     1      33.310 -14.848 -26.614  0.00  0.00    -0.332 N 
ATOM      5  C   UNL     1      34.066 -16.201 -23.270  0.00  0.00    +0.073 C 
ATOM      6  C   UNL     1      33.484 -15.244 -22.421  0.00  0.00    +0.045 C 
ATOM      7  C   UNL     1      34.021 -16.092 -24.655  0.00  0.00    +0.135 C 
ATOM      8  C   UNL     1      35.088 -17.896 -24.263  0.00  0.00    +0.220 C 
ATOM      9  C   UNL     1      32.852 -14.166 -23.074  0.00  0.00    +0.134 C 
ATOM     10  C   UNL     1      33.376 -14.993 -25.216  0.00  0.00    +0.196 C 
ATOM     11  C   UNL     1      33.525 -15.349 -21.017  0.00  0.00    +0.004 C 
ATOM     12  C   UNL     1      32.265 -13.199 -22.266  0.00  0.00    +0.032 C 
ATOM     13  C   UNL     1      32.926 -14.360 -20.245  0.00  0.00    +0.000 C 
ATOM     14  C   UNL     1      32.297 -13.287 -20.869  0.00  0.00    +0.003 C 
ATOM     15  H   UNL     1      32.853 -14.069 -27.006  0.00  0.00    +0.145 HD
ATOM     16  H   UNL     1      33.721 -15.525 -27.200  0.00  0.00    +0.145 HD
ENDROOT
BRANCH   1  17
ATOM     17  C   UNL     1      35.104 -17.987 -21.790  0.00  0.00    +0.093 C 
BRANCH  17  18
ATOM     18  C   UNL     1      34.539 -19.408 -21.618  0.00  0.00    +0.020 C 
ATOM     19  C   UNL     1      33.145 -19.400 -20.986  0.00  0.00    +0.002 C 
ATOM     20  C   UNL     1      35.491 -20.242 -20.759  0.00  0.00    +0.002 C 
ENDBRANCH  17  18
ENDBRANCH   1  17
TORSDOF 2
ENDMDL
MODEL 2
REMARK VINA RESULT:      -8.6      1.797      3.971
REMARK  Name = 57469
REMARK  2 active torsions:
REMARK  status: ('A' for Active; 'I' for Inactive)
REMARK    1  A    between atoms: N_1  and  C_17
REMARK    2  A    between atoms: C_17  and  C_18
REMARK                            x       y       z     vdW  Elec       q    Type
REMARK                         _______ _______ _______ _____ _____    ______ ____
ROOT
ATOM      1  N   UNL     1      34.673 -16.206 -21.661  0.00  0.00    -0.286 N 
ATOM      2  N   UNL     1      35.193 -18.328 -22.061  0.00  0.00    -0.243 NA
ATOM      3  N   UNL     1      34.171 -17.456 -25.513  0.00  0.00    -0.386 NA
ATOM      4  N   UNL     1      34.949 -19.588 -24.766  0.00  0.00    -0.332 N 
ATOM      5  C   UNL     1      34.429 -16.395 -22.999  0.00  0.00    +0.073 C 
ATOM      6  C   UNL     1      33.960 -15.558 -24.026  0.00  0.00    +0.045 C 
ATOM      7  C   UNL     1      34.762 -17.727 -23.219  0.00  0.00    +0.135 C 
ATOM      8  C   UNL     1      35.127 -17.387 -21.146  0.00  0.00    +0.220 C 
ATOM      9  C   UNL     1      33.851 -16.165 -25.293  0.00  0.00    +0.134 C 
ATOM     10  C   UNL     1      34.623 -18.245 -24.504  0.00  0.00    +0.196 C 
ATOM     11  C   UNL     1      33.622 -14.207 -23.808  0.00  0.00    +0.004 C 
ATOM     12  C   UNL     1      33.390 -15.366 -26.334  0.00  0.00    +0.032 C 
ATOM     13  C   UNL     1      33.166 -13.443 -24.876  0.00  0.00    +0.000 C 
ATOM     14  C   UNL     1      33.050 -14.022 -26.137  0.00  0.00    +0.003 C 
ATOM     15  H   UNL     1      34.849 -19.950 -25.676  0.00  0.00    +0.145 HD
ATOM     16  H   UNL     1      35.276 -20.166 -24.039  0.00  0.00    +0.145 HD
ENDROOT
BRANCH   1  17
ATOM     17  C   UNL     1      34.506 -15.008 -20.871  0.00  0.00    +0.093 C 
BRANCH  17  18
ATOM     18  C   UNL     1      33.105 -14.861 -20.252  0.00  0.00    +0.020 C 
ATOM     19  C   UNL     1      32.164 -15.988 -20.684  0.00  0.00    +0.002 C 
ATOM     20  C   UNL     1      32.506 -13.509 -20.643  0.00  0.00    +0.002 C 
ENDBRANCH  17  18
ENDBRANCH   1  17
TORSDOF 2
ENDMDL
MODEL 3
REMARK VINA RESULT:      -8.5      1.538      4.289
REMARK  Name = 57469
REMARK  2 active torsions:
REMARK  status: ('A' for Active; 'I' for Inactive)
REMARK    1  A    between atoms: N_1  and  C_17
REMARK    2  A    between atoms: C_17  and  C_18
REMARK                            x       y       z     vdW  Elec       q    Type
REMARK                         _______ _______ _______ _____ _____    ______ ____
ROOT
ATOM      1  N   UNL     1      33.975 -14.274 -22.579  0.00  0.00    -0.286 N 
ATOM      2  N   UNL     1      33.325 -13.128 -24.368  0.00  0.00    -0.243 NA
ATOM      3  N   UNL     1      33.816 -16.381 -26.071  0.00  0.00    -0.386 NA
ATOM      4  N   UNL     1      33.092 -14.347 -27.093  0.00  0.00    -0.332 N 
ATOM      5  C   UNL     1      33.997 -15.173 -23.617  0.00  0.00    +0.073 C 
ATOM      6  C   UNL     1      34.327 -16.536 -23.709  0.00  0.00    +0.045 C 
ATOM      7  C   UNL     1      33.587 -14.430 -24.719  0.00  0.00    +0.135 C 
ATOM      8  C   UNL     1      33.568 -13.068 -23.078  0.00  0.00    +0.220 C 
ATOM      9  C   UNL     1      34.212 -17.096 -24.997  0.00  0.00    +0.134 C 
ATOM     10  C   UNL     1      33.502 -15.065 -25.955  0.00  0.00    +0.196 C 
ATOM     11  C   UNL     1      34.743 -17.293 -22.596  0.00  0.00    +0.004 C 
ATOM     12  C   UNL     1      34.530 -18.444 -25.127  0.00  0.00    +0.032 C 
ATOM     13  C   UNL     1      35.051 -18.638 -22.768  0.00  0.00    +0.000 C 
ATOM     14  C   UNL     1      34.944 -19.212 -24.032  0.00  0.00    +0.003 C 
ATOM     15  H   UNL     1      33.033 -14.800 -27.965  0.00  0.00    +0.145 HD
ATOM     16  H   UNL     1      32.864 -13.392 -27.017  0.00  0.00    +0.145 HD
ENDROOT
BRANCH   1  17
ATOM     17  C   UNL     1      34.308 -14.486 -21.190  0.00  0.00    +0.093 C 
BRANCH  17  18
ATOM     18  C   UNL     1      33.081 -14.617 -20.269  0.00  0.00    +0.020 C 
ATOM     19  C   UNL     1      32.202 -15.811 -20.649  0.00  0.00    +0.002 C 
ATOM     20  C   UNL     1      32.256 -13.330 -20.322  0.00  0.00    +0.002 C 
ENDBRANCH  17  18
ENDBRANCH   1  17
TORSDOF 2
ENDMDL
MODEL 4
REMARK VINA RESULT:      -8.2      8.549     10.733
REMARK  Name = 57469
REMARK  2 active torsions:
REMARK  status: ('A' for Active; 'I' for Inactive)
REMARK    1  A    between atoms: N_1  and  C_17
REMARK    2  A    between atoms: C_17  and  C_18
REMARK                            x       y       z     vdW  Elec       q    Type
REMARK                         _______ _______ _______ _____ _____    ______ ____
ROOT
ATOM      1  N   UNL     1      35.178 -23.354 -14.815  0.00  0.00    -0.286 N 
ATOM      2  N   UNL     1      35.913 -22.977 -16.877  0.00  0.00    -0.243 NA
ATOM      3  N   UNL     1      32.294 -22.883 -17.663  0.00  0.00    -0.386 NA
ATOM      4  N   UNL     1      34.085 -22.585 -19.216  0.00  0.00    -0.332 N 
ATOM      5  C   UNL     1      34.050 -23.230 -15.587  0.00  0.00    +0.073 C 
ATOM      6  C   UNL     1      32.674 -23.296 -15.308  0.00  0.00    +0.045 C 
ATOM      7  C   UNL     1      34.539 -22.996 -16.868  0.00  0.00    +0.135 C 
ATOM      8  C   UNL     1      36.264 -23.196 -15.630  0.00  0.00    +0.220 C 
ATOM      9  C   UNL     1      31.826 -23.110 -16.419  0.00  0.00    +0.134 C 
ATOM     10  C   UNL     1      33.628 -22.823 -17.906  0.00  0.00    +0.196 C 
ATOM     11  C   UNL     1      32.173 -23.533 -14.013  0.00  0.00    +0.004 C 
ATOM     12  C   UNL     1      30.457 -23.169 -16.180  0.00  0.00    +0.032 C 
ATOM     13  C   UNL     1      30.797 -23.584 -13.817  0.00  0.00    +0.000 C 
ATOM     14  C   UNL     1      29.941 -23.402 -14.900  0.00  0.00    +0.003 C 
ATOM     15  H   UNL     1      33.438 -22.463 -19.948  0.00  0.00    +0.145 HD
ATOM     16  H   UNL     1      35.051 -22.541 -19.400  0.00  0.00    +0.145 HD
ENDROOT
BRANCH   1  17
ATOM     17  C   UNL     1      35.281 -23.605 -13.396  0.00  0.00    +0.093 C 
BRANCH  17  18
ATOM     18  C   UNL     1      36.714 -23.901 -12.919  0.00  0.00    +0.020 C 
ATOM     19  C   UNL     1      36.914 -25.381 -12.582  0.00  0.00    +0.002 C 
ATOM     20  C   UNL     1      37.038 -23.044 -11.694  0.00  0.00    +0.002 C 
ENDBRANCH  17  18
ENDBRANCH   1  17
TORSDOF 2
ENDMDL
MODEL 5
REMARK VINA RESULT:      -8.1      8.095     10.748
REMARK  Name = 57469
REMARK  2 active torsions:
REMARK  status: ('A' for Active; 'I' for Inactive)
REMARK    1  A    between atoms: N_1  and  C_17
REMARK    2  A    between atoms: C_17  and  C_18
REMARK                            x       y       z     vdW  Elec       q    Type
REMARK                         _______ _______ _______ _____ _____    ______ ____
ROOT
ATOM      1  N   UNL     1      32.785 -23.776 -15.336  0.00  0.00    -0.286 N 
ATOM      2  N   UNL     1      34.307 -24.015 -13.735  0.00  0.00    -0.243 NA
ATOM      3  N   UNL     1      36.562 -22.554 -16.285  0.00  0.00    -0.386 NA
ATOM      4  N   UNL     1      37.175 -23.228 -14.076  0.00  0.00    -0.332 N 
ATOM      5  C   UNL     1      33.958 -23.306 -15.874  0.00  0.00    +0.073 C 
ATOM      6  C   UNL     1      34.301 -22.765 -17.125  0.00  0.00    +0.045 C 
ATOM      7  C   UNL     1      34.889 -23.468 -14.853  0.00  0.00    +0.135 C 
ATOM      8  C   UNL     1      33.045 -24.188 -14.059  0.00  0.00    +0.220 C 
ATOM      9  C   UNL     1      35.655 -22.400 -17.270  0.00  0.00    +0.134 C 
ATOM     10  C   UNL     1      36.205 -23.079 -15.084  0.00  0.00    +0.196 C 
ATOM     11  C   UNL     1      33.363 -22.599 -18.163  0.00  0.00    +0.004 C 
ATOM     12  C   UNL     1      36.031 -21.860 -18.496  0.00  0.00    +0.032 C 
ATOM     13  C   UNL     1      33.780 -22.055 -19.373  0.00  0.00    +0.000 C 
ATOM     14  C   UNL     1      35.112 -21.687 -19.538  0.00  0.00    +0.003 C 
ATOM     15  H   UNL     1      38.105 -22.952 -14.244  0.00  0.00    +0.145 HD
ATOM     16  H   UNL     1      36.924 -23.609 -13.203  0.00  0.00    +0.145 HD
ENDROOT
BRANCH   1  17
ATOM     17  C   UNL     1      31.478 -23.854 -15.945  0.00  0.00    +0.093 C 
BRANCH  17  18
ATOM     18  C   UNL     1      30.317 -23.808 -14.935  0.00  0.00    +0.020 C 
ATOM     19  C   UNL     1      29.546 -25.130 -14.884  0.00  0.00    +0.002 C 
ATOM     20  C   UNL     1      29.364 -22.667 -15.294  0.00  0.00    +0.002 C 
ENDBRANCH  17  18
ENDBRANCH   1  17
TORSDOF 2
ENDMDL
MODEL 6
REMARK VINA RESULT:      -8.0      1.708      4.836
REMARK  Name = 57469
REMARK  2 active torsions:
REMARK  status: ('A' for Active; 'I' for Inactive)
REMARK    1  A    between atoms: N_1  and  C_17
REMARK    2  A    between atoms: C_17  and  C_18
REMARK                            x       y       z     vdW  Elec       q    Type
REMARK                         _______ _______ _______ _____ _____    ______ ____
ROOT
ATOM      1  N   UNL     1      33.186 -14.260 -24.925  0.00  0.00    -0.286 N 
ATOM      2  N   UNL     1      33.537 -15.943 -26.332  0.00  0.00    -0.243 NA
ATOM      3  N   UNL     1      34.771 -17.642 -23.281  0.00  0.00    -0.386 NA
ATOM      4  N   UNL     1      34.686 -18.573 -25.479  0.00  0.00    -0.332 N 
ATOM      5  C   UNL     1      33.713 -15.271 -24.160  0.00  0.00    +0.073 C 
ATOM      6  C   UNL     1      34.026 -15.390 -22.795  0.00  0.00    +0.045 C 
ATOM      7  C   UNL     1      33.922 -16.307 -25.064  0.00  0.00    +0.135 C 
ATOM      8  C   UNL     1      33.100 -14.709 -26.213  0.00  0.00    +0.220 C 
ATOM      9  C   UNL     1      34.566 -16.633 -22.409  0.00  0.00    +0.134 C 
ATOM     10  C   UNL     1      34.460 -17.502 -24.595  0.00  0.00    +0.196 C 
ATOM     11  C   UNL     1      33.816 -14.344 -21.875  0.00  0.00    +0.004 C 
ATOM     12  C   UNL     1      34.887 -16.788 -21.065  0.00  0.00    +0.032 C 
ATOM     13  C   UNL     1      34.151 -14.540 -20.539  0.00  0.00    +0.000 C 
ATOM     14  C   UNL     1      34.685 -15.760 -20.136  0.00  0.00    +0.003 C 
ATOM     15  H   UNL     1      35.068 -19.416 -25.143  0.00  0.00    +0.145 HD
ATOM     16  H   UNL     1      34.464 -18.478 -26.434  0.00  0.00    +0.145 HD
ENDROOT
BRANCH   1  17
ATOM     17  C   UNL     1      32.773 -12.938 -24.517  0.00  0.00    +0.093 C 
BRANCH  17  18
ATOM     18  C   UNL     1      33.916 -11.907 -24.495  0.00  0.00    +0.020 C 
ATOM     19  C   UNL     1      33.554 -10.663 -23.681  0.00  0.00    +0.002 C 
ATOM     20  C   UNL     1      34.272 -11.502 -25.927  0.00  0.00    +0.002 C 
ENDBRANCH  17  18
ENDBRANCH   1  17
TORSDOF 2
ENDMDL
MODEL 7
REMARK VINA RESULT:      -8.0      9.849     11.792
REMARK  Name = 57469
REMARK  2 active torsions:
REMARK  status: ('A' for Active; 'I' for Inactive)
REMARK    1  A    between atoms: N_1  and  C_17
REMARK    2  A    between atoms: C_17  and  C_18
REMARK                            x       y       z     vdW  Elec       q    Type
REMARK                         _______ _______ _______ _____ _____    ______ ____
ROOT
ATOM      1  N   UNL     1      33.493 -23.731 -15.279  0.00  0.00    -0.286 N 
ATOM      2  N   UNL     1      34.524 -22.994 -17.103  0.00  0.00    -0.243 NA
ATOM      3  N   UNL     1      37.461 -22.881 -14.848  0.00  0.00    -0.386 NA
ATOM      4  N   UNL     1      37.430 -22.273 -17.158  0.00  0.00    -0.332 N 
ATOM      5  C   UNL     1      34.795 -23.516 -14.900  0.00  0.00    +0.073 C 
ATOM      6  C   UNL     1      35.489 -23.671 -13.687  0.00  0.00    +0.045 C 
ATOM      7  C   UNL     1      35.414 -23.057 -16.058  0.00  0.00    +0.135 C 
ATOM      8  C   UNL     1      33.382 -23.405 -16.602  0.00  0.00    +0.220 C 
ATOM      9  C   UNL     1      36.855 -23.328 -13.729  0.00  0.00    +0.134 C 
ATOM     10  C   UNL     1      36.769 -22.741 -16.007  0.00  0.00    +0.196 C 
ATOM     11  C   UNL     1      34.867 -24.136 -12.512  0.00  0.00    +0.004 C 
ATOM     12  C   UNL     1      37.574 -23.469 -12.547  0.00  0.00    +0.032 C 
ATOM     13  C   UNL     1      35.621 -24.263 -11.351  0.00  0.00    +0.000 C 
ATOM     14  C   UNL     1      36.973 -23.930 -11.369  0.00  0.00    +0.003 C 
ATOM     15  H   UNL     1      38.388 -22.050 -17.118  0.00  0.00    +0.145 HD
ATOM     16  H   UNL     1      36.934 -22.167 -18.002  0.00  0.00    +0.145 HD
ENDROOT
BRANCH   1  17
ATOM     17  C   UNL     1      32.386 -24.212 -14.484  0.00  0.00    +0.093 C 
BRANCH  17  18
ATOM     18  C   UNL     1      31.022 -24.109 -15.190  0.00  0.00    +0.020 C 
ATOM     19  C   UNL     1      30.269 -22.834 -14.802  0.00  0.00    +0.002 C 
ATOM     20  C   UNL     1      30.172 -25.335 -14.852  0.00  0.00    +0.002 C 
ENDBRANCH  17  18
ENDBRANCH   1  17
TORSDOF 2
ENDMDL
MODEL 8
REMARK VINA RESULT:      -8.0      1.691      3.635
REMARK  Name = 57469
REMARK  2 active torsions:
REMARK  status: ('A' for Active; 'I' for Inactive)
REMARK    1  A    between atoms: N_1  and  C_17
REMARK    2  A    between atoms: C_17  and  C_18
REMARK                            x       y       z     vdW  Elec       q    Type
REMARK                         _______ _______ _______ _____ _____    ______ ____
ROOT
ATOM      1  N   UNL     1      34.702 -16.350 -21.813  0.00  0.00    -0.286 N 
ATOM      2  N   UNL     1      33.907 -15.023 -20.219  0.00  0.00    -0.243 NA
ATOM      3  N   UNL     1      32.318 -13.289 -23.081  0.00  0.00    -0.386 NA
ATOM      4  N   UNL     1      32.129 -12.680 -20.779  0.00  0.00    -0.332 N 
ATOM      5  C   UNL     1      33.941 -15.411 -22.465  0.00  0.00    +0.073 C 
ATOM      6  C   UNL     1      33.627 -15.189 -23.817  0.00  0.00    +0.045 C 
ATOM      7  C   UNL     1      33.459 -14.598 -21.446  0.00  0.00    +0.135 C 
ATOM      8  C   UNL     1      34.650 -16.076 -20.476  0.00  0.00    +0.220 C 
ATOM      9  C   UNL     1      32.790 -14.083 -24.065  0.00  0.00    +0.134 C 
ATOM     10  C   UNL     1      32.636 -13.526 -21.783  0.00  0.00    +0.196 C 
ATOM     11  C   UNL     1      34.113 -16.010 -24.854  0.00  0.00    +0.004 C 
ATOM     12  C   UNL     1      32.457 -13.832 -25.392  0.00  0.00    +0.032 C 
ATOM     13  C   UNL     1      33.756 -15.725 -26.168  0.00  0.00    +0.000 C 
ATOM     14  C   UNL     1      32.930 -14.637 -26.435  0.00  0.00    +0.003 C 
ATOM     15  H   UNL     1      31.548 -11.923 -21.021  0.00  0.00    +0.145 HD
ATOM     16  H   UNL     1      32.356 -12.845 -19.835  0.00  0.00    +0.145 HD
ENDROOT
BRANCH   1  17
ATOM     17  C   UNL     1      35.449 -17.454 -22.369  0.00  0.00    +0.093 C 
BRANCH  17  18
ATOM     18  C   UNL     1      34.638 -18.756 -22.491  0.00  0.00    +0.020 C 
ATOM     19  C   UNL     1      34.962 -19.744 -21.368  0.00  0.00    +0.002 C 
ATOM     20  C   UNL     1      34.909 -19.409 -23.847  0.00  0.00    +0.002 C 
ENDBRANCH  17  18
ENDBRANCH   1  17
TORSDOF 2
ENDMDL
MODEL 9
REMARK VINA RESULT:      -7.7      4.165      6.566
REMARK  Name = 57469
REMARK  2 active torsions:
REMARK  status: ('A' for Active; 'I' for Inactive)
REMARK    1  A    between atoms: N_1  and  C_17
REMARK    2  A    between atoms: C_17  and  C_18
REMARK                            x       y       z     vdW  Elec       q    Type
REMARK                         _______ _______ _______ _____ _____    ______ ____
ROOT
ATOM      1  N   UNL     1      31.947 -11.914 -22.142  0.00  0.00    -0.286 N 
ATOM      2  N   UNL     1      31.148 -10.411 -20.714  0.00  0.00    -0.243 NA
ATOM      3  N   UNL     1      33.316  -8.101 -22.634  0.00  0.00    -0.386 NA
ATOM      4  N   UNL     1      31.930  -7.522 -20.777  0.00  0.00    -0.332 N 
ATOM      5  C   UNL     1      32.537 -10.726 -22.495  0.00  0.00    +0.073 C 
ATOM      6  C   UNL     1      33.455 -10.360 -23.495  0.00  0.00    +0.045 C 
ATOM      7  C   UNL     1      32.020  -9.807 -21.587  0.00  0.00    +0.135 C 
ATOM      8  C   UNL     1      31.127 -11.675 -21.075  0.00  0.00    +0.220 C 
ATOM      9  C   UNL     1      33.813  -8.997 -23.512  0.00  0.00    +0.134 C 
ATOM     10  C   UNL     1      32.430  -8.480 -21.677  0.00  0.00    +0.196 C 
ATOM     11  C   UNL     1      33.981 -11.286 -24.417  0.00  0.00    +0.004 C 
ATOM     12  C   UNL     1      34.719  -8.598 -24.489  0.00  0.00    +0.032 C 
ATOM     13  C   UNL     1      34.884 -10.846 -25.378  0.00  0.00    +0.000 C 
ATOM     14  C   UNL     1      35.252  -9.504 -25.413  0.00  0.00    +0.003 C 
ATOM     15  H   UNL     1      32.223  -6.584 -20.844  0.00  0.00    +0.145 HD
ATOM     16  H   UNL     1      31.288  -7.789 -20.079  0.00  0.00    +0.145 HD
ENDROOT
BRANCH   1  17
ATOM     17  C   UNL     1      32.111 -13.219 -22.740  0.00  0.00    +0.093 C 
BRANCH  17  18
ATOM     18  C   UNL     1      33.203 -14.075 -22.074  0.00  0.00    +0.020 C 
ATOM     19  C   UNL     1      34.140 -14.713 -23.103  0.00  0.00    +0.002 C 
ATOM     20  C   UNL     1      32.555 -15.166 -21.220  0.00  0.00    +0.002 C 
ENDBRANCH  17  18
ENDBRANCH   1  17
TORSDOF 2
ENDMDL
