MODEL 1
REMARK VINA RESULT:      -9.3      0.000      0.000
REMARK  Name = 445920
REMARK  3 active torsions:
REMARK  status: ('A' for Active; 'I' for Inactive)
REMARK    1  A    between atoms: C_3  and  C_10
REMARK    2  A    between atoms: C_8  and  O_18
REMARK    3  A    between atoms: C_15  and  O_16
REMARK                            x       y       z     vdW  Elec       q    Type
REMARK                         _______ _______ _______ _____ _____    ______ ____
ROOT
ATOM      1  S   UNL     1      36.226 -19.867 -20.711  0.00  0.00    -0.087 S 
ATOM      2  C   UNL     1      34.130 -21.093 -19.822  0.00  0.00    +0.007 C 
ATOM      3  C   UNL     1      34.748 -19.597 -21.515  0.00  0.00    +0.029 C 
ATOM      4  C   UNL     1      35.500 -20.945 -19.578  0.00  0.00    +0.032 C 
ATOM      5  C   UNL     1      33.715 -20.305 -20.947  0.00  0.00    +0.007 C 
ATOM      6  C   UNL     1      33.389 -21.949 -18.974  0.00  0.00    +0.004 C 
ATOM      7  C   UNL     1      36.137 -21.623 -18.521  0.00  0.00    +0.043 C 
ATOM      8  C   UNL     1      35.377 -22.461 -17.701  0.00  0.00    +0.134 C 
ATOM      9  C   UNL     1      34.017 -22.623 -17.924  0.00  0.00    +0.037 C 
ENDROOT
BRANCH   3  10
ATOM     10  C   UNL     1      34.722 -18.705 -22.650  0.00  0.00    +0.006 C 
ATOM     11  C   UNL     1      34.559 -19.219 -23.936  0.00  0.00    +0.004 C 
ATOM     12  C   UNL     1      34.859 -17.331 -22.459  0.00  0.00    +0.004 C 
ATOM     13  C   UNL     1      34.532 -18.357 -25.032  0.00  0.00    +0.037 C 
ATOM     14  C   UNL     1      34.832 -16.468 -23.556  0.00  0.00    +0.037 C 
ATOM     15  C   UNL     1      34.670 -16.982 -24.842  0.00  0.00    +0.134 C 
BRANCH  15  16
ATOM     16  O   UNL     1      34.643 -16.142 -25.912  0.00  0.00    -0.506 OA
ATOM     17  H   UNL     1      35.277 -15.457 -25.986  0.00  0.00    +0.292 HD
ENDBRANCH  15  16
ENDBRANCH   3  10
BRANCH   8  18
ATOM     18  O   UNL     1      35.980 -23.122 -16.674  0.00  0.00    -0.505 OA
ATOM     19  H   UNL     1      36.345 -22.642 -15.957  0.00  0.00    +0.292 HD
ENDBRANCH   8  18
TORSDOF 3
ENDMDL
MODEL 2
REMARK VINA RESULT:      -9.2      1.448      7.209
REMARK  Name = 445920
REMARK  3 active torsions:
REMARK  status: ('A' for Active; 'I' for Inactive)
REMARK    1  A    between atoms: C_3  and  C_10
REMARK    2  A    between atoms: C_8  and  O_18
REMARK    3  A    between atoms: C_15  and  O_16
REMARK                            x       y       z     vdW  Elec       q    Type
REMARK                         _______ _______ _______ _____ _____    ______ ____
ROOT
ATOM      1  S   UNL     1      34.692 -19.034 -23.534  0.00  0.00    -0.087 S 
ATOM      2  C   UNL     1      34.187 -16.582 -22.884  0.00  0.00    +0.007 C 
ATOM      3  C   UNL     1      34.660 -18.643 -21.876  0.00  0.00    +0.029 C 
ATOM      4  C   UNL     1      34.330 -17.413 -24.000  0.00  0.00    +0.032 C 
ATOM      5  C   UNL     1      34.382 -17.313 -21.664  0.00  0.00    +0.007 C 
ATOM      6  C   UNL     1      33.888 -15.217 -23.101  0.00  0.00    +0.004 C 
ATOM      7  C   UNL     1      34.184 -16.918 -25.311  0.00  0.00    +0.043 C 
ATOM      8  C   UNL     1      33.888 -15.565 -25.492  0.00  0.00    +0.134 C 
ATOM      9  C   UNL     1      33.741 -14.722 -24.399  0.00  0.00    +0.037 C 
ENDROOT
BRANCH   3  10
ATOM     10  C   UNL     1      34.913 -19.683 -20.907  0.00  0.00    +0.006 C 
ATOM     11  C   UNL     1      36.217 -19.942 -20.488  0.00  0.00    +0.004 C 
ATOM     12  C   UNL     1      33.852 -20.426 -20.390  0.00  0.00    +0.004 C 
ATOM     13  C   UNL     1      36.461 -20.946 -19.551  0.00  0.00    +0.037 C 
ATOM     14  C   UNL     1      34.096 -21.431 -19.453  0.00  0.00    +0.037 C 
ATOM     15  C   UNL     1      35.401 -21.691 -19.034  0.00  0.00    +0.134 C 
BRANCH  15  16
ATOM     16  O   UNL     1      35.640 -22.670 -18.120  0.00  0.00    -0.506 OA
ATOM     17  H   UNL     1      35.438 -23.562 -18.324  0.00  0.00    +0.292 HD
ENDBRANCH  15  16
ENDBRANCH   3  10
BRANCH   8  18
ATOM     18  O   UNL     1      33.741 -15.072 -26.753  0.00  0.00    -0.505 OA
ATOM     19  H   UNL     1      34.477 -14.705 -27.202  0.00  0.00    +0.292 HD
ENDBRANCH   8  18
TORSDOF 3
ENDMDL
MODEL 3
REMARK VINA RESULT:      -9.2      0.973      1.583
REMARK  Name = 445920
REMARK  3 active torsions:
REMARK  status: ('A' for Active; 'I' for Inactive)
REMARK    1  A    between atoms: C_3  and  C_10
REMARK    2  A    between atoms: C_8  and  O_18
REMARK    3  A    between atoms: C_15  and  O_16
REMARK                            x       y       z     vdW  Elec       q    Type
REMARK                         _______ _______ _______ _____ _____    ______ ____
ROOT
ATOM      1  S   UNL     1      33.446 -20.128 -21.075  0.00  0.00    -0.087 S 
ATOM      2  C   UNL     1      35.697 -20.647 -19.913  0.00  0.00    +0.007 C 
ATOM      3  C   UNL     1      34.844 -19.359 -21.674  0.00  0.00    +0.029 C 
ATOM      4  C   UNL     1      34.335 -20.962 -19.856  0.00  0.00    +0.032 C 
ATOM      5  C   UNL     1      35.971 -19.717 -20.972  0.00  0.00    +0.007 C 
ATOM      6  C   UNL     1      36.564 -21.254 -18.974  0.00  0.00    +0.004 C 
ATOM      7  C   UNL     1      33.826 -21.858 -18.895  0.00  0.00    +0.043 C 
ATOM      8  C   UNL     1      34.707 -22.440 -17.982  0.00  0.00    +0.134 C 
ATOM      9  C   UNL     1      36.063 -22.143 -18.020  0.00  0.00    +0.037 C 
ENDROOT
BRANCH   3  10
ATOM     10  C   UNL     1      34.721 -18.456 -22.794  0.00  0.00    +0.006 C 
ATOM     11  C   UNL     1      34.527 -18.963 -24.078  0.00  0.00    +0.004 C 
ATOM     12  C   UNL     1      34.797 -17.079 -22.589  0.00  0.00    +0.004 C 
ATOM     13  C   UNL     1      34.407 -18.091 -25.160  0.00  0.00    +0.037 C 
ATOM     14  C   UNL     1      34.678 -16.207 -23.672  0.00  0.00    +0.037 C 
ATOM     15  C   UNL     1      34.483 -16.712 -24.957  0.00  0.00    +0.134 C 
BRANCH  15  16
ATOM     16  O   UNL     1      34.366 -15.862 -26.013  0.00  0.00    -0.506 OA
ATOM     17  H   UNL     1      35.051 -15.253 -26.203  0.00  0.00    +0.292 HD
ENDBRANCH  15  16
ENDBRANCH   3  10
BRANCH   8  18
ATOM     18  O   UNL     1      34.230 -23.309 -17.048  0.00  0.00    -0.505 OA
ATOM     19  H   UNL     1      33.743 -22.989 -16.314  0.00  0.00    +0.292 HD
ENDBRANCH   8  18
TORSDOF 3
ENDMDL
MODEL 4
REMARK VINA RESULT:      -9.0      1.593      7.197
REMARK  Name = 445920
REMARK  3 active torsions:
REMARK  status: ('A' for Active; 'I' for Inactive)
REMARK    1  A    between atoms: C_3  and  C_10
REMARK    2  A    between atoms: C_8  and  O_18
REMARK    3  A    between atoms: C_15  and  O_16
REMARK                            x       y       z     vdW  Elec       q    Type
REMARK                         _______ _______ _______ _____ _____    ______ ____
ROOT
ATOM      1  S   UNL     1      34.207 -17.059 -21.298  0.00  0.00    -0.087 S 
ATOM      2  C   UNL     1      34.388 -17.390 -23.856  0.00  0.00    +0.007 C 
ATOM      3  C   UNL     1      34.599 -18.616 -21.872  0.00  0.00    +0.029 C 
ATOM      4  C   UNL     1      34.118 -16.412 -22.894  0.00  0.00    +0.032 C 
ATOM      5  C   UNL     1      34.664 -18.659 -23.245  0.00  0.00    +0.007 C 
ATOM      6  C   UNL     1      34.355 -17.014 -25.220  0.00  0.00    +0.004 C 
ATOM      7  C   UNL     1      33.819 -15.084 -23.257  0.00  0.00    +0.043 C 
ATOM      8  C   UNL     1      33.794 -14.744 -24.611  0.00  0.00    +0.134 C 
ATOM      9  C   UNL     1      34.059 -15.698 -25.584  0.00  0.00    +0.037 C 
ENDROOT
BRANCH   3  10
ATOM     10  C   UNL     1      34.812 -19.679 -20.919  0.00  0.00    +0.006 C 
ATOM     11  C   UNL     1      36.106 -20.005 -20.517  0.00  0.00    +0.004 C 
ATOM     12  C   UNL     1      33.722 -20.380 -20.402  0.00  0.00    +0.004 C 
ATOM     13  C   UNL     1      36.312 -21.031 -19.596  0.00  0.00    +0.037 C 
ATOM     14  C   UNL     1      33.928 -21.408 -19.481  0.00  0.00    +0.037 C 
ATOM     15  C   UNL     1      35.223 -21.734 -19.078  0.00  0.00    +0.134 C 
BRANCH  15  16
ATOM     16  O   UNL     1      35.425 -22.735 -18.180  0.00  0.00    -0.506 OA
ATOM     17  H   UNL     1      36.293 -22.945 -17.899  0.00  0.00    +0.292 HD
ENDBRANCH  15  16
ENDBRANCH   3  10
BRANCH   8  18
ATOM     18  O   UNL     1      33.507 -13.464 -24.978  0.00  0.00    -0.505 OA
ATOM     19  H   UNL     1      32.659 -13.104 -24.804  0.00  0.00    +0.292 HD
ENDBRANCH   8  18
TORSDOF 3
ENDMDL
MODEL 5
REMARK VINA RESULT:      -8.8      1.995      7.422
REMARK  Name = 445920
REMARK  3 active torsions:
REMARK  status: ('A' for Active; 'I' for Inactive)
REMARK    1  A    between atoms: C_3  and  C_10
REMARK    2  A    between atoms: C_8  and  O_18
REMARK    3  A    between atoms: C_15  and  O_16
REMARK                            x       y       z     vdW  Elec       q    Type
REMARK                         _______ _______ _______ _____ _____    ______ ____
ROOT
ATOM      1  S   UNL     1      34.548 -18.056 -23.936  0.00  0.00    -0.087 S 
ATOM      2  C   UNL     1      34.046 -15.670 -23.075  0.00  0.00    +0.007 C 
ATOM      3  C   UNL     1      34.637 -17.783 -22.256  0.00  0.00    +0.029 C 
ATOM      4  C   UNL     1      34.118 -16.417 -24.256  0.00  0.00    +0.032 C 
ATOM      5  C   UNL     1      34.350 -16.478 -21.929  0.00  0.00    +0.007 C 
ATOM      6  C   UNL     1      33.702 -14.300 -23.170  0.00  0.00    +0.004 C 
ATOM      7  C   UNL     1      33.859 -15.835 -25.513  0.00  0.00    +0.043 C 
ATOM      8  C   UNL     1      33.522 -14.481 -25.573  0.00  0.00    +0.134 C 
ATOM      9  C   UNL     1      33.444 -13.720 -24.415  0.00  0.00    +0.037 C 
ENDROOT
BRANCH   3  10
ATOM     10  C   UNL     1      34.987 -18.881 -21.387  0.00  0.00    +0.006 C 
ATOM     11  C   UNL     1      33.995 -19.745 -20.924  0.00  0.00    +0.004 C 
ATOM     12  C   UNL     1      36.315 -19.076 -21.011  0.00  0.00    +0.004 C 
ATOM     13  C   UNL     1      34.333 -20.806 -20.085  0.00  0.00    +0.037 C 
ATOM     14  C   UNL     1      36.653 -20.138 -20.171  0.00  0.00    +0.037 C 
ATOM     15  C   UNL     1      35.661 -21.003 -19.707  0.00  0.00    +0.134 C 
BRANCH  15  16
ATOM     16  O   UNL     1      35.990 -22.039 -18.888  0.00  0.00    -0.506 OA
ATOM     17  H   UNL     1      35.361 -22.372 -18.280  0.00  0.00    +0.292 HD
ENDBRANCH  15  16
ENDBRANCH   3  10
BRANCH   8  18
ATOM     18  O   UNL     1      33.267 -13.905 -26.781  0.00  0.00    -0.505 OA
ATOM     19  H   UNL     1      32.497 -13.384 -26.899  0.00  0.00    +0.292 HD
ENDBRANCH   8  18
TORSDOF 3
ENDMDL
MODEL 6
REMARK VINA RESULT:      -8.7      1.939      2.659
REMARK  Name = 445920
REMARK  3 active torsions:
REMARK  status: ('A' for Active; 'I' for Inactive)
REMARK    1  A    between atoms: C_3  and  C_10
REMARK    2  A    between atoms: C_8  and  O_18
REMARK    3  A    between atoms: C_15  and  O_16
REMARK                            x       y       z     vdW  Elec       q    Type
REMARK                         _______ _______ _______ _____ _____    ______ ____
ROOT
ATOM      1  S   UNL     1      33.083 -18.896 -20.992  0.00  0.00    -0.087 S 
ATOM      2  C   UNL     1      35.323 -20.052 -20.416  0.00  0.00    +0.007 C 
ATOM      3  C   UNL     1      34.524 -18.072 -21.378  0.00  0.00    +0.029 C 
ATOM      4  C   UNL     1      33.939 -20.241 -20.337  0.00  0.00    +0.032 C 
ATOM      5  C   UNL     1      35.641 -18.790 -21.021  0.00  0.00    +0.007 C 
ATOM      6  C   UNL     1      36.167 -21.072 -19.917  0.00  0.00    +0.004 C 
ATOM      7  C   UNL     1      33.386 -21.410 -19.778  0.00  0.00    +0.043 C 
ATOM      8  C   UNL     1      34.246 -22.399 -19.295  0.00  0.00    +0.134 C 
ATOM      9  C   UNL     1      35.623 -22.234 -19.363  0.00  0.00    +0.037 C 
ENDROOT
BRANCH   3  10
ATOM     10  C   UNL     1      34.442 -16.773 -22.004  0.00  0.00    +0.006 C 
ATOM     11  C   UNL     1      34.519 -16.664 -23.392  0.00  0.00    +0.004 C 
ATOM     12  C   UNL     1      34.285 -15.631 -21.220  0.00  0.00    +0.004 C 
ATOM     13  C   UNL     1      34.438 -15.410 -23.997  0.00  0.00    +0.037 C 
ATOM     14  C   UNL     1      34.205 -14.376 -21.826  0.00  0.00    +0.037 C 
ATOM     15  C   UNL     1      34.282 -14.266 -23.214  0.00  0.00    +0.134 C 
BRANCH  15  16
ATOM     16  O   UNL     1      34.203 -13.043 -23.805  0.00  0.00    -0.506 OA
ATOM     17  H   UNL     1      34.460 -12.276 -23.333  0.00  0.00    +0.292 HD
ENDBRANCH  15  16
ENDBRANCH   3  10
BRANCH   8  18
ATOM     18  O   UNL     1      33.726 -23.536 -18.753  0.00  0.00    -0.505 OA
ATOM     19  H   UNL     1      33.219 -24.119 -19.284  0.00  0.00    +0.292 HD
ENDBRANCH   8  18
TORSDOF 3
ENDMDL
MODEL 7
REMARK VINA RESULT:      -8.6      3.149      7.504
REMARK  Name = 445920
REMARK  3 active torsions:
REMARK  status: ('A' for Active; 'I' for Inactive)
REMARK    1  A    between atoms: C_3  and  C_10
REMARK    2  A    between atoms: C_8  and  O_18
REMARK    3  A    between atoms: C_15  and  O_16
REMARK                            x       y       z     vdW  Elec       q    Type
REMARK                         _______ _______ _______ _____ _____    ______ ____
ROOT
ATOM      1  S   UNL     1      34.878 -16.067 -22.982  0.00  0.00    -0.087 S 
ATOM      2  C   UNL     1      33.097 -14.668 -21.733  0.00  0.00    +0.007 C 
ATOM      3  C   UNL     1      34.151 -16.756 -21.603  0.00  0.00    +0.029 C 
ATOM      4  C   UNL     1      33.955 -14.617 -22.836  0.00  0.00    +0.032 C 
ATOM      5  C   UNL     1      33.226 -15.914 -21.032  0.00  0.00    +0.007 C 
ATOM      6  C   UNL     1      32.270 -13.549 -21.477  0.00  0.00    +0.004 C 
ATOM      7  C   UNL     1      34.006 -13.489 -23.679  0.00  0.00    +0.043 C 
ATOM      8  C   UNL     1      33.176 -12.401 -23.399  0.00  0.00    +0.134 C 
ATOM      9  C   UNL     1      32.316 -12.429 -22.310  0.00  0.00    +0.037 C 
ENDROOT
BRANCH   3  10
ATOM     10  C   UNL     1      34.553 -18.079 -21.188  0.00  0.00    +0.006 C 
ATOM     11  C   UNL     1      33.586 -19.049 -20.923  0.00  0.00    +0.004 C 
ATOM     12  C   UNL     1      35.906 -18.386 -21.052  0.00  0.00    +0.004 C 
ATOM     13  C   UNL     1      33.974 -20.327 -20.523  0.00  0.00    +0.037 C 
ATOM     14  C   UNL     1      36.294 -19.665 -20.652  0.00  0.00    +0.037 C 
ATOM     15  C   UNL     1      35.328 -20.636 -20.387  0.00  0.00    +0.134 C 
BRANCH  15  16
ATOM     16  O   UNL     1      35.706 -21.883 -19.997  0.00  0.00    -0.506 OA
ATOM     17  H   UNL     1      35.400 -22.634 -20.466  0.00  0.00    +0.292 HD
ENDBRANCH  15  16
ENDBRANCH   3  10
BRANCH   8  18
ATOM     18  O   UNL     1      33.213 -11.304 -24.206  0.00  0.00    -0.505 OA
ATOM     19  H   UNL     1      32.470 -10.735 -24.257  0.00  0.00    +0.292 HD
ENDBRANCH   8  18
TORSDOF 3
ENDMDL
MODEL 8
REMARK VINA RESULT:      -8.4      6.414     10.475
REMARK  Name = 445920
REMARK  3 active torsions:
REMARK  status: ('A' for Active; 'I' for Inactive)
REMARK    1  A    between atoms: C_3  and  C_10
REMARK    2  A    between atoms: C_8  and  O_18
REMARK    3  A    between atoms: C_15  and  O_16
REMARK                            x       y       z     vdW  Elec       q    Type
REMARK                         _______ _______ _______ _____ _____    ______ ____
ROOT
ATOM      1  S   UNL     1      32.438 -11.530 -22.860  0.00  0.00    -0.087 S 
ATOM      2  C   UNL     1      33.980  -9.694 -23.827  0.00  0.00    +0.007 C 
ATOM      3  C   UNL     1      33.585 -11.993 -24.032  0.00  0.00    +0.029 C 
ATOM      4  C   UNL     1      32.939  -9.881 -22.912  0.00  0.00    +0.032 C 
ATOM      5  C   UNL     1      34.340 -10.928 -24.465  0.00  0.00    +0.007 C 
ATOM      6  C   UNL     1      34.503  -8.388 -23.986  0.00  0.00    +0.004 C 
ATOM      7  C   UNL     1      32.414  -8.809 -22.163  0.00  0.00    +0.043 C 
ATOM      8  C   UNL     1      32.953  -7.533 -22.343  0.00  0.00    +0.134 C 
ATOM      9  C   UNL     1      33.987  -7.323 -23.245  0.00  0.00    +0.037 C 
ENDROOT
BRANCH   3  10
ATOM     10  C   UNL     1      33.653 -13.377 -24.438  0.00  0.00    +0.006 C 
ATOM     11  C   UNL     1      33.173 -13.760 -25.690  0.00  0.00    +0.004 C 
ATOM     12  C   UNL     1      34.198 -14.329 -23.577  0.00  0.00    +0.004 C 
ATOM     13  C   UNL     1      33.240 -15.097 -26.082  0.00  0.00    +0.037 C 
ATOM     14  C   UNL     1      34.263 -15.667 -23.969  0.00  0.00    +0.037 C 
ATOM     15  C   UNL     1      33.784 -16.051 -25.221  0.00  0.00    +0.134 C 
BRANCH  15  16
ATOM     16  O   UNL     1      33.848 -17.355 -25.604  0.00  0.00    -0.506 OA
ATOM     17  H   UNL     1      34.308 -17.591 -26.385  0.00  0.00    +0.292 HD
ENDBRANCH  15  16
ENDBRANCH   3  10
BRANCH   8  18
ATOM     18  O   UNL     1      32.457  -6.488 -21.624  0.00  0.00    -0.505 OA
ATOM     19  H   UNL     1      31.646  -6.090 -21.872  0.00  0.00    +0.292 HD
ENDBRANCH   8  18
TORSDOF 3
ENDMDL
MODEL 9
REMARK VINA RESULT:      -8.3      4.190      6.604
REMARK  Name = 445920
REMARK  3 active torsions:
REMARK  status: ('A' for Active; 'I' for Inactive)
REMARK    1  A    between atoms: C_3  and  C_10
REMARK    2  A    between atoms: C_8  and  O_18
REMARK    3  A    between atoms: C_15  and  O_16
REMARK                            x       y       z     vdW  Elec       q    Type
REMARK                         _______ _______ _______ _____ _____    ______ ____
ROOT
ATOM      1  S   UNL     1      34.437 -23.154 -15.226  0.00  0.00    -0.087 S 
ATOM      2  C   UNL     1      36.744 -23.674 -14.180  0.00  0.00    +0.007 C 
ATOM      3  C   UNL     1      35.825 -22.799 -16.149  0.00  0.00    +0.029 C 
ATOM      4  C   UNL     1      35.374 -23.750 -13.907  0.00  0.00    +0.032 C 
ATOM      5  C   UNL     1      36.984 -23.121 -15.483  0.00  0.00    +0.007 C 
ATOM      6  C   UNL     1      37.649 -24.127 -13.192  0.00  0.00    +0.004 C 
ATOM      7  C   UNL     1      34.894 -24.261 -12.685  0.00  0.00    +0.043 C 
ATOM      8  C   UNL     1      35.813 -24.700 -11.730  0.00  0.00    +0.134 C 
ATOM      9  C   UNL     1      37.177 -24.635 -11.979  0.00  0.00    +0.037 C 
ENDROOT
BRANCH   3  10
ATOM     10  C   UNL     1      35.663 -22.228 -17.465  0.00  0.00    +0.006 C 
ATOM     11  C   UNL     1      34.446 -22.353 -18.134  0.00  0.00    +0.004 C 
ATOM     12  C   UNL     1      36.724 -21.551 -18.066  0.00  0.00    +0.004 C 
ATOM     13  C   UNL     1      34.289 -21.800 -19.404  0.00  0.00    +0.037 C 
ATOM     14  C   UNL     1      36.567 -20.998 -19.337  0.00  0.00    +0.037 C 
ATOM     15  C   UNL     1      35.350 -21.124 -20.007  0.00  0.00    +0.134 C 
BRANCH  15  16
ATOM     16  O   UNL     1      35.196 -20.584 -21.247  0.00  0.00    -0.506 OA
ATOM     17  H   UNL     1      35.406 -19.684 -21.395  0.00  0.00    +0.292 HD
ENDBRANCH  15  16
ENDBRANCH   3  10
BRANCH   8  18
ATOM     18  O   UNL     1      35.363 -25.199 -10.545  0.00  0.00    -0.505 OA
ATOM     19  H   UNL     1      35.928 -25.213  -9.797  0.00  0.00    +0.292 HD
ENDBRANCH   8  18
TORSDOF 3
ENDMDL
