MODEL 1
REMARK VINA RESULT:     -10.6      0.000      0.000
REMARK  Name = 5280378
REMARK  3 active torsions:
REMARK  status: ('A' for Active; 'I' for Inactive)
REMARK    1  A    between atoms: C_3  and  C_12
REMARK    2  A    between atoms: C_10  and  O_20
REMARK    3  A    between atoms: C_17  and  O_18
REMARK                            x       y       z     vdW  Elec       q    Type
REMARK                         _______ _______ _______ _____ _____    ______ ____
ROOT
ATOM      1  O   UNL     1      36.751 -20.104 -19.983  0.00  0.00    -0.450 OA
ATOM      2  O   UNL     1      32.919 -20.058 -21.384  0.00  0.00    -0.286 OA
ATOM      3  C   UNL     1      35.148 -19.247 -21.594  0.00  0.00    +0.077 C 
ATOM      4  C   UNL     1      34.474 -20.933 -19.848  0.00  0.00    +0.074 C 
ATOM      5  C   UNL     1      34.075 -20.080 -20.983  0.00  0.00    +0.202 C 
ATOM      6  C   UNL     1      35.796 -20.900 -19.405  0.00  0.00    +0.151 C 
ATOM      7  C   UNL     1      36.373 -19.330 -21.053  0.00  0.00    +0.183 C 
ATOM      8  C   UNL     1      33.542 -21.763 -19.219  0.00  0.00    +0.009 C 
ATOM      9  C   UNL     1      36.194 -21.695 -18.330  0.00  0.00    +0.074 C 
ATOM     10  C   UNL     1      35.265 -22.525 -17.701  0.00  0.00    +0.137 C 
ATOM     11  C   UNL     1      33.942 -22.559 -18.145  0.00  0.00    +0.037 C 
ENDROOT
BRANCH   3  12
ATOM     12  C   UNL     1      34.895 -18.381 -22.758  0.00  0.00    +0.006 C 
ATOM     13  C   UNL     1      34.848 -16.994 -22.603  0.00  0.00    +0.003 C 
ATOM     14  C   UNL     1      34.702 -18.944 -24.021  0.00  0.00    +0.003 C 
ATOM     15  C   UNL     1      34.609 -16.175 -23.706  0.00  0.00    +0.037 C 
ATOM     16  C   UNL     1      34.462 -18.125 -25.124  0.00  0.00    +0.037 C 
ATOM     17  C   UNL     1      34.416 -16.740 -24.966  0.00  0.00    +0.139 C 
BRANCH  17  18
ATOM     18  O   UNL     1      34.182 -15.940 -26.042  0.00  0.00    -0.471 OA
ATOM     19  C   UNL     1      33.110 -15.005 -25.937  0.00  0.00    +0.252 C 
ENDBRANCH  17  18
ENDBRANCH   3  12
BRANCH  10  20
ATOM     20  O   UNL     1      35.650 -23.304 -16.653  0.00  0.00    -0.505 OA
ATOM     21  H   UNL     1      35.004 -23.713 -16.112  0.00  0.00    +0.292 HD
ENDBRANCH  10  20
TORSDOF 3
ENDMDL
MODEL 2
REMARK VINA RESULT:      -9.9      1.697      7.556
REMARK  Name = 5280378
REMARK  3 active torsions:
REMARK  status: ('A' for Active; 'I' for Inactive)
REMARK    1  A    between atoms: C_3  and  C_12
REMARK    2  A    between atoms: C_10  and  O_20
REMARK    3  A    between atoms: C_17  and  O_18
REMARK                            x       y       z     vdW  Elec       q    Type
REMARK                         _______ _______ _______ _____ _____    ______ ____
ROOT
ATOM      1  O   UNL     1      34.250 -17.517 -24.619  0.00  0.00    -0.450 OA
ATOM      2  O   UNL     1      34.656 -16.318 -20.740  0.00  0.00    -0.286 OA
ATOM      3  C   UNL     1      34.735 -18.104 -22.312  0.00  0.00    +0.077 C 
ATOM      4  C   UNL     1      34.233 -15.728 -22.979  0.00  0.00    +0.074 C 
ATOM      5  C   UNL     1      34.555 -16.683 -21.903  0.00  0.00    +0.202 C 
ATOM      6  C   UNL     1      34.095 -16.196 -24.286  0.00  0.00    +0.151 C 
ATOM      7  C   UNL     1      34.572 -18.395 -23.612  0.00  0.00    +0.183 C 
ATOM      8  C   UNL     1      34.062 -14.369 -22.698  0.00  0.00    +0.009 C 
ATOM      9  C   UNL     1      33.786 -15.310 -25.318  0.00  0.00    +0.074 C 
ATOM     10  C   UNL     1      33.616 -13.953 -25.040  0.00  0.00    +0.137 C 
ATOM     11  C   UNL     1      33.754 -13.484 -23.732  0.00  0.00    +0.037 C 
ENDROOT
BRANCH   3  12
ATOM     12  C   UNL     1      35.098 -19.153 -21.345  0.00  0.00    +0.006 C 
ATOM     13  C   UNL     1      36.431 -19.332 -20.971  0.00  0.00    +0.003 C 
ATOM     14  C   UNL     1      34.109 -19.974 -20.799  0.00  0.00    +0.003 C 
ATOM     15  C   UNL     1      36.773 -20.326 -20.056  0.00  0.00    +0.037 C 
ATOM     16  C   UNL     1      34.451 -20.968 -19.883  0.00  0.00    +0.037 C 
ATOM     17  C   UNL     1      35.785 -21.144 -19.511  0.00  0.00    +0.139 C 
BRANCH  17  18
ATOM     18  O   UNL     1      36.119 -22.115 -18.617  0.00  0.00    -0.471 OA
ATOM     19  C   UNL     1      36.845 -21.711 -17.458  0.00  0.00    +0.252 C 
ENDBRANCH  17  18
ENDBRANCH   3  12
BRANCH  10  20
ATOM     20  O   UNL     1      33.315 -13.086 -26.044  0.00  0.00    -0.505 OA
ATOM     21  H   UNL     1      32.590 -12.499 -25.955  0.00  0.00    +0.292 HD
ENDBRANCH  10  20
TORSDOF 3
ENDMDL
MODEL 3
REMARK VINA RESULT:      -9.9      0.723      1.867
REMARK  Name = 5280378
REMARK  3 active torsions:
REMARK  status: ('A' for Active; 'I' for Inactive)
REMARK    1  A    between atoms: C_3  and  C_12
REMARK    2  A    between atoms: C_10  and  O_20
REMARK    3  A    between atoms: C_17  and  O_18
REMARK                            x       y       z     vdW  Elec       q    Type
REMARK                         _______ _______ _______ _____ _____    ______ ____
ROOT
ATOM      1  O   UNL     1      33.056 -21.095 -20.152  0.00  0.00    -0.450 OA
ATOM      2  O   UNL     1      36.720 -19.511 -21.002  0.00  0.00    -0.286 OA
ATOM      3  C   UNL     1      34.402 -19.623 -21.537  0.00  0.00    +0.077 C 
ATOM      4  C   UNL     1      35.417 -20.904 -19.621  0.00  0.00    +0.074 C 
ATOM      5  C   UNL     1      35.613 -19.966 -20.742  0.00  0.00    +0.202 C 
ATOM      6  C   UNL     1      34.144 -21.423 -19.384  0.00  0.00    +0.151 C 
ATOM      7  C   UNL     1      33.247 -20.204 -21.180  0.00  0.00    +0.183 C 
ATOM      8  C   UNL     1      36.490 -21.275 -18.806  0.00  0.00    +0.009 C 
ATOM      9  C   UNL     1      33.936 -22.315 -18.332  0.00  0.00    +0.074 C 
ATOM     10  C   UNL     1      35.006 -22.685 -17.516  0.00  0.00    +0.137 C 
ATOM     11  C   UNL     1      36.280 -22.167 -17.753  0.00  0.00    +0.037 C 
ENDROOT
BRANCH   3  12
ATOM     12  C   UNL     1      34.450 -18.669 -22.658  0.00  0.00    +0.006 C 
ATOM     13  C   UNL     1      34.450 -17.295 -22.410  0.00  0.00    +0.003 C 
ATOM     14  C   UNL     1      34.498 -19.136 -23.973  0.00  0.00    +0.003 C 
ATOM     15  C   UNL     1      34.495 -16.392 -23.472  0.00  0.00    +0.037 C 
ATOM     16  C   UNL     1      34.543 -18.233 -25.035  0.00  0.00    +0.037 C 
ATOM     17  C   UNL     1      34.543 -16.861 -24.784  0.00  0.00    +0.139 C 
BRANCH  17  18
ATOM     18  O   UNL     1      34.586 -15.980 -25.821  0.00  0.00    -0.471 OA
ATOM     19  C   UNL     1      33.411 -15.212 -26.072  0.00  0.00    +0.252 C 
ENDBRANCH  17  18
ENDBRANCH   3  12
BRANCH  10  20
ATOM     20  O   UNL     1      34.807 -23.555 -16.488  0.00  0.00    -0.505 OA
ATOM     21  H   UNL     1      33.953 -23.652 -16.115  0.00  0.00    +0.292 HD
ENDBRANCH  10  20
TORSDOF 3
ENDMDL
MODEL 4
REMARK VINA RESULT:      -9.7      1.785      7.620
REMARK  Name = 5280378
REMARK  3 active torsions:
REMARK  status: ('A' for Active; 'I' for Inactive)
REMARK    1  A    between atoms: C_3  and  C_12
REMARK    2  A    between atoms: C_10  and  O_20
REMARK    3  A    between atoms: C_17  and  O_18
REMARK                            x       y       z     vdW  Elec       q    Type
REMARK                         _______ _______ _______ _____ _____    ______ ____
ROOT
ATOM      1  O   UNL     1      34.411 -14.973 -22.061  0.00  0.00    -0.450 OA
ATOM      2  O   UNL     1      34.478 -18.456 -24.187  0.00  0.00    -0.286 OA
ATOM      3  C   UNL     1      34.724 -17.382 -22.077  0.00  0.00    +0.077 C 
ATOM      4  C   UNL     1      34.124 -16.128 -24.177  0.00  0.00    +0.074 C 
ATOM      5  C   UNL     1      34.441 -17.419 -23.538  0.00  0.00    +0.202 C 
ATOM      6  C   UNL     1      34.127 -14.968 -23.403  0.00  0.00    +0.151 C 
ATOM      7  C   UNL     1      34.684 -16.184 -21.473  0.00  0.00    +0.183 C 
ATOM      8  C   UNL     1      33.828 -16.062 -25.541  0.00  0.00    +0.009 C 
ATOM      9  C   UNL     1      33.834 -13.736 -23.988  0.00  0.00    +0.074 C 
ATOM     10  C   UNL     1      33.537 -13.668 -25.349  0.00  0.00    +0.137 C 
ATOM     11  C   UNL     1      33.534 -14.829 -26.124  0.00  0.00    +0.037 C 
ENDROOT
BRANCH   3  12
ATOM     12  C   UNL     1      35.015 -18.603 -21.308  0.00  0.00    +0.006 C 
ATOM     13  C   UNL     1      36.334 -18.939 -20.998  0.00  0.00    +0.003 C 
ATOM     14  C   UNL     1      33.972 -19.430 -20.885  0.00  0.00    +0.003 C 
ATOM     15  C   UNL     1      36.609 -20.096 -20.270  0.00  0.00    +0.037 C 
ATOM     16  C   UNL     1      34.246 -20.587 -20.157  0.00  0.00    +0.037 C 
ATOM     17  C   UNL     1      35.566 -20.920 -19.848  0.00  0.00    +0.139 C 
BRANCH  17  18
ATOM     18  O   UNL     1      35.834 -22.050 -19.138  0.00  0.00    -0.471 OA
ATOM     19  C   UNL     1      36.596 -21.901 -17.942  0.00  0.00    +0.252 C 
ENDBRANCH  17  18
ENDBRANCH   3  12
BRANCH  10  20
ATOM     20  O   UNL     1      33.250 -12.468 -25.924  0.00  0.00    -0.505 OA
ATOM     21  H   UNL     1      33.269 -11.686 -25.408  0.00  0.00    +0.292 HD
ENDBRANCH  10  20
TORSDOF 3
ENDMDL
MODEL 5
REMARK VINA RESULT:      -9.5      5.325     10.145
REMARK  Name = 5280378
REMARK  3 active torsions:
REMARK  status: ('A' for Active; 'I' for Inactive)
REMARK    1  A    between atoms: C_3  and  C_12
REMARK    2  A    between atoms: C_10  and  O_20
REMARK    3  A    between atoms: C_17  and  O_18
REMARK                            x       y       z     vdW  Elec       q    Type
REMARK                         _______ _______ _______ _____ _____    ______ ____
ROOT
ATOM      1  O   UNL     1      31.956 -10.891 -22.074  0.00  0.00    -0.450 OA
ATOM      2  O   UNL     1      34.783 -11.112 -25.009  0.00  0.00    -0.286 OA
ATOM      3  C   UNL     1      33.219 -12.262 -23.631  0.00  0.00    +0.077 C 
ATOM      4  C   UNL     1      33.531  -9.765 -23.539  0.00  0.00    +0.074 C 
ATOM      5  C   UNL     1      33.920 -11.053 -24.143  0.00  0.00    +0.202 C 
ATOM      6  C   UNL     1      32.567  -9.751 -22.531  0.00  0.00    +0.151 C 
ATOM      7  C   UNL     1      32.311 -12.082 -22.659  0.00  0.00    +0.183 C 
ATOM      8  C   UNL     1      34.121  -8.571 -23.964  0.00  0.00    +0.009 C 
ATOM      9  C   UNL     1      32.186  -8.544 -21.943  0.00  0.00    +0.074 C 
ATOM     10  C   UNL     1      32.774  -7.351 -22.367  0.00  0.00    +0.137 C 
ATOM     11  C   UNL     1      33.739  -7.365 -23.376  0.00  0.00    +0.037 C 
ENDROOT
BRANCH   3  12
ATOM     12  C   UNL     1      33.483 -13.605 -24.175  0.00  0.00    +0.006 C 
ATOM     13  C   UNL     1      32.985 -13.965 -25.428  0.00  0.00    +0.003 C 
ATOM     14  C   UNL     1      34.233 -14.524 -23.437  0.00  0.00    +0.003 C 
ATOM     15  C   UNL     1      33.236 -15.236 -25.942  0.00  0.00    +0.037 C 
ATOM     16  C   UNL     1      34.484 -15.795 -23.951  0.00  0.00    +0.037 C 
ATOM     17  C   UNL     1      33.985 -16.152 -25.204  0.00  0.00    +0.139 C 
BRANCH  17  18
ATOM     18  O   UNL     1      34.230 -17.394 -25.705  0.00  0.00    -0.471 OA
ATOM     19  C   UNL     1      34.519 -18.428 -24.766  0.00  0.00    +0.252 C 
ENDBRANCH  17  18
ENDBRANCH   3  12
BRANCH  10  20
ATOM     20  O   UNL     1      32.405  -6.172 -21.796  0.00  0.00    -0.505 OA
ATOM     21  H   UNL     1      32.307  -6.112 -20.866  0.00  0.00    +0.292 HD
ENDBRANCH  10  20
TORSDOF 3
ENDMDL
MODEL 6
REMARK VINA RESULT:      -9.3      2.570      7.546
REMARK  Name = 5280378
REMARK  3 active torsions:
REMARK  status: ('A' for Active; 'I' for Inactive)
REMARK    1  A    between atoms: C_3  and  C_12
REMARK    2  A    between atoms: C_10  and  O_20
REMARK    3  A    between atoms: C_17  and  O_18
REMARK                            x       y       z     vdW  Elec       q    Type
REMARK                         _______ _______ _______ _____ _____    ______ ____
ROOT
ATOM      1  O   UNL     1      35.108 -15.462 -23.542  0.00  0.00    -0.450 OA
ATOM      2  O   UNL     1      32.552 -16.408 -20.504  0.00  0.00    -0.286 OA
ATOM      3  C   UNL     1      34.382 -17.072 -21.875  0.00  0.00    +0.077 C 
ATOM      4  C   UNL     1      33.277 -14.819 -22.083  0.00  0.00    +0.074 C 
ATOM      5  C   UNL     1      33.335 -16.126 -21.401  0.00  0.00    +0.202 C 
ATOM      6  C   UNL     1      34.169 -14.555 -23.122  0.00  0.00    +0.151 C 
ATOM      7  C   UNL     1      35.167 -16.667 -22.885  0.00  0.00    +0.183 C 
ATOM      8  C   UNL     1      32.339 -13.857 -21.699  0.00  0.00    +0.009 C 
ATOM      9  C   UNL     1      34.129 -13.327 -23.784  0.00  0.00    +0.074 C 
ATOM     10  C   UNL     1      33.194 -12.364 -23.401  0.00  0.00    +0.137 C 
ATOM     11  C   UNL     1      32.301 -12.629 -22.361  0.00  0.00    +0.037 C 
ENDROOT
BRANCH   3  12
ATOM     12  C   UNL     1      34.576 -18.394 -21.255  0.00  0.00    +0.006 C 
ATOM     13  C   UNL     1      35.862 -18.846 -20.953  0.00  0.00    +0.003 C 
ATOM     14  C   UNL     1      33.472 -19.200 -20.966  0.00  0.00    +0.003 C 
ATOM     15  C   UNL     1      36.044 -20.098 -20.366  0.00  0.00    +0.037 C 
ATOM     16  C   UNL     1      33.654 -20.452 -20.379  0.00  0.00    +0.037 C 
ATOM     17  C   UNL     1      34.941 -20.901 -20.078  0.00  0.00    +0.139 C 
BRANCH  17  18
ATOM     18  O   UNL     1      35.118 -22.123 -19.506  0.00  0.00    -0.471 OA
ATOM     19  C   UNL     1      34.032 -22.648 -18.744  0.00  0.00    +0.252 C 
ENDBRANCH  17  18
ENDBRANCH   3  12
BRANCH  10  20
ATOM     20  O   UNL     1      33.152 -11.165 -24.044  0.00  0.00    -0.505 OA
ATOM     21  H   UNL     1      33.366 -10.378 -23.582  0.00  0.00    +0.292 HD
ENDBRANCH  10  20
TORSDOF 3
ENDMDL
MODEL 7
REMARK VINA RESULT:      -9.2      4.106      7.175
REMARK  Name = 5280378
REMARK  3 active torsions:
REMARK  status: ('A' for Active; 'I' for Inactive)
REMARK    1  A    between atoms: C_3  and  C_12
REMARK    2  A    between atoms: C_10  and  O_20
REMARK    3  A    between atoms: C_17  and  O_18
REMARK                            x       y       z     vdW  Elec       q    Type
REMARK                         _______ _______ _______ _____ _____    ______ ____
ROOT
ATOM      1  O   UNL     1      33.440 -15.560 -25.599  0.00  0.00    -0.450 OA
ATOM      2  O   UNL     1      34.638 -14.325 -21.899  0.00  0.00    -0.286 OA
ATOM      3  C   UNL     1      33.574 -13.776 -23.957  0.00  0.00    +0.077 C 
ATOM      4  C   UNL     1      34.471 -16.077 -23.463  0.00  0.00    +0.074 C 
ATOM      5  C   UNL     1      34.258 -14.692 -23.003  0.00  0.00    +0.202 C 
ATOM      6  C   UNL     1      34.050 -16.440 -24.743  0.00  0.00    +0.151 C 
ATOM      7  C   UNL     1      33.228 -14.279 -25.152  0.00  0.00    +0.183 C 
ATOM      8  C   UNL     1      35.089 -17.016 -22.633  0.00  0.00    +0.009 C 
ATOM      9  C   UNL     1      34.245 -17.744 -25.199  0.00  0.00    +0.074 C 
ATOM     10  C   UNL     1      34.861 -18.683 -24.372  0.00  0.00    +0.137 C 
ATOM     11  C   UNL     1      35.282 -18.320 -23.092  0.00  0.00    +0.037 C 
ENDROOT
BRANCH   3  12
ATOM     12  C   UNL     1      33.264 -12.379 -23.610  0.00  0.00    +0.006 C 
ATOM     13  C   UNL     1      33.970 -11.334 -24.209  0.00  0.00    +0.003 C 
ATOM     14  C   UNL     1      32.261 -12.094 -22.680  0.00  0.00    +0.003 C 
ATOM     15  C   UNL     1      33.676 -10.011 -23.879  0.00  0.00    +0.037 C 
ATOM     16  C   UNL     1      31.967 -10.772 -22.351  0.00  0.00    +0.037 C 
ATOM     17  C   UNL     1      32.674  -9.729 -22.951  0.00  0.00    +0.139 C 
BRANCH  17  18
ATOM     18  O   UNL     1      32.387  -8.439 -22.628  0.00  0.00    -0.471 OA
ATOM     19  C   UNL     1      32.423  -8.091 -21.246  0.00  0.00    +0.252 C 
ENDBRANCH  17  18
ENDBRANCH   3  12
BRANCH  10  20
ATOM     20  O   UNL     1      35.053 -19.957 -24.814  0.00  0.00    -0.505 OA
ATOM     21  H   UNL     1      35.904 -20.345 -24.768  0.00  0.00    +0.292 HD
ENDBRANCH  10  20
TORSDOF 3
ENDMDL
MODEL 8
REMARK VINA RESULT:      -9.1      2.250      4.699
REMARK  Name = 5280378
REMARK  3 active torsions:
REMARK  status: ('A' for Active; 'I' for Inactive)
REMARK    1  A    between atoms: C_3  and  C_12
REMARK    2  A    between atoms: C_10  and  O_20
REMARK    3  A    between atoms: C_17  and  O_18
REMARK                            x       y       z     vdW  Elec       q    Type
REMARK                         _______ _______ _______ _____ _____    ______ ____
ROOT
ATOM      1  O   UNL     1      33.937 -23.812 -16.952  0.00  0.00    -0.450 OA
ATOM      2  O   UNL     1      36.948 -21.147 -17.649  0.00  0.00    -0.286 OA
ATOM      3  C   UNL     1      34.846 -22.033 -18.333  0.00  0.00    +0.077 C 
ATOM      4  C   UNL     1      36.054 -22.837 -16.275  0.00  0.00    +0.074 C 
ATOM      5  C   UNL     1      36.031 -21.930 -17.437  0.00  0.00    +0.202 C 
ATOM      6  C   UNL     1      35.002 -23.735 -16.093  0.00  0.00    +0.151 C 
ATOM      7  C   UNL     1      33.916 -22.947 -18.020  0.00  0.00    +0.183 C 
ATOM      8  C   UNL     1      37.116 -22.804 -15.366  0.00  0.00    +0.009 C 
ATOM      9  C   UNL     1      35.006 -24.605 -15.002  0.00  0.00    +0.074 C 
ATOM     10  C   UNL     1      36.064 -24.573 -14.094  0.00  0.00    +0.137 C 
ATOM     11  C   UNL     1      37.117 -23.675 -14.276  0.00  0.00    +0.037 C 
ENDROOT
BRANCH   3  12
ATOM     12  C   UNL     1      34.678 -21.159 -19.506  0.00  0.00    +0.006 C 
ATOM     13  C   UNL     1      35.793 -20.740 -20.235  0.00  0.00    +0.003 C 
ATOM     14  C   UNL     1      33.401 -20.746 -19.894  0.00  0.00    +0.003 C 
ATOM     15  C   UNL     1      35.632 -19.913 -21.345  0.00  0.00    +0.037 C 
ATOM     16  C   UNL     1      33.241 -19.919 -21.005  0.00  0.00    +0.037 C 
ATOM     17  C   UNL     1      34.357 -19.502 -21.732  0.00  0.00    +0.139 C 
BRANCH  17  18
ATOM     18  O   UNL     1      34.199 -18.694 -22.815  0.00  0.00    -0.471 OA
ATOM     19  C   UNL     1      34.905 -19.052 -24.002  0.00  0.00    +0.252 C 
ENDBRANCH  17  18
ENDBRANCH   3  12
BRANCH  10  20
ATOM     20  O   UNL     1      36.071 -25.421 -13.028  0.00  0.00    -0.505 OA
ATOM     21  H   UNL     1      36.224 -25.088 -12.166  0.00  0.00    +0.292 HD
ENDBRANCH  10  20
TORSDOF 3
ENDMDL
MODEL 9
REMARK VINA RESULT:      -8.9      5.302      9.861
REMARK  Name = 5280378
REMARK  3 active torsions:
REMARK  status: ('A' for Active; 'I' for Inactive)
REMARK    1  A    between atoms: C_3  and  C_12
REMARK    2  A    between atoms: C_10  and  O_20
REMARK    3  A    between atoms: C_17  and  O_18
REMARK                            x       y       z     vdW  Elec       q    Type
REMARK                         _______ _______ _______ _____ _____    ______ ____
ROOT
ATOM      1  O   UNL     1      34.171  -9.837 -24.405  0.00  0.00    -0.450 OA
ATOM      2  O   UNL     1      31.882 -12.505 -22.332  0.00  0.00    -0.286 OA
ATOM      3  C   UNL     1      33.476 -12.139 -24.063  0.00  0.00    +0.077 C 
ATOM      4  C   UNL     1      32.584 -10.277 -22.621  0.00  0.00    +0.074 C 
ATOM      5  C   UNL     1      32.587 -11.715 -22.947  0.00  0.00    +0.202 C 
ATOM      6  C   UNL     1      33.379  -9.409 -23.371  0.00  0.00    +0.151 C 
ATOM      7  C   UNL     1      34.181 -11.182 -24.685  0.00  0.00    +0.183 C 
ATOM      8  C   UNL     1      31.795  -9.783 -21.579  0.00  0.00    +0.009 C 
ATOM      9  C   UNL     1      33.389  -8.044 -23.083  0.00  0.00    +0.074 C 
ATOM     10  C   UNL     1      32.602  -7.549 -22.042  0.00  0.00    +0.137 C 
ATOM     11  C   UNL     1      31.807  -8.417 -21.291  0.00  0.00    +0.037 C 
ENDROOT
BRANCH   3  12
ATOM     12  C   UNL     1      33.604 -13.550 -24.465  0.00  0.00    +0.006 C 
ATOM     13  C   UNL     1      34.244 -14.463 -23.625  0.00  0.00    +0.003 C 
ATOM     14  C   UNL     1      33.084 -13.979 -25.688  0.00  0.00    +0.003 C 
ATOM     15  C   UNL     1      34.363 -15.799 -24.006  0.00  0.00    +0.037 C 
ATOM     16  C   UNL     1      33.204 -15.315 -26.069  0.00  0.00    +0.037 C 
ATOM     17  C   UNL     1      33.844 -16.226 -25.228  0.00  0.00    +0.139 C 
BRANCH  17  18
ATOM     18  O   UNL     1      33.961 -17.529 -25.601  0.00  0.00    -0.471 OA
ATOM     19  C   UNL     1      34.595 -18.415 -24.680  0.00  0.00    +0.252 C 
ENDBRANCH  17  18
ENDBRANCH   3  12
BRANCH  10  20
ATOM     20  O   UNL     1      32.610  -6.218 -21.757  0.00  0.00    -0.505 OA
ATOM     21  H   UNL     1      33.421  -5.779 -21.595  0.00  0.00    +0.292 HD
ENDBRANCH  10  20
TORSDOF 3
ENDMDL
