MODEL 1
REMARK VINA RESULT:     -11.4      0.000      0.000
REMARK  Name = 24901696
REMARK  4 active torsions:
REMARK  status: ('A' for Active; 'I' for Inactive)
REMARK    1  A    between atoms: C_5  and  C_16
REMARK    2  A    between atoms: C_7  and  C_10
REMARK    3  A    between atoms: C_16  and  C_17
REMARK    4  A    between atoms: C_22  and  O_23
REMARK                            x       y       z     vdW  Elec       q    Type
REMARK                         _______ _______ _______ _____ _____    ______ ____
ROOT
ATOM      1  N   UNL     1      34.280 -16.344 -23.785  0.00  0.00    -0.195 N 
ATOM      2  N   UNL     1      33.906 -15.224 -23.119  0.00  0.00    -0.163 NA
ATOM      3  N   UNL     1      35.103 -18.331 -24.211  0.00  0.00    -0.131 NA
ATOM      4  N   UNL     1      34.625 -17.801 -25.393  0.00  0.00    -0.127 NA
ATOM      5  C   UNL     1      34.887 -17.448 -23.262  0.00  0.00    +0.168 A 
ATOM      6  C   UNL     1      34.133 -16.609 -25.127  0.00  0.00    +0.186 A 
ATOM      7  C   UNL     1      33.352 -14.321 -23.877  0.00  0.00    +0.101 C 
ATOM      8  C   UNL     1      33.516 -15.621 -25.920  0.00  0.00    +0.042 C 
ATOM      9  C   UNL     1      33.112 -14.479 -25.348  0.00  0.00    +0.024 C 
ENDROOT
BRANCH   7  10
ATOM     10  C   UNL     1      32.903 -13.043 -23.264  0.00  0.00    +0.019 C 
ATOM     11  C   UNL     1      33.311 -11.826 -23.809  0.00  0.00    +0.002 C 
ATOM     12  C   UNL     1      32.071 -13.062 -22.144  0.00  0.00    +0.002 C 
ATOM     13  C   UNL     1      32.890 -10.627 -23.234  0.00  0.00    +0.000 C 
ATOM     14  C   UNL     1      31.650 -11.864 -21.569  0.00  0.00    +0.000 C 
ATOM     15  C   UNL     1      32.058 -10.646 -22.114  0.00  0.00    +0.000 C 
ENDBRANCH   7  10
BRANCH   5  16
ATOM     16  C   UNL     1      35.229 -17.578 -21.834  0.00  0.00    +0.094 C 
BRANCH  16  17
ATOM     17  C   UNL     1      34.668 -18.822 -21.159  0.00  0.00    -0.014 C 
ATOM     18  C   UNL     1      35.534 -19.799 -20.668  0.00  0.00    -0.001 C 
ATOM     19  C   UNL     1      33.289 -18.986 -21.034  0.00  0.00    -0.001 C 
ATOM     20  C   UNL     1      35.020 -20.940 -20.051  0.00  0.00    +0.036 C 
ATOM     21  C   UNL     1      32.775 -20.126 -20.417  0.00  0.00    +0.036 C 
ATOM     22  C   UNL     1      33.640 -21.103 -19.926  0.00  0.00    +0.134 C 
BRANCH  22  23
ATOM     23  O   UNL     1      33.140 -22.217 -19.324  0.00  0.00    -0.506 OA
ATOM     24  H   UNL     1      32.790 -22.914 -19.843  0.00  0.00    +0.292 HD
ENDBRANCH  22  23
ENDBRANCH  16  17
ENDBRANCH   5  16
TORSDOF 4
ENDMDL
MODEL 2
REMARK VINA RESULT:     -11.4      0.021      1.425
REMARK  Name = 24901696
REMARK  4 active torsions:
REMARK  status: ('A' for Active; 'I' for Inactive)
REMARK    1  A    between atoms: C_5  and  C_16
REMARK    2  A    between atoms: C_7  and  C_10
REMARK    3  A    between atoms: C_16  and  C_17
REMARK    4  A    between atoms: C_22  and  O_23
REMARK                            x       y       z     vdW  Elec       q    Type
REMARK                         _______ _______ _______ _____ _____    ______ ____
ROOT
ATOM      1  N   UNL     1      34.288 -16.362 -23.779  0.00  0.00    -0.195 N 
ATOM      2  N   UNL     1      33.911 -15.243 -23.111  0.00  0.00    -0.163 NA
ATOM      3  N   UNL     1      35.114 -18.347 -24.206  0.00  0.00    -0.131 NA
ATOM      4  N   UNL     1      34.635 -17.817 -25.387  0.00  0.00    -0.127 NA
ATOM      5  C   UNL     1      34.897 -17.465 -23.256  0.00  0.00    +0.168 A 
ATOM      6  C   UNL     1      34.141 -16.627 -25.121  0.00  0.00    +0.186 A 
ATOM      7  C   UNL     1      33.356 -14.341 -23.868  0.00  0.00    +0.101 C 
ATOM      8  C   UNL     1      33.520 -15.639 -25.912  0.00  0.00    +0.042 C 
ATOM      9  C   UNL     1      33.115 -14.498 -25.339  0.00  0.00    +0.024 C 
ENDROOT
BRANCH   7  10
ATOM     10  C   UNL     1      32.904 -13.064 -23.254  0.00  0.00    +0.019 C 
ATOM     11  C   UNL     1      32.081 -13.084 -22.129  0.00  0.00    +0.002 C 
ATOM     12  C   UNL     1      33.306 -11.846 -23.804  0.00  0.00    +0.002 C 
ATOM     13  C   UNL     1      31.658 -11.886 -21.553  0.00  0.00    +0.000 C 
ATOM     14  C   UNL     1      32.883 -10.649 -23.228  0.00  0.00    +0.000 C 
ATOM     15  C   UNL     1      32.059 -10.668 -22.102  0.00  0.00    +0.000 C 
ENDBRANCH   7  10
BRANCH   5  16
ATOM     16  C   UNL     1      35.240 -17.595 -21.829  0.00  0.00    +0.094 C 
BRANCH  16  17
ATOM     17  C   UNL     1      34.676 -18.837 -21.152  0.00  0.00    -0.014 C 
ATOM     18  C   UNL     1      33.296 -18.999 -21.031  0.00  0.00    -0.001 C 
ATOM     19  C   UNL     1      35.540 -19.812 -20.653  0.00  0.00    -0.001 C 
ATOM     20  C   UNL     1      32.780 -20.137 -20.410  0.00  0.00    +0.036 C 
ATOM     21  C   UNL     1      35.024 -20.949 -20.033  0.00  0.00    +0.036 C 
ATOM     22  C   UNL     1      33.644 -21.111 -19.911  0.00  0.00    +0.134 C 
BRANCH  22  23
ATOM     23  O   UNL     1      33.139 -22.221 -19.306  0.00  0.00    -0.506 OA
ATOM     24  H   UNL     1      33.105 -23.034 -19.770  0.00  0.00    +0.292 HD
ENDBRANCH  22  23
ENDBRANCH  16  17
ENDBRANCH   5  16
TORSDOF 4
ENDMDL
MODEL 3
REMARK VINA RESULT:     -10.6      6.326     11.509
REMARK  Name = 24901696
REMARK  4 active torsions:
REMARK  status: ('A' for Active; 'I' for Inactive)
REMARK    1  A    between atoms: C_5  and  C_16
REMARK    2  A    between atoms: C_7  and  C_10
REMARK    3  A    between atoms: C_16  and  C_17
REMARK    4  A    between atoms: C_22  and  O_23
REMARK                            x       y       z     vdW  Elec       q    Type
REMARK                         _______ _______ _______ _____ _____    ______ ____
ROOT
ATOM      1  N   UNL     1      33.635 -23.419 -16.462  0.00  0.00    -0.195 N 
ATOM      2  N   UNL     1      34.871 -23.840 -16.095  0.00  0.00    -0.163 NA
ATOM      3  N   UNL     1      31.971 -22.677 -17.680  0.00  0.00    -0.131 NA
ATOM      4  N   UNL     1      31.514 -22.855 -16.390  0.00  0.00    -0.127 NA
ATOM      5  C   UNL     1      33.239 -23.020 -17.705  0.00  0.00    +0.168 A 
ATOM      6  C   UNL     1      32.519 -23.300 -15.667  0.00  0.00    +0.186 A 
ATOM      7  C   UNL     1      34.967 -24.153 -14.834  0.00  0.00    +0.101 C 
ATOM      8  C   UNL     1      32.648 -23.662 -14.311  0.00  0.00    +0.042 C 
ATOM      9  C   UNL     1      33.833 -24.090 -13.855  0.00  0.00    +0.024 C 
ENDROOT
BRANCH   7  10
ATOM     10  C   UNL     1      36.274 -24.624 -14.306  0.00  0.00    +0.019 C 
ATOM     11  C   UNL     1      36.350 -25.192 -13.035  0.00  0.00    +0.002 C 
ATOM     12  C   UNL     1      37.426 -24.498 -15.084  0.00  0.00    +0.002 C 
ATOM     13  C   UNL     1      37.577 -25.634 -12.540  0.00  0.00    +0.000 C 
ATOM     14  C   UNL     1      38.652 -24.940 -14.589  0.00  0.00    +0.000 C 
ATOM     15  C   UNL     1      38.728 -25.509 -13.317  0.00  0.00    +0.000 C 
ENDBRANCH   7  10
BRANCH   5  16
ATOM     16  C   UNL     1      34.143 -22.996 -18.869  0.00  0.00    +0.094 C 
BRANCH  16  17
ATOM     17  C   UNL     1      34.185 -21.667 -19.611  0.00  0.00    -0.014 C 
ATOM     18  C   UNL     1      32.997 -21.032 -19.972  0.00  0.00    -0.001 C 
ATOM     19  C   UNL     1      35.411 -21.086 -19.931  0.00  0.00    -0.001 C 
ATOM     20  C   UNL     1      33.036 -19.814 -20.653  0.00  0.00    +0.036 C 
ATOM     21  C   UNL     1      35.451 -19.869 -20.612  0.00  0.00    +0.036 C 
ATOM     22  C   UNL     1      34.263 -19.234 -20.972  0.00  0.00    +0.134 C 
BRANCH  22  23
ATOM     23  O   UNL     1      34.300 -18.046 -21.636  0.00  0.00    -0.506 OA
ATOM     24  H   UNL     1      33.624 -17.829 -22.247  0.00  0.00    +0.292 HD
ENDBRANCH  22  23
ENDBRANCH  16  17
ENDBRANCH   5  16
TORSDOF 4
ENDMDL
MODEL 4
REMARK VINA RESULT:     -10.5      5.733     10.223
REMARK  Name = 24901696
REMARK  4 active torsions:
REMARK  status: ('A' for Active; 'I' for Inactive)
REMARK    1  A    between atoms: C_5  and  C_16
REMARK    2  A    between atoms: C_7  and  C_10
REMARK    3  A    between atoms: C_16  and  C_17
REMARK    4  A    between atoms: C_22  and  O_23
REMARK                            x       y       z     vdW  Elec       q    Type
REMARK                         _______ _______ _______ _____ _____    ______ ____
ROOT
ATOM      1  N   UNL     1      34.435 -22.770 -17.207  0.00  0.00    -0.195 N 
ATOM      2  N   UNL     1      33.105 -23.031 -17.153  0.00  0.00    -0.163 NA
ATOM      3  N   UNL     1      36.416 -22.227 -17.971  0.00  0.00    -0.131 NA
ATOM      4  N   UNL     1      36.539 -22.518 -16.627  0.00  0.00    -0.127 NA
ATOM      5  C   UNL     1      35.153 -22.382 -18.299  0.00  0.00    +0.168 A 
ATOM      6  C   UNL     1      35.345 -22.843 -16.177  0.00  0.00    +0.186 A 
ATOM      7  C   UNL     1      32.687 -23.393 -15.974  0.00  0.00    +0.101 C 
ATOM      8  C   UNL     1      34.861 -23.220 -14.909  0.00  0.00    +0.042 C 
ATOM      9  C   UNL     1      33.559 -23.499 -14.759  0.00  0.00    +0.024 C 
ENDROOT
BRANCH   7  10
ATOM     10  C   UNL     1      31.247 -23.714 -15.787  0.00  0.00    +0.019 C 
ATOM     11  C   UNL     1      30.869 -24.780 -14.971  0.00  0.00    +0.002 C 
ATOM     12  C   UNL     1      30.273 -22.946 -16.428  0.00  0.00    +0.002 C 
ATOM     13  C   UNL     1      29.518 -25.080 -14.797  0.00  0.00    +0.000 C 
ATOM     14  C   UNL     1      28.923 -23.246 -16.253  0.00  0.00    +0.000 C 
ATOM     15  C   UNL     1      28.545 -24.313 -15.436  0.00  0.00    +0.000 C 
ENDBRANCH   7  10
BRANCH   5  16
ATOM     16  C   UNL     1      34.550 -22.180 -19.629  0.00  0.00    +0.094 C 
BRANCH  16  17
ATOM     17  C   UNL     1      34.760 -20.791 -20.216  0.00  0.00    -0.014 C 
ATOM     18  C   UNL     1      33.660 -20.009 -20.568  0.00  0.00    -0.001 C 
ATOM     19  C   UNL     1      36.053 -20.302 -20.402  0.00  0.00    -0.001 C 
ATOM     20  C   UNL     1      33.854 -18.736 -21.106  0.00  0.00    +0.036 C 
ATOM     21  C   UNL     1      36.246 -19.030 -20.940  0.00  0.00    +0.036 C 
ATOM     22  C   UNL     1      35.147 -18.247 -21.292  0.00  0.00    +0.134 C 
BRANCH  22  23
ATOM     23  O   UNL     1      35.335 -17.006 -21.818  0.00  0.00    -0.506 OA
ATOM     24  H   UNL     1      36.137 -16.548 -21.664  0.00  0.00    +0.292 HD
ENDBRANCH  22  23
ENDBRANCH  16  17
ENDBRANCH   5  16
TORSDOF 4
ENDMDL
MODEL 5
REMARK VINA RESULT:     -10.4      5.819     10.816
REMARK  Name = 24901696
REMARK  4 active torsions:
REMARK  status: ('A' for Active; 'I' for Inactive)
REMARK    1  A    between atoms: C_5  and  C_16
REMARK    2  A    between atoms: C_7  and  C_10
REMARK    3  A    between atoms: C_16  and  C_17
REMARK    4  A    between atoms: C_22  and  O_23
REMARK                            x       y       z     vdW  Elec       q    Type
REMARK                         _______ _______ _______ _____ _____    ______ ____
ROOT
ATOM      1  N   UNL     1      34.019 -22.916 -17.232  0.00  0.00    -0.195 N 
ATOM      2  N   UNL     1      35.144 -23.207 -16.535  0.00  0.00    -0.163 NA
ATOM      3  N   UNL     1      32.683 -22.295 -18.856  0.00  0.00    -0.131 NA
ATOM      4  N   UNL     1      31.907 -22.627 -17.763  0.00  0.00    -0.127 NA
ATOM      5  C   UNL     1      33.940 -22.475 -18.521  0.00  0.00    +0.168 A 
ATOM      6  C   UNL     1      32.717 -22.998 -16.794  0.00  0.00    +0.186 A 
ATOM      7  C   UNL     1      34.920 -23.601 -15.314  0.00  0.00    +0.101 C 
ATOM      8  C   UNL     1      32.504 -23.444 -15.474  0.00  0.00    +0.042 C 
ATOM      9  C   UNL     1      33.558 -23.755 -14.708  0.00  0.00    +0.024 C 
ENDROOT
BRANCH   7  10
ATOM     10  C   UNL     1      36.076 -23.945 -14.444  0.00  0.00    +0.019 C 
ATOM     11  C   UNL     1      37.213 -24.536 -14.995  0.00  0.00    +0.002 C 
ATOM     12  C   UNL     1      36.024 -23.673 -13.076  0.00  0.00    +0.002 C 
ATOM     13  C   UNL     1      38.297 -24.858 -14.178  0.00  0.00    +0.000 C 
ATOM     14  C   UNL     1      37.107 -23.996 -12.260  0.00  0.00    +0.000 C 
ATOM     15  C   UNL     1      38.245 -24.588 -12.811  0.00  0.00    +0.000 C 
ENDBRANCH   7  10
BRANCH   5  16
ATOM     16  C   UNL     1      35.126 -22.250 -19.368  0.00  0.00    +0.094 C 
BRANCH  16  17
ATOM     17  C   UNL     1      35.166 -20.890 -20.052  0.00  0.00    -0.014 C 
ATOM     18  C   UNL     1      36.390 -20.263 -20.284  0.00  0.00    -0.001 C 
ATOM     19  C   UNL     1      33.979 -20.273 -20.445  0.00  0.00    -0.001 C 
ATOM     20  C   UNL     1      36.426 -19.016 -20.910  0.00  0.00    +0.036 C 
ATOM     21  C   UNL     1      34.015 -19.027 -21.071  0.00  0.00    +0.036 C 
ATOM     22  C   UNL     1      35.238 -18.399 -21.303  0.00  0.00    +0.134 C 
BRANCH  22  23
ATOM     23  O   UNL     1      35.275 -17.183 -21.914  0.00  0.00    -0.506 OA
ATOM     24  H   UNL     1      36.097 -16.791 -22.131  0.00  0.00    +0.292 HD
ENDBRANCH  22  23
ENDBRANCH  16  17
ENDBRANCH   5  16
TORSDOF 4
ENDMDL
MODEL 6
REMARK VINA RESULT:     -10.4      4.919      7.499
REMARK  Name = 24901696
REMARK  4 active torsions:
REMARK  status: ('A' for Active; 'I' for Inactive)
REMARK    1  A    between atoms: C_5  and  C_16
REMARK    2  A    between atoms: C_7  and  C_10
REMARK    3  A    between atoms: C_16  and  C_17
REMARK    4  A    between atoms: C_22  and  O_23
REMARK                            x       y       z     vdW  Elec       q    Type
REMARK                         _______ _______ _______ _____ _____    ______ ____
ROOT
ATOM      1  N   UNL     1      31.934  -9.627 -21.092  0.00  0.00    -0.195 N 
ATOM      2  N   UNL     1      32.168  -9.025 -22.284  0.00  0.00    -0.163 NA
ATOM      3  N   UNL     1      31.372 -11.129 -19.598  0.00  0.00    -0.131 NA
ATOM      4  N   UNL     1      31.759  -9.984 -18.932  0.00  0.00    -0.127 NA
ATOM      5  C   UNL     1      31.484 -10.898 -20.887  0.00  0.00    +0.168 A 
ATOM      6  C   UNL     1      32.094  -9.088 -19.836  0.00  0.00    +0.186 A 
ATOM      7  C   UNL     1      32.588  -7.797 -22.181  0.00  0.00    +0.101 C 
ATOM      8  C   UNL     1      32.566  -7.763 -19.754  0.00  0.00    +0.042 C 
ATOM      9  C   UNL     1      32.825  -7.087 -20.882  0.00  0.00    +0.024 C 
ENDROOT
BRANCH   7  10
ATOM     10  C   UNL     1      32.875  -7.027 -23.420  0.00  0.00    +0.019 C 
ATOM     11  C   UNL     1      31.902  -6.185 -23.960  0.00  0.00    +0.002 C 
ATOM     12  C   UNL     1      34.119  -7.145 -24.042  0.00  0.00    +0.002 C 
ATOM     13  C   UNL     1      32.172  -5.463 -25.122  0.00  0.00    +0.000 C 
ATOM     14  C   UNL     1      34.388  -6.423 -25.203  0.00  0.00    +0.000 C 
ATOM     15  C   UNL     1      33.415  -5.580 -25.744  0.00  0.00    +0.000 C 
ENDBRANCH   7  10
BRANCH   5  16
ATOM     16  C   UNL     1      31.183 -11.833 -21.986  0.00  0.00    +0.094 C 
BRANCH  16  17
ATOM     17  C   UNL     1      32.278 -12.852 -22.269  0.00  0.00    -0.014 C 
ATOM     18  C   UNL     1      33.000 -12.788 -23.460  0.00  0.00    -0.001 C 
ATOM     19  C   UNL     1      32.559 -13.850 -21.336  0.00  0.00    -0.001 C 
ATOM     20  C   UNL     1      34.004 -13.722 -23.719  0.00  0.00    +0.036 C 
ATOM     21  C   UNL     1      33.562 -14.784 -21.594  0.00  0.00    +0.036 C 
ATOM     22  C   UNL     1      34.283 -14.720 -22.786  0.00  0.00    +0.134 C 
BRANCH  22  23
ATOM     23  O   UNL     1      35.262 -15.632 -23.039  0.00  0.00    -0.506 OA
ATOM     24  H   UNL     1      35.072 -16.396 -23.546  0.00  0.00    +0.292 HD
ENDBRANCH  22  23
ENDBRANCH  16  17
ENDBRANCH   5  16
TORSDOF 4
ENDMDL
MODEL 7
REMARK VINA RESULT:     -10.3      3.114      7.561
REMARK  Name = 24901696
REMARK  4 active torsions:
REMARK  status: ('A' for Active; 'I' for Inactive)
REMARK    1  A    between atoms: C_5  and  C_16
REMARK    2  A    between atoms: C_7  and  C_10
REMARK    3  A    between atoms: C_16  and  C_17
REMARK    4  A    between atoms: C_22  and  O_23
REMARK                            x       y       z     vdW  Elec       q    Type
REMARK                         _______ _______ _______ _____ _____    ______ ____
ROOT
ATOM      1  N   UNL     1      34.105 -16.533 -23.633  0.00  0.00    -0.195 N 
ATOM      2  N   UNL     1      34.278 -17.277 -22.512  0.00  0.00    -0.163 NA
ATOM      3  N   UNL     1      33.689 -14.835 -24.955  0.00  0.00    -0.131 NA
ATOM      4  N   UNL     1      33.976 -15.933 -25.742  0.00  0.00    -0.127 NA
ATOM      5  C   UNL     1      33.773 -15.212 -23.699  0.00  0.00    +0.168 A 
ATOM      6  C   UNL     1      34.224 -16.946 -24.940  0.00  0.00    +0.186 A 
ATOM      7  C   UNL     1      34.586 -18.520 -22.748  0.00  0.00    +0.101 C 
ATOM      8  C   UNL     1      34.576 -18.292 -25.164  0.00  0.00    +0.042 C 
ATOM      9  C   UNL     1      34.767 -19.105 -24.116  0.00  0.00    +0.024 C 
ENDROOT
BRANCH   7  10
ATOM     10  C   UNL     1      34.796 -19.441 -21.600  0.00  0.00    +0.019 C 
ATOM     11  C   UNL     1      33.701 -20.037 -20.974  0.00  0.00    +0.002 C 
ATOM     12  C   UNL     1      36.089 -19.709 -21.149  0.00  0.00    +0.002 C 
ATOM     13  C   UNL     1      33.899 -20.901 -19.897  0.00  0.00    +0.000 C 
ATOM     14  C   UNL     1      36.286 -20.573 -20.072  0.00  0.00    +0.000 C 
ATOM     15  C   UNL     1      35.191 -21.170 -19.446  0.00  0.00    +0.000 C 
ENDBRANCH   7  10
BRANCH   5  16
ATOM     16  C   UNL     1      33.550 -14.377 -22.505  0.00  0.00    +0.094 C 
BRANCH  16  17
ATOM     17  C   UNL     1      33.153 -12.938 -22.804  0.00  0.00    -0.014 C 
ATOM     18  C   UNL     1      33.855 -12.204 -23.760  0.00  0.00    -0.001 C 
ATOM     19  C   UNL     1      32.087 -12.353 -22.120  0.00  0.00    -0.001 C 
ATOM     20  C   UNL     1      33.491 -10.885 -24.033  0.00  0.00    +0.036 C 
ATOM     21  C   UNL     1      31.723 -11.034 -22.393  0.00  0.00    +0.036 C 
ATOM     22  C   UNL     1      32.425 -10.301 -23.349  0.00  0.00    +0.134 C 
BRANCH  22  23
ATOM     23  O   UNL     1      32.070  -9.014 -23.615  0.00  0.00    -0.506 OA
ATOM     24  H   UNL     1      32.334  -8.612 -24.419  0.00  0.00    +0.292 HD
ENDBRANCH  22  23
ENDBRANCH  16  17
ENDBRANCH   5  16
TORSDOF 4
ENDMDL
MODEL 8
REMARK VINA RESULT:     -10.2      3.201      7.655
REMARK  Name = 24901696
REMARK  4 active torsions:
REMARK  status: ('A' for Active; 'I' for Inactive)
REMARK    1  A    between atoms: C_5  and  C_16
REMARK    2  A    between atoms: C_7  and  C_10
REMARK    3  A    between atoms: C_16  and  C_17
REMARK    4  A    between atoms: C_22  and  O_23
REMARK                            x       y       z     vdW  Elec       q    Type
REMARK                         _______ _______ _______ _____ _____    ______ ____
ROOT
ATOM      1  N   UNL     1      34.143 -16.623 -22.137  0.00  0.00    -0.195 N 
ATOM      2  N   UNL     1      33.895 -17.618 -21.250  0.00  0.00    -0.163 NA
ATOM      3  N   UNL     1      34.095 -14.674 -23.141  0.00  0.00    -0.131 NA
ATOM      4  N   UNL     1      34.934 -15.506 -23.855  0.00  0.00    -0.127 NA
ATOM      5  C   UNL     1      33.633 -15.358 -22.118  0.00  0.00    +0.168 A 
ATOM      6  C   UNL     1      34.957 -16.672 -23.246  0.00  0.00    +0.186 A 
ATOM      7  C   UNL     1      34.515 -18.731 -21.520  0.00  0.00    +0.101 C 
ATOM      8  C   UNL     1      35.628 -17.884 -23.503  0.00  0.00    +0.042 C 
ATOM      9  C   UNL     1      35.444 -18.925 -22.680  0.00  0.00    +0.024 C 
ENDROOT
BRANCH   7  10
ATOM     10  C   UNL     1      34.319 -19.900 -20.623  0.00  0.00    +0.019 C 
ATOM     11  C   UNL     1      33.034 -20.268 -20.227  0.00  0.00    +0.002 C 
ATOM     12  C   UNL     1      35.423 -20.631 -20.180  0.00  0.00    +0.002 C 
ATOM     13  C   UNL     1      32.851 -21.366 -19.385  0.00  0.00    +0.000 C 
ATOM     14  C   UNL     1      35.239 -21.728 -19.339  0.00  0.00    +0.000 C 
ATOM     15  C   UNL     1      33.953 -22.096 -18.942  0.00  0.00    +0.000 C 
ENDBRANCH   7  10
BRANCH   5  16
ATOM     16  C   UNL     1      32.703 -14.881 -21.078  0.00  0.00    +0.094 C 
BRANCH  16  17
ATOM     17  C   UNL     1      32.334 -13.408 -21.187  0.00  0.00    -0.014 C 
ATOM     18  C   UNL     1      32.037 -12.676 -20.037  0.00  0.00    -0.001 C 
ATOM     19  C   UNL     1      32.291 -12.790 -22.437  0.00  0.00    -0.001 C 
ATOM     20  C   UNL     1      31.698 -11.326 -20.137  0.00  0.00    +0.036 C 
ATOM     21  C   UNL     1      31.952 -11.441 -22.538  0.00  0.00    +0.036 C 
ATOM     22  C   UNL     1      31.655 -10.710 -21.388  0.00  0.00    +0.134 C 
BRANCH  22  23
ATOM     23  O   UNL     1      31.324  -9.393 -21.485  0.00  0.00    -0.506 OA
ATOM     24  H   UNL     1      30.506  -9.088 -21.144  0.00  0.00    +0.292 HD
ENDBRANCH  22  23
ENDBRANCH  16  17
ENDBRANCH   5  16
TORSDOF 4
ENDMDL
MODEL 9
REMARK VINA RESULT:     -10.2      4.756      9.388
REMARK  Name = 24901696
REMARK  4 active torsions:
REMARK  status: ('A' for Active; 'I' for Inactive)
REMARK    1  A    between atoms: C_5  and  C_16
REMARK    2  A    between atoms: C_7  and  C_10
REMARK    3  A    between atoms: C_16  and  C_17
REMARK    4  A    between atoms: C_22  and  O_23
REMARK                            x       y       z     vdW  Elec       q    Type
REMARK                         _______ _______ _______ _____ _____    ______ ____
ROOT
ATOM      1  N   UNL     1      33.833 -21.949 -18.570  0.00  0.00    -0.195 N 
ATOM      2  N   UNL     1      32.551 -22.155 -18.182  0.00  0.00    -0.163 NA
ATOM      3  N   UNL     1      35.573 -21.263 -19.713  0.00  0.00    -0.131 NA
ATOM      4  N   UNL     1      36.028 -22.002 -18.639  0.00  0.00    -0.127 NA
ATOM      5  C   UNL     1      34.261 -21.242 -19.655  0.00  0.00    +0.168 A 
ATOM      6  C   UNL     1      34.977 -22.409 -17.959  0.00  0.00    +0.186 A 
ATOM      7  C   UNL     1      32.436 -22.880 -17.106  0.00  0.00    +0.101 C 
ATOM      8  C   UNL     1      34.823 -23.177 -16.787  0.00  0.00    +0.042 C 
ATOM      9  C   UNL     1      33.591 -23.433 -16.328  0.00  0.00    +0.024 C 
ENDROOT
BRANCH   7  10
ATOM     10  C   UNL     1      31.078 -23.182 -16.582  0.00  0.00    +0.019 C 
ATOM     11  C   UNL     1      30.000 -22.365 -16.924  0.00  0.00    +0.002 C 
ATOM     12  C   UNL     1      30.881 -24.286 -15.750  0.00  0.00    +0.002 C 
ATOM     13  C   UNL     1      28.726 -22.649 -16.432  0.00  0.00    +0.000 C 
ATOM     14  C   UNL     1      29.607 -24.569 -15.259  0.00  0.00    +0.000 C 
ATOM     15  C   UNL     1      28.529 -23.751 -15.601  0.00  0.00    +0.000 C 
ENDBRANCH   7  10
BRANCH   5  16
ATOM     16  C   UNL     1      33.341 -20.571 -20.592  0.00  0.00    +0.094 C 
BRANCH  16  17
ATOM     17  C   UNL     1      33.957 -19.412 -21.363  0.00  0.00    -0.014 C 
ATOM     18  C   UNL     1      34.638 -19.653 -22.556  0.00  0.00    -0.001 C 
ATOM     19  C   UNL     1      33.842 -18.111 -20.876  0.00  0.00    -0.001 C 
ATOM     20  C   UNL     1      35.204 -18.591 -23.263  0.00  0.00    +0.036 C 
ATOM     21  C   UNL     1      34.407 -17.049 -21.582  0.00  0.00    +0.036 C 
ATOM     22  C   UNL     1      35.088 -17.289 -22.775  0.00  0.00    +0.134 C 
BRANCH  22  23
ATOM     23  O   UNL     1      35.640 -16.253 -23.464  0.00  0.00    -0.506 OA
ATOM     24  H   UNL     1      35.647 -15.393 -23.093  0.00  0.00    +0.292 HD
ENDBRANCH  22  23
ENDBRANCH  16  17
ENDBRANCH   5  16
TORSDOF 4
ENDMDL
