MODEL 1
REMARK VINA RESULT:      -7.8      0.000      0.000
REMARK  Name = 5666
REMARK  5 active torsions:
REMARK  status: ('A' for Active; 'I' for Inactive)
REMARK    1  A    between atoms: O_1  and  C_2
REMARK    2  A    between atoms: O_1  and  C_11
REMARK    3  A    between atoms: C_3  and  O_8
REMARK    4  A    between atoms: O_8  and  C_9
REMARK    5  A    between atoms: C_11  and  C_14
REMARK                            x       y       z     vdW  Elec       q    Type
REMARK                         _______ _______ _______ _____ _____    ______ ____
ROOT
ATOM      1  O   UNL     1      32.147 -22.712 -17.929  0.00  0.00    -0.470 OA
ENDROOT
BRANCH   1   2
ATOM      2  C   UNL     1      31.800 -22.939 -16.621  0.00  0.00    +0.172 C 
ATOM      3  C   UNL     1      30.476 -22.812 -16.218  0.00  0.00    +0.172 C 
ATOM      4  C   UNL     1      32.789 -23.294 -15.712  0.00  0.00    +0.040 C 
ATOM      5  C   UNL     1      30.136 -23.044 -14.884  0.00  0.00    +0.040 C 
ATOM      6  C   UNL     1      32.450 -23.526 -14.379  0.00  0.00    +0.003 C 
ATOM      7  C   UNL     1      31.124 -23.401 -13.966  0.00  0.00    +0.003 C 
BRANCH   3   8
ATOM      8  O   UNL     1      29.504 -22.464 -17.106  0.00  0.00    -0.472 OA
BRANCH   8   9
ATOM      9  C   UNL     1      28.259 -23.153 -17.007  0.00  0.00    +0.206 C 
ATOM     10  C   UNL     1      27.148 -22.139 -16.827  0.00  0.00    +0.051 C 
ENDBRANCH   8   9
ENDBRANCH   3   8
ENDBRANCH   1   2
BRANCH   1  11
ATOM     11  C   UNL     1      33.530 -22.705 -18.236  0.00  0.00    +0.233 C 
BRANCH  11  14
ATOM     12  O   UNL     1      32.738 -20.892 -19.572  0.00  0.00    -0.357 OA
ATOM     13  N   UNL     1      35.290 -20.454 -20.752  0.00  0.00    +0.387 N 
ATOM     14  C   UNL     1      33.743 -21.912 -19.518  0.00  0.00    +0.138 C 
ATOM     15  C   UNL     1      35.133 -21.271 -19.546  0.00  0.00    -0.048 C 
ATOM     16  C   UNL     1      34.231 -19.447 -20.821  0.00  0.00    -0.049 C 
ATOM     17  C   UNL     1      32.863 -20.113 -20.763  0.00  0.00    +0.119 C 
ATOM     18  H   UNL     1      35.236 -21.056 -21.576  0.00  0.00    -0.084 HD
ATOM     19  H   UNL     1      36.195 -19.987 -20.722  0.00  0.00    -0.084 HD
ENDBRANCH  11  14
ENDBRANCH   1  11
TORSDOF 5
ENDMDL
MODEL 2
REMARK VINA RESULT:      -7.7      3.958      8.238
REMARK  Name = 5666
REMARK  5 active torsions:
REMARK  status: ('A' for Active; 'I' for Inactive)
REMARK    1  A    between atoms: O_1  and  C_2
REMARK    2  A    between atoms: O_1  and  C_11
REMARK    3  A    between atoms: C_3  and  O_8
REMARK    4  A    between atoms: O_8  and  C_9
REMARK    5  A    between atoms: C_11  and  C_14
REMARK                            x       y       z     vdW  Elec       q    Type
REMARK                         _______ _______ _______ _____ _____    ______ ____
ROOT
ATOM      1  O   UNL     1      34.712 -18.327 -21.201  0.00  0.00    -0.470 OA
ENDROOT
BRANCH   1   2
ATOM      2  C   UNL     1      34.716 -17.825 -22.477  0.00  0.00    +0.172 C 
ATOM      3  C   UNL     1      34.773 -16.452 -22.687  0.00  0.00    +0.172 C 
ATOM      4  C   UNL     1      34.661 -18.706 -23.551  0.00  0.00    +0.040 C 
ATOM      5  C   UNL     1      34.774 -15.954 -23.991  0.00  0.00    +0.040 C 
ATOM      6  C   UNL     1      34.663 -18.208 -24.853  0.00  0.00    +0.003 C 
ATOM      7  C   UNL     1      34.720 -16.832 -25.073  0.00  0.00    +0.003 C 
BRANCH   3   8
ATOM      8  O   UNL     1      34.826 -15.584 -21.639  0.00  0.00    -0.472 OA
BRANCH   8   9
ATOM      9  C   UNL     1      33.757 -14.648 -21.517  0.00  0.00    +0.206 C 
ATOM     10  C   UNL     1      32.662 -15.259 -20.668  0.00  0.00    +0.051 C 
ENDBRANCH   8   9
ENDBRANCH   3   8
ENDBRANCH   1   2
BRANCH   1  11
ATOM     11  C   UNL     1      35.704 -19.287 -20.884  0.00  0.00    +0.233 C 
BRANCH  11  14
ATOM     12  O   UNL     1      35.561 -21.021 -19.248  0.00  0.00    -0.357 OA
ATOM     13  N   UNL     1      32.873 -21.650 -19.936  0.00  0.00    +0.387 N 
ATOM     14  C   UNL     1      35.018 -20.592 -20.502  0.00  0.00    +0.138 C 
ATOM     15  C   UNL     1      33.504 -20.402 -20.373  0.00  0.00    -0.048 C 
ATOM     16  C   UNL     1      33.468 -22.103 -18.679  0.00  0.00    -0.049 C 
ATOM     17  C   UNL     1      34.975 -22.256 -18.833  0.00  0.00    +0.119 C 
ATOM     18  H   UNL     1      33.010 -22.366 -20.651  0.00  0.00    -0.084 HD
ATOM     19  H   UNL     1      31.876 -21.487 -19.795  0.00  0.00    -0.084 HD
ENDBRANCH  11  14
ENDBRANCH   1  11
TORSDOF 5
ENDMDL
MODEL 3
REMARK VINA RESULT:      -7.5      4.518      6.323
REMARK  Name = 5666
REMARK  5 active torsions:
REMARK  status: ('A' for Active; 'I' for Inactive)
REMARK    1  A    between atoms: O_1  and  C_2
REMARK    2  A    between atoms: O_1  and  C_11
REMARK    3  A    between atoms: C_3  and  O_8
REMARK    4  A    between atoms: O_8  and  C_9
REMARK    5  A    between atoms: C_11  and  C_14
REMARK                            x       y       z     vdW  Elec       q    Type
REMARK                         _______ _______ _______ _____ _____    ______ ____
ROOT
ATOM      1  O   UNL     1      35.662 -23.539 -16.320  0.00  0.00    -0.470 OA
ENDROOT
BRANCH   1   2
ATOM      2  C   UNL     1      34.310 -23.394 -16.137  0.00  0.00    +0.172 C 
ATOM      3  C   UNL     1      33.467 -23.264 -17.234  0.00  0.00    +0.172 C 
ATOM      4  C   UNL     1      33.800 -23.380 -14.844  0.00  0.00    +0.040 C 
ATOM      5  C   UNL     1      32.093 -23.115 -17.035  0.00  0.00    +0.040 C 
ATOM      6  C   UNL     1      32.428 -23.233 -14.644  0.00  0.00    +0.003 C 
ATOM      7  C   UNL     1      31.575 -23.101 -15.739  0.00  0.00    +0.003 C 
BRANCH   3   8
ATOM      8  O   UNL     1      33.961 -23.277 -18.503  0.00  0.00    -0.472 OA
BRANCH   8   9
ATOM      9  C   UNL     1      34.022 -22.027 -19.188  0.00  0.00    +0.206 C 
ATOM     10  C   UNL     1      35.471 -21.689 -19.467  0.00  0.00    +0.051 C 
ENDBRANCH   8   9
ENDBRANCH   3   8
ENDBRANCH   1   2
BRANCH   1  11
ATOM     11  C   UNL     1      36.492 -23.309 -15.196  0.00  0.00    +0.233 C 
BRANCH  11  14
ATOM     12  O   UNL     1      38.787 -23.965 -15.172  0.00  0.00    -0.357 OA
ATOM     13  N   UNL     1      38.271 -26.243 -13.548  0.00  0.00    +0.387 N 
ATOM     14  C   UNL     1      37.455 -24.478 -15.051  0.00  0.00    +0.138 C 
ATOM     15  C   UNL     1      37.287 -25.168 -13.695  0.00  0.00    -0.048 C 
ATOM     16  C   UNL     1      39.625 -25.715 -13.719  0.00  0.00    -0.049 C 
ATOM     17  C   UNL     1      39.751 -25.013 -15.065  0.00  0.00    +0.119 C 
ATOM     18  H   UNL     1      38.096 -26.959 -14.254  0.00  0.00    -0.084 HD
ATOM     19  H   UNL     1      38.185 -26.647 -12.616  0.00  0.00    -0.084 HD
ENDBRANCH  11  14
ENDBRANCH   1  11
TORSDOF 5
ENDMDL
MODEL 4
REMARK VINA RESULT:      -7.5      4.824      8.490
REMARK  Name = 5666
REMARK  5 active torsions:
REMARK  status: ('A' for Active; 'I' for Inactive)
REMARK    1  A    between atoms: O_1  and  C_2
REMARK    2  A    between atoms: O_1  and  C_11
REMARK    3  A    between atoms: C_3  and  O_8
REMARK    4  A    between atoms: O_8  and  C_9
REMARK    5  A    between atoms: C_11  and  C_14
REMARK                            x       y       z     vdW  Elec       q    Type
REMARK                         _______ _______ _______ _____ _____    ______ ____
ROOT
ATOM      1  O   UNL     1      34.857 -17.713 -21.294  0.00  0.00    -0.470 OA
ENDROOT
BRANCH   1   2
ATOM      2  C   UNL     1      34.455 -16.461 -21.685  0.00  0.00    +0.172 C 
ATOM      3  C   UNL     1      34.723 -16.012 -22.973  0.00  0.00    +0.172 C 
ATOM      4  C   UNL     1      33.782 -15.653 -20.776  0.00  0.00    +0.040 C 
ATOM      5  C   UNL     1      34.311 -14.735 -23.357  0.00  0.00    +0.040 C 
ATOM      6  C   UNL     1      33.369 -14.377 -21.161  0.00  0.00    +0.003 C 
ATOM      7  C   UNL     1      33.634 -13.919 -22.451  0.00  0.00    +0.003 C 
BRANCH   3   8
ATOM      8  O   UNL     1      35.383 -16.800 -23.866  0.00  0.00    -0.472 OA
BRANCH   8   9
ATOM      9  C   UNL     1      34.645 -17.257 -24.997  0.00  0.00    +0.206 C 
ATOM     10  C   UNL     1      34.397 -18.744 -24.856  0.00  0.00    +0.051 C 
ENDBRANCH   8   9
ENDBRANCH   3   8
ENDBRANCH   1   2
BRANCH   1  11
ATOM     11  C   UNL     1      33.852 -18.704 -21.178  0.00  0.00    +0.233 C 
BRANCH  11  14
ATOM     12  O   UNL     1      35.777 -19.748 -20.228  0.00  0.00    -0.357 OA
ATOM     13  N   UNL     1      34.331 -22.087 -19.497  0.00  0.00    +0.387 N 
ATOM     14  C   UNL     1      34.511 -20.033 -20.835  0.00  0.00    +0.138 C 
ATOM     15  C   UNL     1      33.646 -20.847 -19.870  0.00  0.00    -0.048 C 
ATOM     16  C   UNL     1      35.642 -21.785 -18.921  0.00  0.00    -0.049 C 
ATOM     17  C   UNL     1      36.467 -20.954 -19.894  0.00  0.00    +0.119 C 
ATOM     18  H   UNL     1      34.453 -22.667 -20.328  0.00  0.00    -0.084 HD
ATOM     19  H   UNL     1      33.768 -22.583 -18.807  0.00  0.00    -0.084 HD
ENDBRANCH  11  14
ENDBRANCH   1  11
TORSDOF 5
ENDMDL
MODEL 5
REMARK VINA RESULT:      -7.5      4.372      6.666
REMARK  Name = 5666
REMARK  5 active torsions:
REMARK  status: ('A' for Active; 'I' for Inactive)
REMARK    1  A    between atoms: O_1  and  C_2
REMARK    2  A    between atoms: O_1  and  C_11
REMARK    3  A    between atoms: C_3  and  O_8
REMARK    4  A    between atoms: O_8  and  C_9
REMARK    5  A    between atoms: C_11  and  C_14
REMARK                            x       y       z     vdW  Elec       q    Type
REMARK                         _______ _______ _______ _____ _____    ______ ____
ROOT
ATOM      1  O   UNL     1      36.107 -22.833 -15.752  0.00  0.00    -0.470 OA
ENDROOT
BRANCH   1   2
ATOM      2  C   UNL     1      35.683 -22.476 -17.007  0.00  0.00    +0.172 C 
ATOM      3  C   UNL     1      34.404 -22.812 -17.434  0.00  0.00    +0.172 C 
ATOM      4  C   UNL     1      36.549 -21.776 -17.839  0.00  0.00    +0.040 C 
ATOM      5  C   UNL     1      33.985 -22.445 -18.713  0.00  0.00    +0.040 C 
ATOM      6  C   UNL     1      36.130 -21.408 -19.117  0.00  0.00    +0.003 C 
ATOM      7  C   UNL     1      34.848 -21.741 -19.554  0.00  0.00    +0.003 C 
BRANCH   3   8
ATOM      8  O   UNL     1      33.552 -23.498 -16.622  0.00  0.00    -0.472 OA
BRANCH   8   9
ATOM      9  C   UNL     1      32.167 -23.171 -16.710  0.00  0.00    +0.206 C 
ATOM     10  C   UNL     1      31.579 -23.137 -15.316  0.00  0.00    +0.051 C 
ENDBRANCH   8   9
ENDBRANCH   3   8
ENDBRANCH   1   2
BRANCH   1  11
ATOM     11  C   UNL     1      37.495 -23.061 -15.583  0.00  0.00    +0.233 C 
BRANCH  11  14
ATOM     12  O   UNL     1      38.375 -24.213 -13.685  0.00  0.00    -0.357 OA
ATOM     13  N   UNL     1      36.554 -26.380 -13.973  0.00  0.00    +0.387 N 
ATOM     14  C   UNL     1      37.691 -24.421 -14.927  0.00  0.00    +0.138 C 
ATOM     15  C   UNL     1      36.347 -25.108 -14.669  0.00  0.00    -0.048 C 
ATOM     16  C   UNL     1      37.294 -26.161 -12.730  0.00  0.00    -0.049 C 
ATOM     17  C   UNL     1      38.612 -25.453 -13.017  0.00  0.00    +0.119 C 
ATOM     18  H   UNL     1      37.086 -27.011 -14.574  0.00  0.00    -0.084 HD
ATOM     19  H   UNL     1      35.647 -26.791 -13.754  0.00  0.00    -0.084 HD
ENDBRANCH  11  14
ENDBRANCH   1  11
TORSDOF 5
ENDMDL
MODEL 6
REMARK VINA RESULT:      -7.4      3.030      5.813
REMARK  Name = 5666
REMARK  5 active torsions:
REMARK  status: ('A' for Active; 'I' for Inactive)
REMARK    1  A    between atoms: O_1  and  C_2
REMARK    2  A    between atoms: O_1  and  C_11
REMARK    3  A    between atoms: C_3  and  O_8
REMARK    4  A    between atoms: O_8  and  C_9
REMARK    5  A    between atoms: C_11  and  C_14
REMARK                            x       y       z     vdW  Elec       q    Type
REMARK                         _______ _______ _______ _____ _____    ______ ____
ROOT
ATOM      1  O   UNL     1      35.728 -22.419 -18.551  0.00  0.00    -0.470 OA
ENDROOT
BRANCH   1   2
ATOM      2  C   UNL     1      34.991 -21.568 -19.336  0.00  0.00    +0.172 C 
ATOM      3  C   UNL     1      33.610 -21.703 -19.407  0.00  0.00    +0.172 C 
ATOM      4  C   UNL     1      35.647 -20.576 -20.056  0.00  0.00    +0.040 C 
ATOM      5  C   UNL     1      32.873 -20.833 -20.211  0.00  0.00    +0.040 C 
ATOM      6  C   UNL     1      34.910 -19.706 -20.859  0.00  0.00    +0.003 C 
ATOM      7  C   UNL     1      33.524 -19.834 -20.936  0.00  0.00    +0.003 C 
BRANCH   3   8
ATOM      8  O   UNL     1      32.964 -22.674 -18.704  0.00  0.00    -0.472 OA
BRANCH   8   9
ATOM      9  C   UNL     1      32.094 -22.247 -17.658  0.00  0.00    +0.206 C 
ATOM     10  C   UNL     1      32.034 -23.325 -16.596  0.00  0.00    +0.051 C 
ENDBRANCH   8   9
ENDBRANCH   3   8
ENDBRANCH   1   2
BRANCH   1  11
ATOM     11  C   UNL     1      36.605 -21.828 -17.608  0.00  0.00    +0.233 C 
BRANCH  11  14
ATOM     12  O   UNL     1      35.497 -23.601 -16.456  0.00  0.00    -0.357 OA
ATOM     13  N   UNL     1      37.552 -23.811 -14.500  0.00  0.00    +0.387 N 
ATOM     14  C   UNL     1      36.427 -22.527 -16.269  0.00  0.00    +0.138 C 
ATOM     15  C   UNL     1      37.758 -23.080 -15.752  0.00  0.00    -0.048 C 
ATOM     16  C   UNL     1      36.566 -24.874 -14.692  0.00  0.00    -0.049 C 
ATOM     17  C   UNL     1      35.264 -24.296 -15.230  0.00  0.00    +0.119 C 
ATOM     18  H   UNL     1      37.216 -23.165 -13.784  0.00  0.00    -0.084 HD
ATOM     19  H   UNL     1      38.437 -24.224 -14.206  0.00  0.00    -0.084 HD
ENDBRANCH  11  14
ENDBRANCH   1  11
TORSDOF 5
ENDMDL
MODEL 7
REMARK VINA RESULT:      -7.3      3.334      6.759
REMARK  Name = 5666
REMARK  5 active torsions:
REMARK  status: ('A' for Active; 'I' for Inactive)
REMARK    1  A    between atoms: O_1  and  C_2
REMARK    2  A    between atoms: O_1  and  C_11
REMARK    3  A    between atoms: C_3  and  O_8
REMARK    4  A    between atoms: O_8  and  C_9
REMARK    5  A    between atoms: C_11  and  C_14
REMARK                            x       y       z     vdW  Elec       q    Type
REMARK                         _______ _______ _______ _____ _____    ______ ____
ROOT
ATOM      1  O   UNL     1      34.115 -23.201 -18.158  0.00  0.00    -0.470 OA
ENDROOT
BRANCH   1   2
ATOM      2  C   UNL     1      34.338 -22.127 -18.982  0.00  0.00    +0.172 C 
ATOM      3  C   UNL     1      35.615 -21.593 -19.102  0.00  0.00    +0.172 C 
ATOM      4  C   UNL     1      33.272 -21.585 -19.690  0.00  0.00    +0.040 C 
ATOM      5  C   UNL     1      35.829 -20.499 -19.942  0.00  0.00    +0.040 C 
ATOM      6  C   UNL     1      33.485 -20.493 -20.530  0.00  0.00    +0.003 C 
ATOM      7  C   UNL     1      34.764 -19.950 -20.656  0.00  0.00    +0.003 C 
BRANCH   3   8
ATOM      8  O   UNL     1      36.663 -22.120 -18.410  0.00  0.00    -0.472 OA
BRANCH   8   9
ATOM      9  C   UNL     1      37.032 -21.469 -17.196  0.00  0.00    +0.206 C 
ATOM     10  C   UNL     1      37.650 -22.487 -16.260  0.00  0.00    +0.051 C 
ENDBRANCH   8   9
ENDBRANCH   3   8
ENDBRANCH   1   2
BRANCH   1  11
ATOM     11  C   UNL     1      33.030 -23.102 -17.252  0.00  0.00    +0.233 C 
BRANCH  11  14
ATOM     12  O   UNL     1      34.781 -24.180 -16.038  0.00  0.00    -0.357 OA
ATOM     13  N   UNL     1      33.522 -23.723 -13.528  0.00  0.00    +0.387 N 
ATOM     14  C   UNL     1      33.387 -23.856 -15.979  0.00  0.00    +0.138 C 
ATOM     15  C   UNL     1      33.105 -23.007 -14.736  0.00  0.00    -0.048 C 
ATOM     16  C   UNL     1      34.936 -24.089 -13.621  0.00  0.00    -0.049 C 
ATOM     17  C   UNL     1      35.187 -24.909 -14.879  0.00  0.00    +0.119 C 
ATOM     18  H   UNL     1      32.961 -24.569 -13.427  0.00  0.00    -0.084 HD
ATOM     19  H   UNL     1      33.386 -23.117 -12.719  0.00  0.00    -0.084 HD
ENDBRANCH  11  14
ENDBRANCH   1  11
TORSDOF 5
ENDMDL
MODEL 8
REMARK VINA RESULT:      -7.3      5.549      9.323
REMARK  Name = 5666
REMARK  5 active torsions:
REMARK  status: ('A' for Active; 'I' for Inactive)
REMARK    1  A    between atoms: O_1  and  C_2
REMARK    2  A    between atoms: O_1  and  C_11
REMARK    3  A    between atoms: C_3  and  O_8
REMARK    4  A    between atoms: O_8  and  C_9
REMARK    5  A    between atoms: C_11  and  C_14
REMARK                            x       y       z     vdW  Elec       q    Type
REMARK                         _______ _______ _______ _____ _____    ______ ____
ROOT
ATOM      1  O   UNL     1      35.270 -15.988 -22.777  0.00  0.00    -0.470 OA
ENDROOT
BRANCH   1   2
ATOM      2  C   UNL     1      34.262 -15.134 -22.405  0.00  0.00    +0.172 C 
ATOM      3  C   UNL     1      33.644 -14.327 -23.353  0.00  0.00    +0.172 C 
ATOM      4  C   UNL     1      33.873 -15.089 -21.071  0.00  0.00    +0.040 C 
ATOM      5  C   UNL     1      32.622 -13.462 -22.960  0.00  0.00    +0.040 C 
ATOM      6  C   UNL     1      32.851 -14.225 -20.679  0.00  0.00    +0.003 C 
ATOM      7  C   UNL     1      32.226 -13.412 -21.624  0.00  0.00    +0.003 C 
BRANCH   3   8
ATOM      8  O   UNL     1      34.022 -14.368 -24.660  0.00  0.00    -0.472 OA
BRANCH   8   9
ATOM      9  C   UNL     1      33.018 -14.702 -25.616  0.00  0.00    +0.206 C 
ATOM     10  C   UNL     1      33.088 -13.722 -26.768  0.00  0.00    +0.051 C 
ENDBRANCH   8   9
ENDBRANCH   3   8
ENDBRANCH   1   2
BRANCH   1  11
ATOM     11  C   UNL     1      34.908 -17.329 -23.054  0.00  0.00    +0.233 C 
BRANCH  11  14
ATOM     12  O   UNL     1      34.027 -19.216 -21.886  0.00  0.00    -0.357 OA
ATOM     13  N   UNL     1      36.347 -19.479 -20.261  0.00  0.00    +0.387 N 
ATOM     14  C   UNL     1      34.944 -18.123 -21.756  0.00  0.00    +0.138 C 
ATOM     15  C   UNL     1      36.351 -18.658 -21.475  0.00  0.00    -0.048 C 
ATOM     16  C   UNL     1      35.374 -20.564 -20.388  0.00  0.00    -0.049 C 
ATOM     17  C   UNL     1      33.992 -20.000 -20.693  0.00  0.00    +0.119 C 
ATOM     18  H   UNL     1      36.100 -18.895 -19.461  0.00  0.00    -0.084 HD
ATOM     19  H   UNL     1      37.276 -19.877 -20.127  0.00  0.00    -0.084 HD
ENDBRANCH  11  14
ENDBRANCH   1  11
TORSDOF 5
ENDMDL
MODEL 9
REMARK VINA RESULT:      -7.3      5.369      9.230
REMARK  Name = 5666
REMARK  5 active torsions:
REMARK  status: ('A' for Active; 'I' for Inactive)
REMARK    1  A    between atoms: O_1  and  C_2
REMARK    2  A    between atoms: O_1  and  C_11
REMARK    3  A    between atoms: C_3  and  O_8
REMARK    4  A    between atoms: O_8  and  C_9
REMARK    5  A    between atoms: C_11  and  C_14
REMARK                            x       y       z     vdW  Elec       q    Type
REMARK                         _______ _______ _______ _____ _____    ______ ____
ROOT
ATOM      1  O   UNL     1      34.967 -16.371 -22.387  0.00  0.00    -0.470 OA
ENDROOT
BRANCH   1   2
ATOM      2  C   UNL     1      34.346 -15.820 -23.480  0.00  0.00    +0.172 C 
ATOM      3  C   UNL     1      33.732 -14.578 -23.382  0.00  0.00    +0.172 C 
ATOM      4  C   UNL     1      34.342 -16.522 -24.680  0.00  0.00    +0.040 C 
ATOM      5  C   UNL     1      33.102 -14.029 -24.500  0.00  0.00    +0.040 C 
ATOM      6  C   UNL     1      33.714 -15.974 -25.798  0.00  0.00    +0.003 C 
ATOM      7  C   UNL     1      33.094 -14.728 -25.708  0.00  0.00    +0.003 C 
BRANCH   3   8
ATOM      8  O   UNL     1      33.733 -13.886 -22.209  0.00  0.00    -0.472 OA
BRANCH   8   9
ATOM      9  C   UNL     1      32.533 -13.912 -21.439  0.00  0.00    +0.206 C 
ATOM     10  C   UNL     1      32.697 -14.900 -20.303  0.00  0.00    +0.051 C 
ENDBRANCH   8   9
ENDBRANCH   3   8
ENDBRANCH   1   2
BRANCH   1  11
ATOM     11  C   UNL     1      35.607 -17.621 -22.573  0.00  0.00    +0.233 C 
BRANCH  11  14
ATOM     12  O   UNL     1      34.383 -19.432 -21.612  0.00  0.00    -0.357 OA
ATOM     13  N   UNL     1      36.455 -20.043 -19.761  0.00  0.00    +0.387 N 
ATOM     14  C   UNL     1      35.401 -18.466 -21.324  0.00  0.00    +0.138 C 
ATOM     15  C   UNL     1      36.694 -19.180 -20.920  0.00  0.00    -0.048 C 
ATOM     16  C   UNL     1      35.382 -20.995 -20.051  0.00  0.00    -0.049 C 
ATOM     17  C   UNL     1      34.120 -20.254 -20.474  0.00  0.00    +0.119 C 
ATOM     18  H   UNL     1      36.187 -19.467 -18.962  0.00  0.00    -0.084 HD
ATOM     19  H   UNL     1      37.310 -20.557 -19.547  0.00  0.00    -0.084 HD
ENDBRANCH  11  14
ENDBRANCH   1  11
TORSDOF 5
ENDMDL
