MODEL 1
REMARK VINA RESULT:      -7.7      0.000      0.000
REMARK  Name = 156375
REMARK  4 active torsions:
REMARK  status: ('A' for Active; 'I' for Inactive)
REMARK    1  A    between atoms: C_1  and  N_3
REMARK    2  A    between atoms: C_1  and  C_9
REMARK    3  A    between atoms: N_3  and  C_6
REMARK    4  A    between atoms: C_9  and  C_11
REMARK                            x       y       z     vdW  Elec       q    Type
REMARK                         _______ _______ _______ _____ _____    ______ ____
ROOT
ATOM      1  C   UNL     1      35.071 -17.349 -22.524  0.00  0.00    -0.057 C 
ATOM      2  C   UNL     1      34.643 -16.279 -21.518  0.00  0.00    -0.023 C 
ENDROOT
BRANCH   1   3
ATOM      3  N   UNL     1      35.629 -16.679 -23.702  0.00  0.00    +0.387 N 
ATOM      4  H   UNL     1      36.605 -16.955 -23.814  0.00  0.00    -0.084 HD
ATOM      5  H   UNL     1      35.560 -15.670 -23.569  0.00  0.00    -0.084 HD
BRANCH   3   6
ATOM      6  C   UNL     1      34.889 -17.046 -24.897  0.00  0.00    -0.062 C 
ATOM      7  C   UNL     1      33.770 -16.042 -25.157  0.00  0.00    -0.023 C 
ATOM      8  C   UNL     1      34.333 -18.457 -24.737  0.00  0.00    -0.023 C 
ENDBRANCH   3   6
ENDBRANCH   1   3
BRANCH   1   9
ATOM      9  C   UNL     1      36.114 -18.321 -21.942  0.00  0.00    +0.005 C 
BRANCH   9  11
ATOM     10  I   UNL     1      33.598 -22.875 -18.287  0.00  0.00    -0.043 I 
ATOM     11  C   UNL     1      35.515 -19.404 -21.076  0.00  0.00    -0.024 C 
ATOM     12  C   UNL     1      36.354 -20.214 -20.328  0.00  0.00    -0.004 C 
ATOM     13  C   UNL     1      34.140 -19.566 -21.045  0.00  0.00    -0.004 C 
ATOM     14  C   UNL     1      35.803 -21.214 -19.527  0.00  0.00    +0.005 C 
ATOM     15  C   UNL     1      33.588 -20.566 -20.243  0.00  0.00    +0.005 C 
ATOM     16  C   UNL     1      34.419 -21.389 -19.485  0.00  0.00    +0.030 C 
ENDBRANCH   9  11
ENDBRANCH   1   9
TORSDOF 4
ENDMDL
MODEL 2
REMARK VINA RESULT:      -7.6      0.979      1.940
REMARK  Name = 156375
REMARK  4 active torsions:
REMARK  status: ('A' for Active; 'I' for Inactive)
REMARK    1  A    between atoms: C_1  and  N_3
REMARK    2  A    between atoms: C_1  and  C_9
REMARK    3  A    between atoms: N_3  and  C_6
REMARK    4  A    between atoms: C_9  and  C_11
REMARK                            x       y       z     vdW  Elec       q    Type
REMARK                         _______ _______ _______ _____ _____    ______ ____
ROOT
ATOM      1  C   UNL     1      34.707 -16.888 -22.154  0.00  0.00    -0.057 C 
ATOM      2  C   UNL     1      34.753 -16.065 -20.866  0.00  0.00    -0.023 C 
ENDROOT
BRANCH   1   3
ATOM      3  N   UNL     1      35.052 -16.009 -23.275  0.00  0.00    +0.387 N 
ATOM      4  H   UNL     1      35.547 -16.550 -23.985  0.00  0.00    -0.084 HD
ATOM      5  H   UNL     1      35.643 -15.253 -22.931  0.00  0.00    -0.084 HD
BRANCH   3   6
ATOM      6  C   UNL     1      33.853 -15.436 -23.864  0.00  0.00    -0.062 C 
ATOM      7  C   UNL     1      33.739 -15.836 -25.331  0.00  0.00    -0.023 C 
ATOM      8  C   UNL     1      33.888 -13.919 -23.711  0.00  0.00    -0.023 C 
ENDBRANCH   3   6
ENDBRANCH   1   3
BRANCH   1   9
ATOM      9  C   UNL     1      35.674 -18.086 -22.123  0.00  0.00    +0.005 C 
BRANCH   9  11
ATOM     10  I   UNL     1      33.723 -22.834 -18.370  0.00  0.00    -0.043 I 
ATOM     11  C   UNL     1      35.212 -19.213 -21.229  0.00  0.00    -0.024 C 
ATOM     12  C   UNL     1      33.854 -19.446 -21.082  0.00  0.00    -0.004 C 
ATOM     13  C   UNL     1      36.154 -19.991 -20.576  0.00  0.00    -0.004 C 
ATOM     14  C   UNL     1      33.426 -20.487 -20.257  0.00  0.00    +0.005 C 
ATOM     15  C   UNL     1      35.725 -21.033 -19.752  0.00  0.00    +0.005 C 
ATOM     16  C   UNL     1      34.362 -21.281 -19.593  0.00  0.00    +0.030 C 
ENDBRANCH   9  11
ENDBRANCH   1   9
TORSDOF 4
ENDMDL
MODEL 3
REMARK VINA RESULT:      -7.6      0.979      1.452
REMARK  Name = 156375
REMARK  4 active torsions:
REMARK  status: ('A' for Active; 'I' for Inactive)
REMARK    1  A    between atoms: C_1  and  N_3
REMARK    2  A    between atoms: C_1  and  C_9
REMARK    3  A    between atoms: N_3  and  C_6
REMARK    4  A    between atoms: C_9  and  C_11
REMARK                            x       y       z     vdW  Elec       q    Type
REMARK                         _______ _______ _______ _____ _____    ______ ____
ROOT
ATOM      1  C   UNL     1      34.647 -16.871 -22.214  0.00  0.00    -0.057 C 
ATOM      2  C   UNL     1      34.700 -16.089 -20.901  0.00  0.00    -0.023 C 
ENDROOT
BRANCH   1   3
ATOM      3  N   UNL     1      35.031 -15.969 -23.304  0.00  0.00    +0.387 N 
ATOM      4  H   UNL     1      35.594 -16.484 -23.982  0.00  0.00    -0.084 HD
ATOM      5  H   UNL     1      35.568 -15.194 -22.915  0.00  0.00    -0.084 HD
BRANCH   3   6
ATOM      6  C   UNL     1      33.853 -15.437 -23.967  0.00  0.00    -0.062 C 
ATOM      7  C   UNL     1      33.804 -15.908 -25.418  0.00  0.00    -0.023 C 
ATOM      8  C   UNL     1      33.869 -13.914 -23.886  0.00  0.00    -0.023 C 
ENDBRANCH   3   6
ENDBRANCH   1   3
BRANCH   1   9
ATOM      9  C   UNL     1      35.577 -18.098 -22.208  0.00  0.00    +0.005 C 
BRANCH   9  11
ATOM     10  I   UNL     1      33.615 -22.762 -18.358  0.00  0.00    -0.043 I 
ATOM     11  C   UNL     1      35.109 -19.207 -21.296  0.00  0.00    -0.024 C 
ATOM     12  C   UNL     1      36.049 -19.978 -20.631  0.00  0.00    -0.004 C 
ATOM     13  C   UNL     1      33.751 -19.431 -21.139  0.00  0.00    -0.004 C 
ATOM     14  C   UNL     1      35.619 -21.002 -19.787  0.00  0.00    +0.005 C 
ATOM     15  C   UNL     1      33.321 -20.455 -20.295  0.00  0.00    +0.005 C 
ATOM     16  C   UNL     1      34.254 -21.240 -19.619  0.00  0.00    +0.030 C 
ENDBRANCH   9  11
ENDBRANCH   1   9
TORSDOF 4
ENDMDL
MODEL 4
REMARK VINA RESULT:      -7.3      4.249      7.353
REMARK  Name = 156375
REMARK  4 active torsions:
REMARK  status: ('A' for Active; 'I' for Inactive)
REMARK    1  A    between atoms: C_1  and  N_3
REMARK    2  A    between atoms: C_1  and  C_9
REMARK    3  A    between atoms: N_3  and  C_6
REMARK    4  A    between atoms: C_9  and  C_11
REMARK                            x       y       z     vdW  Elec       q    Type
REMARK                         _______ _______ _______ _____ _____    ______ ____
ROOT
ATOM      1  C   UNL     1      33.527 -22.937 -16.983  0.00  0.00    -0.057 C 
ATOM      2  C   UNL     1      32.111 -23.293 -16.529  0.00  0.00    -0.023 C 
ENDROOT
BRANCH   1   3
ATOM      3  N   UNL     1      34.477 -23.708 -16.176  0.00  0.00    +0.387 N 
ATOM      4  H   UNL     1      35.087 -24.242 -16.795  0.00  0.00    -0.084 HD
ATOM      5  H   UNL     1      33.955 -24.338 -15.565  0.00  0.00    -0.084 HD
BRANCH   3   6
ATOM      6  C   UNL     1      35.286 -22.824 -15.355  0.00  0.00    -0.062 C 
ATOM      7  C   UNL     1      36.572 -22.450 -16.087  0.00  0.00    -0.023 C 
ATOM      8  C   UNL     1      35.592 -23.505 -14.025  0.00  0.00    -0.023 C 
ENDBRANCH   3   6
ENDBRANCH   1   3
BRANCH   1   9
ATOM      9  C   UNL     1      33.760 -23.235 -18.476  0.00  0.00    +0.005 C 
BRANCH   9  11
ATOM     10  I   UNL     1      35.341 -18.106 -21.886  0.00  0.00    -0.043 I 
ATOM     11  C   UNL     1      34.134 -22.015 -19.284  0.00  0.00    -0.024 C 
ATOM     12  C   UNL     1      35.471 -21.754 -19.536  0.00  0.00    -0.004 C 
ATOM     13  C   UNL     1      33.134 -21.181 -19.759  0.00  0.00    -0.004 C 
ATOM     14  C   UNL     1      35.818 -20.628 -20.284  0.00  0.00    +0.005 C 
ATOM     15  C   UNL     1      33.482 -20.056 -20.507  0.00  0.00    +0.005 C 
ATOM     16  C   UNL     1      34.823 -19.779 -20.769  0.00  0.00    +0.030 C 
ENDBRANCH   9  11
ENDBRANCH   1   9
TORSDOF 4
ENDMDL
MODEL 5
REMARK VINA RESULT:      -7.3      3.568      5.940
REMARK  Name = 156375
REMARK  4 active torsions:
REMARK  status: ('A' for Active; 'I' for Inactive)
REMARK    1  A    between atoms: C_1  and  N_3
REMARK    2  A    between atoms: C_1  and  C_9
REMARK    3  A    between atoms: N_3  and  C_6
REMARK    4  A    between atoms: C_9  and  C_11
REMARK                            x       y       z     vdW  Elec       q    Type
REMARK                         _______ _______ _______ _____ _____    ______ ____
ROOT
ATOM      1  C   UNL     1      34.568 -18.635 -22.657  0.00  0.00    -0.057 C 
ATOM      2  C   UNL     1      34.760 -18.877 -24.154  0.00  0.00    -0.023 C 
ENDROOT
BRANCH   1   3
ATOM      3  N   UNL     1      35.025 -19.825 -21.934  0.00  0.00    +0.387 N 
ATOM      4  H   UNL     1      36.040 -19.787 -21.833  0.00  0.00    -0.084 HD
ATOM      5  H   UNL     1      34.754 -20.655 -22.462  0.00  0.00    -0.084 HD
BRANCH   3   6
ATOM      6  C   UNL     1      34.417 -19.889 -20.616  0.00  0.00    -0.062 C 
ATOM      7  C   UNL     1      34.983 -21.066 -19.828  0.00  0.00    -0.023 C 
ATOM      8  C   UNL     1      32.903 -20.003 -20.761  0.00  0.00    -0.023 C 
ENDBRANCH   3   6
ENDBRANCH   1   3
BRANCH   1   9
ATOM      9  C   UNL     1      35.341 -17.400 -22.156  0.00  0.00    +0.005 C 
BRANCH   9  11
ATOM     10  I   UNL     1      31.816 -12.114 -21.895  0.00  0.00    -0.043 I 
ATOM     11  C   UNL     1      34.502 -16.145 -22.097  0.00  0.00    -0.024 C 
ATOM     12  C   UNL     1      33.668 -15.940 -21.010  0.00  0.00    -0.004 C 
ATOM     13  C   UNL     1      34.585 -15.224 -23.128  0.00  0.00    -0.004 C 
ATOM     14  C   UNL     1      32.893 -14.781 -20.953  0.00  0.00    +0.005 C 
ATOM     15  C   UNL     1      33.811 -14.064 -23.070  0.00  0.00    +0.005 C 
ATOM     16  C   UNL     1      32.966 -13.843 -21.984  0.00  0.00    +0.030 C 
ENDBRANCH   9  11
ENDBRANCH   1   9
TORSDOF 4
ENDMDL
MODEL 6
REMARK VINA RESULT:      -7.3      3.740      6.157
REMARK  Name = 156375
REMARK  4 active torsions:
REMARK  status: ('A' for Active; 'I' for Inactive)
REMARK    1  A    between atoms: C_1  and  N_3
REMARK    2  A    between atoms: C_1  and  C_9
REMARK    3  A    between atoms: N_3  and  C_6
REMARK    4  A    between atoms: C_9  and  C_11
REMARK                            x       y       z     vdW  Elec       q    Type
REMARK                         _______ _______ _______ _____ _____    ______ ____
ROOT
ATOM      1  C   UNL     1      34.539 -18.161 -22.155  0.00  0.00    -0.057 C 
ATOM      2  C   UNL     1      34.898 -19.146 -23.269  0.00  0.00    -0.023 C 
ENDROOT
BRANCH   1   3
ATOM      3  N   UNL     1      34.878 -18.777 -20.869  0.00  0.00    +0.387 N 
ATOM      4  H   UNL     1      34.441 -18.244 -20.116  0.00  0.00    -0.084 HD
ATOM      5  H   UNL     1      35.892 -18.776 -20.760  0.00  0.00    -0.084 HD
BRANCH   3   6
ATOM      6  C   UNL     1      34.403 -20.150 -20.818  0.00  0.00    -0.062 C 
ATOM      7  C   UNL     1      32.955 -20.192 -20.338  0.00  0.00    -0.023 C 
ATOM      8  C   UNL     1      35.308 -20.966 -19.901  0.00  0.00    -0.023 C 
ENDBRANCH   3   6
ENDBRANCH   1   3
BRANCH   1   9
ATOM      9  C   UNL     1      35.279 -16.818 -22.294  0.00  0.00    +0.005 C 
BRANCH   9  11
ATOM     10  I   UNL     1      31.502 -11.752 -21.592  0.00  0.00    -0.043 I 
ATOM     11  C   UNL     1      34.383 -15.614 -22.125  0.00  0.00    -0.024 C 
ATOM     12  C   UNL     1      34.182 -14.764 -23.201  0.00  0.00    -0.004 C 
ATOM     13  C   UNL     1      33.779 -15.383 -20.900  0.00  0.00    -0.004 C 
ATOM     14  C   UNL     1      33.354 -13.652 -23.046  0.00  0.00    +0.005 C 
ATOM     15  C   UNL     1      32.951 -14.271 -20.746  0.00  0.00    +0.005 C 
ATOM     16  C   UNL     1      32.738 -13.406 -21.819  0.00  0.00    +0.030 C 
ENDBRANCH   9  11
ENDBRANCH   1   9
TORSDOF 4
ENDMDL
MODEL 7
REMARK VINA RESULT:      -7.1      1.562      2.810
REMARK  Name = 156375
REMARK  4 active torsions:
REMARK  status: ('A' for Active; 'I' for Inactive)
REMARK    1  A    between atoms: C_1  and  N_3
REMARK    2  A    between atoms: C_1  and  C_9
REMARK    3  A    between atoms: N_3  and  C_6
REMARK    4  A    between atoms: C_9  and  C_11
REMARK                            x       y       z     vdW  Elec       q    Type
REMARK                         _______ _______ _______ _____ _____    ______ ____
ROOT
ATOM      1  C   UNL     1      35.320 -17.723 -21.944  0.00  0.00    -0.057 C 
ATOM      2  C   UNL     1      35.447 -16.721 -23.092  0.00  0.00    -0.023 C 
ENDROOT
BRANCH   1   3
ATOM      3  N   UNL     1      34.789 -17.019 -20.773  0.00  0.00    +0.387 N 
ATOM      4  H   UNL     1      35.566 -16.676 -20.207  0.00  0.00    -0.084 HD
ATOM      5  H   UNL     1      34.216 -17.666 -20.231  0.00  0.00    -0.084 HD
BRANCH   3   6
ATOM      6  C   UNL     1      33.965 -15.895 -21.183  0.00  0.00    -0.062 C 
ATOM      7  C   UNL     1      34.490 -14.600 -20.569  0.00  0.00    -0.023 C 
ATOM      8  C   UNL     1      32.518 -16.148 -20.770  0.00  0.00    -0.023 C 
ENDBRANCH   3   6
ENDBRANCH   1   3
BRANCH   1   9
ATOM      9  C   UNL     1      34.400 -18.907 -22.294  0.00  0.00    +0.005 C 
BRANCH   9  11
ATOM     10  I   UNL     1      33.685 -23.081 -17.551  0.00  0.00    -0.043 I 
ATOM     11  C   UNL     1      34.232 -19.897 -21.166  0.00  0.00    -0.024 C 
ATOM     12  C   UNL     1      32.963 -20.150 -20.670  0.00  0.00    -0.004 C 
ATOM     13  C   UNL     1      35.348 -20.534 -20.649  0.00  0.00    -0.004 C 
ATOM     14  C   UNL     1      32.806 -21.064 -19.629  0.00  0.00    +0.005 C 
ATOM     15  C   UNL     1      35.191 -21.450 -19.608  0.00  0.00    +0.005 C 
ATOM     16  C   UNL     1      33.921 -21.715 -19.098  0.00  0.00    +0.030 C 
ENDBRANCH   9  11
ENDBRANCH   1   9
TORSDOF 4
ENDMDL
MODEL 8
REMARK VINA RESULT:      -6.9      3.408      6.067
REMARK  Name = 156375
REMARK  4 active torsions:
REMARK  status: ('A' for Active; 'I' for Inactive)
REMARK    1  A    between atoms: C_1  and  N_3
REMARK    2  A    between atoms: C_1  and  C_9
REMARK    3  A    between atoms: N_3  and  C_6
REMARK    4  A    between atoms: C_9  and  C_11
REMARK                            x       y       z     vdW  Elec       q    Type
REMARK                         _______ _______ _______ _____ _____    ______ ____
ROOT
ATOM      1  C   UNL     1      34.858 -19.705 -20.712  0.00  0.00    -0.057 C 
ATOM      2  C   UNL     1      33.365 -19.828 -21.017  0.00  0.00    -0.023 C 
ENDROOT
BRANCH   1   3
ATOM      3  N   UNL     1      35.391 -21.049 -20.468  0.00  0.00    +0.387 N 
ATOM      4  H   UNL     1      36.398 -21.045 -20.634  0.00  0.00    -0.084 HD
ATOM      5  H   UNL     1      34.931 -21.705 -21.099  0.00  0.00    -0.084 HD
BRANCH   3   6
ATOM      6  C   UNL     1      35.135 -21.460 -19.098  0.00  0.00    -0.062 C 
ATOM      7  C   UNL     1      36.450 -21.717 -18.368  0.00  0.00    -0.023 C 
ATOM      8  C   UNL     1      34.255 -22.705 -19.097  0.00  0.00    -0.023 C 
ENDBRANCH   3   6
ENDBRANCH   1   3
BRANCH   1   9
ATOM      9  C   UNL     1      35.642 -19.041 -21.859  0.00  0.00    +0.005 C 
BRANCH   9  11
ATOM     10  I   UNL     1      33.433 -13.298 -23.464  0.00  0.00    -0.043 I 
ATOM     11  C   UNL     1      35.115 -17.678 -22.241  0.00  0.00    -0.024 C 
ATOM     12  C   UNL     1      34.924 -16.724 -21.254  0.00  0.00    -0.004 C 
ATOM     13  C   UNL     1      34.834 -17.407 -23.570  0.00  0.00    -0.004 C 
ATOM     14  C   UNL     1      34.438 -15.465 -21.606  0.00  0.00    +0.005 C 
ATOM     15  C   UNL     1      34.349 -16.146 -23.922  0.00  0.00    +0.005 C 
ATOM     16  C   UNL     1      34.151 -15.176 -22.940  0.00  0.00    +0.030 C 
ENDBRANCH   9  11
ENDBRANCH   1   9
TORSDOF 4
ENDMDL
MODEL 9
REMARK VINA RESULT:      -6.9      3.514      5.990
REMARK  Name = 156375
REMARK  4 active torsions:
REMARK  status: ('A' for Active; 'I' for Inactive)
REMARK    1  A    between atoms: C_1  and  N_3
REMARK    2  A    between atoms: C_1  and  C_9
REMARK    3  A    between atoms: N_3  and  C_6
REMARK    4  A    between atoms: C_9  and  C_11
REMARK                            x       y       z     vdW  Elec       q    Type
REMARK                         _______ _______ _______ _____ _____    ______ ____
ROOT
ATOM      1  C   UNL     1      35.832 -18.764 -21.454  0.00  0.00    -0.057 C 
ATOM      2  C   UNL     1      37.279 -18.764 -21.946  0.00  0.00    -0.023 C 
ENDROOT
BRANCH   1   3
ATOM      3  N   UNL     1      35.762 -19.562 -20.226  0.00  0.00    +0.387 N 
ATOM      4  H   UNL     1      35.364 -18.992 -19.478  0.00  0.00    -0.084 HD
ATOM      5  H   UNL     1      36.703 -19.865 -19.977  0.00  0.00    -0.084 HD
BRANCH   3   6
ATOM      6  C   UNL     1      34.929 -20.736 -20.426  0.00  0.00    -0.062 C 
ATOM      7  C   UNL     1      33.453 -20.362 -20.327  0.00  0.00    -0.023 C 
ATOM      8  C   UNL     1      35.295 -21.799 -19.395  0.00  0.00    -0.023 C 
ENDBRANCH   3   6
ENDBRANCH   1   3
BRANCH   1   9
ATOM      9  C   UNL     1      35.304 -17.344 -21.176  0.00  0.00    +0.005 C 
BRANCH   9  11
ATOM     10  I   UNL     1      33.044 -14.416 -26.347  0.00  0.00    -0.043 I 
ATOM     11  C   UNL     1      34.769 -16.647 -22.404  0.00  0.00    -0.024 C 
ATOM     12  C   UNL     1      34.712 -17.337 -23.604  0.00  0.00    -0.004 C 
ATOM     13  C   UNL     1      34.344 -15.331 -22.307  0.00  0.00    -0.004 C 
ATOM     14  C   UNL     1      34.217 -16.694 -24.739  0.00  0.00    +0.005 C 
ATOM     15  C   UNL     1      33.849 -14.689 -23.443  0.00  0.00    +0.005 C 
ATOM     16  C   UNL     1      33.785 -15.370 -24.658  0.00  0.00    +0.030 C 
ENDBRANCH   9  11
ENDBRANCH   1   9
TORSDOF 4
ENDMDL
