MODEL 1
REMARK VINA RESULT:      -6.9      0.000      0.000
REMARK  Name = 104994
REMARK  0 active torsions:
REMARK  status: ('A' for Active; 'I' for Inactive)
REMARK                            x       y       z     vdW  Elec       q    Type
REMARK                         _______ _______ _______ _____ _____    ______ ____
ROOT
ATOM      1  N   UNL     1      34.753 -19.569 -20.939  0.00  0.00    -0.251 N 
ATOM      2  N   UNL     1      35.072 -22.327 -18.556  0.00  0.00    -0.270 NA
ATOM      3  N   UNL     1      36.768 -20.149 -20.162  0.00  0.00    -0.230 NA
ATOM      4  N   UNL     1      32.633 -20.537 -20.418  0.00  0.00    -0.236 NA
ATOM      5  N   UNL     1      32.846 -22.421 -18.790  0.00  0.00    -0.307 N 
ATOM      6  C   UNL     1      34.724 -21.351 -19.432  0.00  0.00    +0.165 C 
ATOM      7  C   UNL     1      35.484 -20.401 -20.130  0.00  0.00    +0.135 C 
ATOM      8  C   UNL     1      33.356 -21.417 -19.569  0.00  0.00    +0.125 C 
ATOM      9  C   UNL     1      33.359 -19.658 -21.061  0.00  0.00    +0.226 C 
ATOM     10  C   UNL     1      35.637 -18.717 -21.537  0.00  0.00    +0.089 C 
ATOM     11  C   UNL     1      36.870 -19.093 -21.042  0.00  0.00    +0.116 C 
ATOM     12  C   UNL     1      33.900 -22.948 -18.194  0.00  0.00    +0.163 C 
ATOM     13  H   UNL     1      35.979 -22.545 -18.243  0.00  0.00    +0.126 HD
ATOM     14  H   UNL     1      31.904 -22.690 -18.694  0.00  0.00    +0.149 HD
ENDROOT
TORSDOF 0
ENDMDL
MODEL 2
REMARK VINA RESULT:      -6.7      5.167      7.579
REMARK  Name = 104994
REMARK  0 active torsions:
REMARK  status: ('A' for Active; 'I' for Inactive)
REMARK                            x       y       z     vdW  Elec       q    Type
REMARK                         _______ _______ _______ _____ _____    ______ ____
ROOT
ATOM      1  N   UNL     1      34.707 -16.913 -23.519  0.00  0.00    -0.251 N 
ATOM      2  N   UNL     1      33.269 -15.447 -26.548  0.00  0.00    -0.270 NA
ATOM      3  N   UNL     1      34.392 -18.180 -25.334  0.00  0.00    -0.230 NA
ATOM      4  N   UNL     1      34.215 -14.594 -23.232  0.00  0.00    -0.236 NA
ATOM      5  N   UNL     1      33.232 -13.589 -25.298  0.00  0.00    -0.307 N 
ATOM      6  C   UNL     1      33.778 -15.776 -25.334  0.00  0.00    +0.165 C 
ATOM      7  C   UNL     1      34.269 -16.984 -24.816  0.00  0.00    +0.135 C 
ATOM      8  C   UNL     1      33.752 -14.629 -24.574  0.00  0.00    +0.125 C 
ATOM      9  C   UNL     1      34.669 -15.731 -22.767  0.00  0.00    +0.226 C 
ATOM     10  C   UNL     1      35.145 -18.161 -23.178  0.00  0.00    +0.089 C 
ATOM     11  C   UNL     1      34.941 -18.922 -24.311  0.00  0.00    +0.116 C 
ATOM     12  C   UNL     1      32.951 -14.112 -26.478  0.00  0.00    +0.163 C 
ATOM     13  H   UNL     1      33.150 -16.044 -27.321  0.00  0.00    +0.126 HD
ATOM     14  H   UNL     1      33.097 -12.659 -25.004  0.00  0.00    +0.149 HD
ENDROOT
TORSDOF 0
ENDMDL
MODEL 3
REMARK VINA RESULT:      -6.6      4.840      6.764
REMARK  Name = 104994
REMARK  0 active torsions:
REMARK  status: ('A' for Active; 'I' for Inactive)
REMARK                            x       y       z     vdW  Elec       q    Type
REMARK                         _______ _______ _______ _____ _____    ______ ____
ROOT
ATOM      1  N   UNL     1      33.684 -14.664 -24.399  0.00  0.00    -0.251 N 
ATOM      2  N   UNL     1      35.010 -18.075 -24.365  0.00  0.00    -0.270 NA
ATOM      3  N   UNL     1      33.509 -15.950 -26.219  0.00  0.00    -0.230 NA
ATOM      4  N   UNL     1      34.670 -15.209 -22.293  0.00  0.00    -0.236 NA
ATOM      5  N   UNL     1      35.577 -17.538 -22.266  0.00  0.00    -0.307 N 
ATOM      6  C   UNL     1      34.596 -16.799 -24.157  0.00  0.00    +0.165 C 
ATOM      7  C   UNL     1      33.937 -15.878 -24.984  0.00  0.00    +0.135 C 
ATOM      8  C   UNL     1      34.948 -16.479 -22.865  0.00  0.00    +0.125 C 
ATOM      9  C   UNL     1      34.054 -14.364 -23.080  0.00  0.00    +0.226 C 
ATOM     10  C   UNL     1      33.046 -13.897 -25.331  0.00  0.00    +0.089 C 
ATOM     11  C   UNL     1      32.951 -14.710 -26.442  0.00  0.00    +0.116 C 
ATOM     12  C   UNL     1      35.599 -18.480 -23.191  0.00  0.00    +0.163 C 
ATOM     13  H   UNL     1      34.909 -18.602 -25.190  0.00  0.00    +0.126 HD
ATOM     14  H   UNL     1      35.934 -17.586 -21.350  0.00  0.00    +0.149 HD
ENDROOT
TORSDOF 0
ENDMDL
MODEL 4
REMARK VINA RESULT:      -6.6      6.127      8.530
REMARK  Name = 104994
REMARK  0 active torsions:
REMARK  status: ('A' for Active; 'I' for Inactive)
REMARK                            x       y       z     vdW  Elec       q    Type
REMARK                         _______ _______ _______ _____ _____    ______ ____
ROOT
ATOM      1  N   UNL     1      36.136 -24.755 -13.574  0.00  0.00    -0.251 N 
ATOM      2  N   UNL     1      39.231 -25.061 -15.502  0.00  0.00    -0.270 NA
ATOM      3  N   UNL     1      36.229 -23.985 -15.671  0.00  0.00    -0.230 NA
ATOM      4  N   UNL     1      37.862 -25.817 -12.312  0.00  0.00    -0.236 NA
ATOM      5  N   UNL     1      39.979 -26.028 -13.625  0.00  0.00    -0.307 N 
ATOM      6  C   UNL     1      38.204 -25.052 -14.616  0.00  0.00    +0.165 C 
ATOM      7  C   UNL     1      36.888 -24.575 -14.707  0.00  0.00    +0.135 C 
ATOM      8  C   UNL     1      38.672 -25.649 -13.467  0.00  0.00    +0.125 C 
ATOM      9  C   UNL     1      36.638 -25.366 -12.417  0.00  0.00    +0.226 C 
ATOM     10  C   UNL     1      34.897 -24.240 -13.832  0.00  0.00    +0.089 C 
ATOM     11  C   UNL     1      34.980 -23.772 -15.128  0.00  0.00    +0.116 C 
ATOM     12  C   UNL     1      40.286 -25.661 -14.856  0.00  0.00    +0.163 C 
ATOM     13  H   UNL     1      39.223 -24.707 -16.420  0.00  0.00    +0.126 HD
ATOM     14  H   UNL     1      40.560 -26.473 -12.967  0.00  0.00    +0.149 HD
ENDROOT
TORSDOF 0
ENDMDL
MODEL 5
REMARK VINA RESULT:      -6.6      4.659      7.053
REMARK  Name = 104994
REMARK  0 active torsions:
REMARK  status: ('A' for Active; 'I' for Inactive)
REMARK                            x       y       z     vdW  Elec       q    Type
REMARK                         _______ _______ _______ _____ _____    ______ ____
ROOT
ATOM      1  N   UNL     1      34.852 -17.305 -23.185  0.00  0.00    -0.251 N 
ATOM      2  N   UNL     1      33.200 -14.220 -24.257  0.00  0.00    -0.270 NA
ATOM      3  N   UNL     1      34.372 -15.715 -21.689  0.00  0.00    -0.230 NA
ATOM      4  N   UNL     1      34.425 -17.300 -25.535  0.00  0.00    -0.236 NA
ATOM      5  N   UNL     1      33.297 -15.194 -26.271  0.00  0.00    -0.307 N 
ATOM      6  C   UNL     1      33.801 -15.424 -24.086  0.00  0.00    +0.165 C 
ATOM      7  C   UNL     1      34.311 -16.067 -22.948  0.00  0.00    +0.135 C 
ATOM      8  C   UNL     1      33.856 -16.015 -25.327  0.00  0.00    +0.125 C 
ATOM      9  C   UNL     1      34.895 -17.884 -24.461  0.00  0.00    +0.226 C 
ATOM     10  C   UNL     1      35.295 -17.783 -21.985  0.00  0.00    +0.089 C 
ATOM     11  C   UNL     1      34.989 -16.786 -21.081  0.00  0.00    +0.116 C 
ATOM     12  C   UNL     1      32.914 -14.125 -25.598  0.00  0.00    +0.163 C 
ATOM     13  H   UNL     1      33.010 -13.550 -23.562  0.00  0.00    +0.126 HD
ATOM     14  H   UNL     1      33.204 -15.363 -27.236  0.00  0.00    +0.149 HD
ENDROOT
TORSDOF 0
ENDMDL
MODEL 6
REMARK VINA RESULT:      -6.6      3.781      5.561
REMARK  Name = 104994
REMARK  0 active torsions:
REMARK  status: ('A' for Active; 'I' for Inactive)
REMARK                            x       y       z     vdW  Elec       q    Type
REMARK                         _______ _______ _______ _____ _____    ______ ____
ROOT
ATOM      1  N   UNL     1      34.191 -14.797 -22.175  0.00  0.00    -0.251 N 
ATOM      2  N   UNL     1      34.977 -18.285 -22.951  0.00  0.00    -0.270 NA
ATOM      3  N   UNL     1      33.947 -15.561 -24.262  0.00  0.00    -0.230 NA
ATOM      4  N   UNL     1      34.937 -15.987 -20.243  0.00  0.00    -0.236 NA
ATOM      5  N   UNL     1      35.475 -18.370 -20.769  0.00  0.00    -0.307 N 
ATOM      6  C   UNL     1      34.749 -17.048 -22.445  0.00  0.00    +0.165 C 
ATOM      7  C   UNL     1      34.295 -15.859 -23.036  0.00  0.00    +0.135 C 
ATOM      8  C   UNL     1      35.057 -17.110 -21.105  0.00  0.00    +0.125 C 
ATOM      9  C   UNL     1      34.512 -14.887 -20.813  0.00  0.00    +0.226 C 
ATOM     10  C   UNL     1      33.742 -13.734 -22.905  0.00  0.00    +0.089 C 
ATOM     11  C   UNL     1      33.600 -14.229 -24.186  0.00  0.00    +0.116 C 
ATOM     12  C   UNL     1      35.416 -19.052 -21.899  0.00  0.00    +0.163 C 
ATOM     13  H   UNL     1      34.853 -18.575 -23.884  0.00  0.00    +0.126 HD
ATOM     14  H   UNL     1      35.757 -18.695 -19.884  0.00  0.00    +0.149 HD
ENDROOT
TORSDOF 0
ENDMDL
MODEL 7
REMARK VINA RESULT:      -6.5      6.759      8.796
REMARK  Name = 104994
REMARK  0 active torsions:
REMARK  status: ('A' for Active; 'I' for Inactive)
REMARK                            x       y       z     vdW  Elec       q    Type
REMARK                         _______ _______ _______ _____ _____    ______ ____
ROOT
ATOM      1  N   UNL     1      36.480 -23.943 -13.332  0.00  0.00    -0.251 N 
ATOM      2  N   UNL     1      39.385 -26.160 -13.528  0.00  0.00    -0.270 NA
ATOM      3  N   UNL     1      36.812 -25.495 -11.757  0.00  0.00    -0.230 NA
ATOM      4  N   UNL     1      37.819 -23.478 -15.253  0.00  0.00    -0.236 NA
ATOM      5  N   UNL     1      39.805 -24.990 -15.391  0.00  0.00    -0.307 N 
ATOM      6  C   UNL     1      38.391 -25.245 -13.654  0.00  0.00    +0.165 C 
ATOM      7  C   UNL     1      37.265 -24.966 -12.864  0.00  0.00    +0.135 C 
ATOM      8  C   UNL     1      38.657 -24.532 -14.800  0.00  0.00    +0.125 C 
ATOM      9  C   UNL     1      36.775 -23.232 -14.503  0.00  0.00    +0.226 C 
ATOM     10  C   UNL     1      35.441 -23.806 -12.455  0.00  0.00    +0.089 C 
ATOM     11  C   UNL     1      35.668 -24.772 -11.496  0.00  0.00    +0.116 C 
ATOM     12  C   UNL     1      40.217 -25.967 -14.605  0.00  0.00    +0.163 C 
ATOM     13  H   UNL     1      39.488 -26.826 -12.811  0.00  0.00    +0.126 HD
ATOM     14  H   UNL     1      40.227 -24.665 -16.219  0.00  0.00    +0.149 HD
ENDROOT
TORSDOF 0
ENDMDL
MODEL 8
REMARK VINA RESULT:      -6.5      1.208      2.683
REMARK  Name = 104994
REMARK  0 active torsions:
REMARK  status: ('A' for Active; 'I' for Inactive)
REMARK                            x       y       z     vdW  Elec       q    Type
REMARK                         _______ _______ _______ _____ _____    ______ ____
ROOT
ATOM      1  N   UNL     1      34.921 -20.722 -20.130  0.00  0.00    -0.251 N 
ATOM      2  N   UNL     1      32.309 -22.411 -18.202  0.00  0.00    -0.270 NA
ATOM      3  N   UNL     1      32.767 -20.331 -20.583  0.00  0.00    -0.230 NA
ATOM      4  N   UNL     1      35.843 -22.170 -18.470  0.00  0.00    -0.236 NA
ATOM      5  N   UNL     1      34.063 -23.326 -17.151  0.00  0.00    -0.307 N 
ATOM      6  C   UNL     1      33.427 -21.904 -18.781  0.00  0.00    +0.165 C 
ATOM      7  C   UNL     1      33.610 -20.989 -19.828  0.00  0.00    +0.135 C 
ATOM      8  C   UNL     1      34.498 -22.471 -18.129  0.00  0.00    +0.125 C 
ATOM      9  C   UNL     1      35.994 -21.314 -19.449  0.00  0.00    +0.226 C 
ATOM     10  C   UNL     1      34.918 -19.823 -21.158  0.00  0.00    +0.089 C 
ATOM     11  C   UNL     1      33.581 -19.600 -21.419  0.00  0.00    +0.116 C 
ATOM     12  C   UNL     1      32.745 -23.269 -17.221  0.00  0.00    +0.163 C 
ATOM     13  H   UNL     1      31.376 -22.207 -18.438  0.00  0.00    +0.126 HD
ATOM     14  H   UNL     1      34.610 -23.865 -16.535  0.00  0.00    +0.149 HD
ENDROOT
TORSDOF 0
ENDMDL
MODEL 9
REMARK VINA RESULT:      -6.4      4.579      6.447
REMARK  Name = 104994
REMARK  0 active torsions:
REMARK  status: ('A' for Active; 'I' for Inactive)
REMARK                            x       y       z     vdW  Elec       q    Type
REMARK                         _______ _______ _______ _____ _____    ______ ____
ROOT
ATOM      1  N   UNL     1      33.660 -15.030 -24.544  0.00  0.00    -0.251 N 
ATOM      2  N   UNL     1      35.462 -16.997 -22.039  0.00  0.00    -0.270 NA
ATOM      3  N   UNL     1      33.911 -14.237 -22.469  0.00  0.00    -0.230 NA
ATOM      4  N   UNL     1      34.438 -17.102 -25.439  0.00  0.00    -0.236 NA
ATOM      5  N   UNL     1      35.669 -18.449 -23.731  0.00  0.00    -0.307 N 
ATOM      6  C   UNL     1      34.839 -16.447 -23.112  0.00  0.00    +0.165 C 
ATOM      7  C   UNL     1      34.162 -15.230 -23.284  0.00  0.00    +0.135 C 
ATOM      8  C   UNL     1      34.972 -17.345 -24.146  0.00  0.00    +0.125 C 
ATOM      9  C   UNL     1      33.809 -15.962 -25.580  0.00  0.00    +0.226 C 
ATOM     10  C   UNL     1      33.039 -13.813 -24.537  0.00  0.00    +0.089 C 
ATOM     11  C   UNL     1      33.207 -13.346 -23.248  0.00  0.00    +0.116 C 
ATOM     12  C   UNL     1      35.948 -18.210 -22.463  0.00  0.00    +0.163 C 
ATOM     13  H   UNL     1      35.546 -16.606 -21.140  0.00  0.00    +0.126 HD
ATOM     14  H   UNL     1      35.907 -19.244 -24.261  0.00  0.00    +0.149 HD
ENDROOT
TORSDOF 0
ENDMDL
