MODEL 1
REMARK VINA RESULT:     -12.1      0.000      0.000
REMARK  Name = 42628063
REMARK  6 active torsions:
REMARK  status: ('A' for Active; 'I' for Inactive)
REMARK    1  A    between atoms: C_1  and  N_3
REMARK    2  A    between atoms: C_1  and  C_21
REMARK    3  A    between atoms: C_4  and  N_10
REMARK    4  A    between atoms: C_11  and  C_15
REMARK    5  A    between atoms: N_20  and  C_24
REMARK    6  A    between atoms: C_27  and  N_31
REMARK                            x       y       z     vdW  Elec       q    Type
REMARK                         _______ _______ _______ _____ _____    ______ ____
ROOT
ATOM      1  C   UNL     1      33.398 -13.503 -25.151  0.00  0.00    +0.010 C 
ENDROOT
BRANCH   1   3
ATOM      2  F   UNL     1      36.193 -10.013 -24.920  0.00  0.00    -0.238 F 
ATOM      3  N   UNL     1      34.087 -12.298 -24.713  0.00  0.00    +0.396 N 
ATOM      4  C   UNL     1      34.054 -10.107 -23.960  0.00  0.00    +0.082 C 
ATOM      5  C   UNL     1      34.879 -10.151 -25.242  0.00  0.00    +0.156 C 
ATOM      6  C   UNL     1      33.198 -11.365 -24.020  0.00  0.00    -0.054 C 
ATOM      7  C   UNL     1      34.649 -11.536 -25.833  0.00  0.00    -0.039 C 
ATOM      8  H   UNL     1      34.820 -12.644 -24.095  0.00  0.00    -0.079 HD
BRANCH   4  10
ATOM      9  O   UNL     1      34.977  -7.490 -23.224  0.00  0.00    -0.270 OA
ATOM     10  N   UNL     1      33.257  -8.916 -23.847  0.00  0.00    -0.302 N 
ATOM     11  C   UNL     1      33.793  -7.686 -23.482  0.00  0.00    +0.252 C 
ATOM     12  H   UNL     1      32.293  -8.974 -24.035  0.00  0.00    +0.150 HD
BRANCH  11  15
ATOM     13 CL   UNL     1      30.615  -3.331 -24.718  0.00  0.00    -0.075 Cl
ATOM     14  S   UNL     1      32.518  -5.608 -24.777  0.00  0.00    -0.071 S 
ATOM     15  C   UNL     1      32.832  -6.556 -23.386  0.00  0.00    +0.084 C 
ATOM     16  C   UNL     1      32.110  -6.128 -22.294  0.00  0.00    +0.012 C 
ATOM     17  C   UNL     1      31.289  -5.005 -22.602  0.00  0.00    +0.019 C 
ATOM     18  C   UNL     1      31.414  -4.619 -23.920  0.00  0.00    +0.087 C 
ENDBRANCH  11  15
ENDBRANCH   4  10
ENDBRANCH   1   3
BRANCH   1  21
ATOM     19  O   UNL     1      32.481 -14.297 -23.066  0.00  0.00    -0.277 OA
ATOM     20  N   UNL     1      34.172 -15.524 -24.137  0.00  0.00    -0.284 N 
ATOM     21  C   UNL     1      33.277 -14.468 -23.984  0.00  0.00    +0.205 C 
ATOM     22  H   UNL     1      34.736 -15.503 -24.943  0.00  0.00    +0.155 HD
BRANCH  20  24
ATOM     23  F   UNL     1      34.431 -18.123 -25.111  0.00  0.00    -0.203 F 
ATOM     24  C   UNL     1      34.365 -16.624 -23.268  0.00  0.00    +0.078 C 
ATOM     25  C   UNL     1      34.491 -17.914 -23.788  0.00  0.00    +0.155 C 
ATOM     26  C   UNL     1      34.429 -16.419 -21.890  0.00  0.00    +0.018 C 
ATOM     27  C   UNL     1      34.745 -18.791 -21.552  0.00  0.00    +0.061 C 
ATOM     28  C   UNL     1      34.681 -18.996 -22.930  0.00  0.00    +0.046 C 
ATOM     29  C   UNL     1      34.619 -17.502 -21.032  0.00  0.00    +0.017 C 
BRANCH  27  31
ATOM     30  O   UNL     1      32.644 -20.468 -20.486  0.00  0.00    -0.269 OA
ATOM     31  N   UNL     1      34.943 -19.916 -20.660  0.00  0.00    -0.233 N 
ATOM     32  C   UNL     1      33.822 -20.638 -20.173  0.00  0.00    +0.257 C 
ATOM     33  C   UNL     1      36.231 -20.312 -20.291  0.00  0.00    +0.072 C 
ATOM     34  C   UNL     1      34.112 -21.755 -19.221  0.00  0.00    +0.059 C 
ATOM     35  C   UNL     1      36.466 -21.335 -19.464  0.00  0.00    +0.017 C 
ATOM     36  C   UNL     1      35.371 -22.073 -18.909  0.00  0.00    +0.006 C 
ENDBRANCH  27  31
ENDBRANCH  20  24
ENDBRANCH   1  21
TORSDOF 6
ENDMDL
MODEL 2
REMARK VINA RESULT:     -11.4      5.118     11.631
REMARK  Name = 42628063
REMARK  6 active torsions:
REMARK  status: ('A' for Active; 'I' for Inactive)
REMARK    1  A    between atoms: C_1  and  N_3
REMARK    2  A    between atoms: C_1  and  C_21
REMARK    3  A    between atoms: C_4  and  N_10
REMARK    4  A    between atoms: C_11  and  C_15
REMARK    5  A    between atoms: N_20  and  C_24
REMARK    6  A    between atoms: C_27  and  N_31
REMARK                            x       y       z     vdW  Elec       q    Type
REMARK                         _______ _______ _______ _____ _____    ______ ____
ROOT
ATOM      1  C   UNL     1      33.875 -15.604 -24.496  0.00  0.00    +0.010 C 
ENDROOT
BRANCH   1   3
ATOM      2  F   UNL     1      34.820 -14.826 -20.190  0.00  0.00    -0.238 F 
ATOM      3  N   UNL     1      34.502 -15.626 -23.183  0.00  0.00    +0.396 N 
ATOM      4  C   UNL     1      35.362 -16.782 -21.369  0.00  0.00    +0.082 C 
ATOM      5  C   UNL     1      34.253 -15.865 -20.860  0.00  0.00    +0.156 C 
ATOM      6  C   UNL     1      35.072 -16.933 -22.857  0.00  0.00    -0.054 C 
ATOM      7  C   UNL     1      33.550 -15.338 -22.104  0.00  0.00    -0.039 C 
ATOM      8  H   UNL     1      35.224 -14.909 -23.243  0.00  0.00    -0.079 HD
BRANCH   4  10
ATOM      9  O   UNL     1      33.830 -19.118 -22.032  0.00  0.00    -0.270 OA
ATOM     10  N   UNL     1      35.395 -18.050 -20.693  0.00  0.00    -0.302 N 
ATOM     11  C   UNL     1      34.613 -19.131 -21.087  0.00  0.00    +0.252 C 
ATOM     12  H   UNL     1      35.995 -18.158 -19.921  0.00  0.00    +0.150 HD
BRANCH  11  15
ATOM     13 CL   UNL     1      33.456 -23.616 -18.064  0.00  0.00    -0.075 Cl
ATOM     14  S   UNL     1      33.329 -21.142 -19.700  0.00  0.00    -0.071 S 
ATOM     15  C   UNL     1      34.745 -20.365 -20.269  0.00  0.00    +0.084 C 
ATOM     16  C   UNL     1      35.889 -21.022 -19.877  0.00  0.00    +0.012 C 
ATOM     17  C   UNL     1      35.601 -22.179 -19.096  0.00  0.00    +0.019 C 
ATOM     18  C   UNL     1      34.246 -22.362 -18.924  0.00  0.00    +0.087 C 
ENDBRANCH  11  15
ENDBRANCH   4  10
ENDBRANCH   1   3
BRANCH   1  21
ATOM     19  O   UNL     1      32.547 -13.996 -25.710  0.00  0.00    -0.277 OA
ATOM     20  N   UNL     1      33.618 -13.359 -23.720  0.00  0.00    -0.284 N 
ATOM     21  C   UNL     1      33.258 -14.237 -24.740  0.00  0.00    +0.205 C 
ATOM     22  H   UNL     1      34.195 -13.725 -23.013  0.00  0.00    +0.155 HD
BRANCH  20  24
ATOM     23  F   UNL     1      31.557 -12.573 -22.014  0.00  0.00    -0.203 F 
ATOM     24  C   UNL     1      33.248 -12.000 -23.583  0.00  0.00    +0.078 C 
ATOM     25  C   UNL     1      32.212 -11.639 -22.720  0.00  0.00    +0.155 C 
ATOM     26  C   UNL     1      33.920 -11.018 -24.311  0.00  0.00    +0.018 C 
ATOM     27  C   UNL     1      32.523  -9.319 -23.314  0.00  0.00    +0.061 C 
ATOM     28  C   UNL     1      31.849 -10.300 -22.586  0.00  0.00    +0.046 C 
ATOM     29  C   UNL     1      33.558  -9.678 -24.176  0.00  0.00    +0.017 C 
BRANCH  27  31
ATOM     30  O   UNL     1      33.090  -7.655 -21.017  0.00  0.00    -0.269 OA
ATOM     31  N   UNL     1      32.146  -7.926 -23.175  0.00  0.00    -0.233 N 
ATOM     32  C   UNL     1      32.449  -7.227 -21.977  0.00  0.00    +0.257 C 
ATOM     33  C   UNL     1      31.505  -7.256 -24.220  0.00  0.00    +0.072 C 
ATOM     34  C   UNL     1      31.984  -5.808 -21.898  0.00  0.00    +0.059 C 
ATOM     35  C   UNL     1      31.129  -5.976 -24.137  0.00  0.00    +0.017 C 
ATOM     36  C   UNL     1      31.371  -5.235 -22.936  0.00  0.00    +0.006 C 
ENDBRANCH  27  31
ENDBRANCH  20  24
ENDBRANCH   1  21
TORSDOF 6
ENDMDL
MODEL 3
REMARK VINA RESULT:     -11.4      4.888      8.478
REMARK  Name = 42628063
REMARK  6 active torsions:
REMARK  status: ('A' for Active; 'I' for Inactive)
REMARK    1  A    between atoms: C_1  and  N_3
REMARK    2  A    between atoms: C_1  and  C_21
REMARK    3  A    between atoms: C_4  and  N_10
REMARK    4  A    between atoms: C_11  and  C_15
REMARK    5  A    between atoms: N_20  and  C_24
REMARK    6  A    between atoms: C_27  and  N_31
REMARK                            x       y       z     vdW  Elec       q    Type
REMARK                         _______ _______ _______ _____ _____    ______ ____
ROOT
ATOM      1  C   UNL     1      33.107 -20.934 -20.453  0.00  0.00    +0.010 C 
ENDROOT
BRANCH   1   3
ATOM      2  F   UNL     1      36.859 -18.595 -21.158  0.00  0.00    -0.238 F 
ATOM      3  N   UNL     1      34.067 -19.848 -20.576  0.00  0.00    +0.396 N 
ATOM      4  C   UNL     1      34.676 -17.766 -21.393  0.00  0.00    +0.082 C 
ATOM      5  C   UNL     1      35.713 -18.780 -21.867  0.00  0.00    +0.156 C 
ATOM      6  C   UNL     1      33.453 -18.610 -21.057  0.00  0.00    -0.054 C 
ATOM      7  C   UNL     1      35.133 -20.149 -21.538  0.00  0.00    -0.039 C 
ATOM      8  H   UNL     1      34.439 -19.738 -19.633  0.00  0.00    -0.079 HD
BRANCH   4  10
ATOM      9  O   UNL     1      34.547 -14.931 -20.960  0.00  0.00    -0.270 OA
ATOM     10  N   UNL     1      34.385 -16.761 -22.377  0.00  0.00    -0.302 N 
ATOM     11  C   UNL     1      34.344 -15.404 -22.075  0.00  0.00    +0.252 C 
ATOM     12  H   UNL     1      34.208 -17.043 -23.303  0.00  0.00    +0.150 HD
BRANCH  11  15
ATOM     13 CL   UNL     1      32.973 -13.448 -27.063  0.00  0.00    -0.075 Cl
ATOM     14  S   UNL     1      33.671 -15.159 -24.740  0.00  0.00    -0.071 S 
ATOM     15  C   UNL     1      34.004 -14.493 -23.198  0.00  0.00    +0.084 C 
ATOM     16  C   UNL     1      33.905 -13.119 -23.196  0.00  0.00    +0.012 C 
ATOM     17  C   UNL     1      33.554 -12.605 -24.478  0.00  0.00    +0.019 C 
ATOM     18  C   UNL     1      33.395 -13.607 -25.411  0.00  0.00    +0.087 C 
ENDBRANCH  11  15
ENDBRANCH   4  10
ENDBRANCH   1   3
BRANCH   1  21
ATOM     19  O   UNL     1      32.363 -22.060 -18.453  0.00  0.00    -0.277 OA
ATOM     20  N   UNL     1      34.657 -21.697 -18.801  0.00  0.00    -0.284 N 
ATOM     21  C   UNL     1      33.302 -21.631 -19.116  0.00  0.00    +0.205 C 
ATOM     22  H   UNL     1      35.276 -21.303 -19.456  0.00  0.00    +0.155 HD
BRANCH  20  24
ATOM     23  F   UNL     1      37.293 -21.142 -18.086  0.00  0.00    -0.203 F 
ATOM     24  C   UNL     1      35.247 -22.267 -17.648  0.00  0.00    +0.078 C 
ATOM     25  C   UNL     1      36.570 -21.969 -17.317  0.00  0.00    +0.155 C 
ATOM     26  C   UNL     1      34.505 -23.129 -16.840  0.00  0.00    +0.018 C 
ATOM     27  C   UNL     1      36.406 -23.392 -15.373  0.00  0.00    +0.061 C 
ATOM     28  C   UNL     1      37.149 -22.531 -16.180  0.00  0.00    +0.046 C 
ATOM     29  C   UNL     1      35.084 -23.692 -15.703  0.00  0.00    +0.017 C 
BRANCH  27  31
ATOM     30  O   UNL     1      37.570 -26.036 -15.224  0.00  0.00    -0.269 OA
ATOM     31  N   UNL     1      37.008 -23.978 -14.191  0.00  0.00    -0.233 N 
ATOM     32  C   UNL     1      37.511 -25.304 -14.236  0.00  0.00    +0.257 C 
ATOM     33  C   UNL     1      37.119 -23.238 -13.011  0.00  0.00    +0.072 C 
ATOM     34  C   UNL     1      38.073 -25.847 -12.960  0.00  0.00    +0.059 C 
ATOM     35  C   UNL     1      37.656 -23.735 -11.892  0.00  0.00    +0.017 C 
ATOM     36  C   UNL     1      38.140 -25.082 -11.868  0.00  0.00    +0.006 C 
ENDBRANCH  27  31
ENDBRANCH  20  24
ENDBRANCH   1  21
TORSDOF 6
ENDMDL
MODEL 4
REMARK VINA RESULT:     -11.3      7.241     13.754
REMARK  Name = 42628063
REMARK  6 active torsions:
REMARK  status: ('A' for Active; 'I' for Inactive)
REMARK    1  A    between atoms: C_1  and  N_3
REMARK    2  A    between atoms: C_1  and  C_21
REMARK    3  A    between atoms: C_4  and  N_10
REMARK    4  A    between atoms: C_11  and  C_15
REMARK    5  A    between atoms: N_20  and  C_24
REMARK    6  A    between atoms: C_27  and  N_31
REMARK                            x       y       z     vdW  Elec       q    Type
REMARK                         _______ _______ _______ _____ _____    ______ ____
ROOT
ATOM      1  C   UNL     1      35.403 -21.203 -20.456  0.00  0.00    +0.010 C 
ENDROOT
BRANCH   1   3
ATOM      2  F   UNL     1      33.109 -22.688 -16.910  0.00  0.00    -0.238 F 
ATOM      3  N   UNL     1      34.988 -21.506 -19.095  0.00  0.00    +0.396 N 
ATOM      4  C   UNL     1      35.430 -22.349 -16.982  0.00  0.00    +0.082 C 
ATOM      5  C   UNL     1      34.234 -23.106 -17.550  0.00  0.00    +0.156 C 
ATOM      6  C   UNL     1      36.122 -21.765 -18.207  0.00  0.00    -0.054 C 
ATOM      7  C   UNL     1      34.154 -22.710 -19.018  0.00  0.00    -0.039 C 
ATOM      8  H   UNL     1      34.470 -20.677 -18.805  0.00  0.00    -0.079 HD
BRANCH   4  10
ATOM      9  O   UNL     1      35.080 -23.145 -14.246  0.00  0.00    -0.270 OA
ATOM     10  N   UNL     1      36.309 -23.185 -16.213  0.00  0.00    -0.302 N 
ATOM     11  C   UNL     1      36.058 -23.520 -14.886  0.00  0.00    +0.252 C 
ATOM     12  H   UNL     1      37.122 -23.536 -16.642  0.00  0.00    +0.150 HD
BRANCH  11  15
ATOM     13 CL   UNL     1      40.691 -26.334 -13.786  0.00  0.00    -0.075 Cl
ATOM     14  S   UNL     1      38.571 -24.654 -15.010  0.00  0.00    -0.071 S 
ATOM     15  C   UNL     1      37.077 -24.374 -14.222  0.00  0.00    +0.084 C 
ATOM     16  C   UNL     1      37.007 -25.010 -13.003  0.00  0.00    +0.012 C 
ATOM     17  C   UNL     1      38.196 -25.739 -12.711  0.00  0.00    +0.019 C 
ATOM     18  C   UNL     1      39.130 -25.630 -13.719  0.00  0.00    +0.087 C 
ENDBRANCH  11  15
ENDBRANCH   4  10
ENDBRANCH   1   3
BRANCH   1  21
ATOM     19  O   UNL     1      33.490 -19.739 -20.589  0.00  0.00    -0.277 OA
ATOM     20  N   UNL     1      35.400 -19.281 -21.876  0.00  0.00    -0.284 N 
ATOM     21  C   UNL     1      34.629 -19.999 -20.965  0.00  0.00    +0.205 C 
ATOM     22  H   UNL     1      36.300 -19.634 -22.057  0.00  0.00    +0.155 HD
BRANCH  20  24
ATOM     23  F   UNL     1      35.174 -16.830 -20.567  0.00  0.00    -0.203 F 
ATOM     24  C   UNL     1      35.039 -18.102 -22.570  0.00  0.00    +0.078 C 
ATOM     25  C   UNL     1      34.935 -16.890 -21.886  0.00  0.00    +0.155 C 
ATOM     26  C   UNL     1      34.787 -18.151 -23.941  0.00  0.00    +0.018 C 
ATOM     27  C   UNL     1      34.329 -15.779 -23.943  0.00  0.00    +0.061 C 
ATOM     28  C   UNL     1      34.580 -15.729 -22.572  0.00  0.00    +0.046 C 
ATOM     29  C   UNL     1      34.433 -16.990 -24.627  0.00  0.00    +0.017 C 
BRANCH  27  31
ATOM     30  O   UNL     1      33.281 -15.685 -26.637  0.00  0.00    -0.269 OA
ATOM     31  N   UNL     1      33.959 -14.572 -24.657  0.00  0.00    -0.233 N 
ATOM     32  C   UNL     1      33.493 -14.656 -25.995  0.00  0.00    +0.257 C 
ATOM     33  C   UNL     1      34.037 -13.326 -24.031  0.00  0.00    +0.072 C 
ATOM     34  C   UNL     1      33.178 -13.361 -26.673  0.00  0.00    +0.059 C 
ATOM     35  C   UNL     1      33.718 -12.184 -24.648  0.00  0.00    +0.017 C 
ATOM     36  C   UNL     1      33.282 -12.205 -26.012  0.00  0.00    +0.006 C 
ENDBRANCH  27  31
ENDBRANCH  20  24
ENDBRANCH   1  21
TORSDOF 6
ENDMDL
MODEL 5
REMARK VINA RESULT:     -11.1      4.300      7.739
REMARK  Name = 42628063
REMARK  6 active torsions:
REMARK  status: ('A' for Active; 'I' for Inactive)
REMARK    1  A    between atoms: C_1  and  N_3
REMARK    2  A    between atoms: C_1  and  C_21
REMARK    3  A    between atoms: C_4  and  N_10
REMARK    4  A    between atoms: C_11  and  C_15
REMARK    5  A    between atoms: N_20  and  C_24
REMARK    6  A    between atoms: C_27  and  N_31
REMARK                            x       y       z     vdW  Elec       q    Type
REMARK                         _______ _______ _______ _____ _____    ______ ____
ROOT
ATOM      1  C   UNL     1      33.310 -20.392 -21.146  0.00  0.00    +0.010 C 
ENDROOT
BRANCH   1   3
ATOM      2  F   UNL     1      36.834 -17.995 -22.516  0.00  0.00    -0.238 F 
ATOM      3  N   UNL     1      34.329 -19.361 -21.267  0.00  0.00    +0.396 N 
ATOM      4  C   UNL     1      34.948 -17.133 -21.418  0.00  0.00    +0.082 C 
ATOM      5  C   UNL     1      35.488 -17.856 -22.648  0.00  0.00    +0.156 C 
ATOM      6  C   UNL     1      33.826 -18.032 -20.915  0.00  0.00    -0.054 C 
ATOM      7  C   UNL     1      34.836 -19.232 -22.637  0.00  0.00    -0.039 C 
ATOM      8  H   UNL     1      35.063 -19.663 -20.626  0.00  0.00    -0.079 HD
BRANCH   4  10
ATOM      9  O   UNL     1      33.847 -16.203 -23.901  0.00  0.00    -0.270 OA
ATOM     10  N   UNL     1      34.486 -15.803 -21.707  0.00  0.00    -0.302 N 
ATOM     11  C   UNL     1      33.965 -15.441 -22.944  0.00  0.00    +0.252 C 
ATOM     12  H   UNL     1      34.540 -15.121 -21.000  0.00  0.00    +0.150 HD
BRANCH  11  15
ATOM     13 CL   UNL     1      31.490 -10.551 -22.200  0.00  0.00    -0.075 Cl
ATOM     14  S   UNL     1      32.390 -13.374 -22.015  0.00  0.00    -0.071 S 
ATOM     15  C   UNL     1      33.554 -14.021 -23.091  0.00  0.00    +0.084 C 
ATOM     16  C   UNL     1      33.987 -13.088 -24.007  0.00  0.00    +0.012 C 
ATOM     17  C   UNL     1      33.354 -11.824 -23.824  0.00  0.00    +0.019 C 
ATOM     18  C   UNL     1      32.462 -11.841 -22.774  0.00  0.00    +0.087 C 
ENDBRANCH  11  15
ENDBRANCH   4  10
ENDBRANCH   1   3
BRANCH   1  21
ATOM     19  O   UNL     1      32.342 -20.929 -19.002  0.00  0.00    -0.277 OA
ATOM     20  N   UNL     1      34.580 -21.484 -19.441  0.00  0.00    -0.284 N 
ATOM     21  C   UNL     1      33.326 -20.955 -19.735  0.00  0.00    +0.205 C 
ATOM     22  H   UNL     1      35.255 -21.424 -20.155  0.00  0.00    +0.155 HD
BRANCH  20  24
ATOM     23  F   UNL     1      37.122 -21.044 -18.384  0.00  0.00    -0.203 F 
ATOM     24  C   UNL     1      34.997 -22.098 -18.237  0.00  0.00    +0.078 C 
ATOM     25  C   UNL     1      36.277 -21.858 -17.734  0.00  0.00    +0.155 C 
ATOM     26  C   UNL     1      34.128 -22.946 -17.551  0.00  0.00    +0.018 C 
ATOM     27  C   UNL     1      35.815 -23.311 -15.861  0.00  0.00    +0.061 C 
ATOM     28  C   UNL     1      36.685 -22.463 -16.547  0.00  0.00    +0.046 C 
ATOM     29  C   UNL     1      34.536 -23.552 -16.363  0.00  0.00    +0.017 C 
BRANCH  27  31
ATOM     30  O   UNL     1      36.635 -26.071 -15.589  0.00  0.00    -0.269 OA
ATOM     31  N   UNL     1      36.240 -23.941 -14.626  0.00  0.00    -0.233 N 
ATOM     32  C   UNL     1      36.581 -25.319 -14.616  0.00  0.00    +0.257 C 
ATOM     33  C   UNL     1      36.338 -23.198 -13.447  0.00  0.00    +0.072 C 
ATOM     34  C   UNL     1      36.963 -25.901 -13.292  0.00  0.00    +0.059 C 
ATOM     35  C   UNL     1      36.714 -23.734 -12.282  0.00  0.00    +0.017 C 
ATOM     36  C   UNL     1      37.029 -25.129 -12.204  0.00  0.00    +0.006 C 
ENDBRANCH  27  31
ENDBRANCH  20  24
ENDBRANCH   1  21
TORSDOF 6
ENDMDL
MODEL 6
REMARK VINA RESULT:     -11.1      4.929     11.816
REMARK  Name = 42628063
REMARK  6 active torsions:
REMARK  status: ('A' for Active; 'I' for Inactive)
REMARK    1  A    between atoms: C_1  and  N_3
REMARK    2  A    between atoms: C_1  and  C_21
REMARK    3  A    between atoms: C_4  and  N_10
REMARK    4  A    between atoms: C_11  and  C_15
REMARK    5  A    between atoms: N_20  and  C_24
REMARK    6  A    between atoms: C_27  and  N_31
REMARK                            x       y       z     vdW  Elec       q    Type
REMARK                         _______ _______ _______ _____ _____    ______ ____
ROOT
ATOM      1  C   UNL     1      34.245 -14.355 -24.468  0.00  0.00    +0.010 C 
ENDROOT
BRANCH   1   3
ATOM      2  F   UNL     1      32.871 -14.434 -20.208  0.00  0.00    -0.238 F 
ATOM      3  N   UNL     1      34.201 -14.519 -23.023  0.00  0.00    +0.396 N 
ATOM      4  C   UNL     1      34.559 -15.788 -21.117  0.00  0.00    +0.082 C 
ATOM      5  C   UNL     1      33.086 -15.392 -21.149  0.00  0.00    +0.156 C 
ATOM      6  C   UNL     1      35.020 -15.641 -22.562  0.00  0.00    -0.054 C 
ATOM      7  C   UNL     1      32.848 -14.801 -22.533  0.00  0.00    -0.039 C 
ATOM      8  H   UNL     1      34.549 -13.631 -22.663  0.00  0.00    -0.079 HD
BRANCH   4  10
ATOM      9  O   UNL     1      34.290 -18.239 -22.587  0.00  0.00    -0.270 OA
ATOM     10  N   UNL     1      34.772 -17.117 -20.615  0.00  0.00    -0.302 N 
ATOM     11  C   UNL     1      34.617 -18.252 -21.404  0.00  0.00    +0.252 C 
ATOM     12  H   UNL     1      35.038 -17.229 -19.674  0.00  0.00    +0.150 HD
BRANCH  11  15
ATOM     13 CL   UNL     1      33.836 -23.086 -18.833  0.00  0.00    -0.075 Cl
ATOM     14  S   UNL     1      33.505 -20.466 -20.189  0.00  0.00    -0.071 S 
ATOM     15  C   UNL     1      34.850 -19.555 -20.729  0.00  0.00    +0.084 C 
ATOM     16  C   UNL     1      36.044 -20.183 -20.455  0.00  0.00    +0.012 C 
ATOM     17  C   UNL     1      35.853 -21.430 -19.791  0.00  0.00    +0.019 C 
ATOM     18  C   UNL     1      34.519 -21.706 -19.584  0.00  0.00    +0.087 C 
ENDBRANCH  11  15
ENDBRANCH   4  10
ENDBRANCH   1   3
BRANCH   1  21
ATOM     19  O   UNL     1      33.276 -12.717 -25.951  0.00  0.00    -0.277 OA
ATOM     20  N   UNL     1      33.810 -12.119 -23.745  0.00  0.00    -0.284 N 
ATOM     21  C   UNL     1      33.717 -12.979 -24.837  0.00  0.00    +0.205 C 
ATOM     22  H   UNL     1      34.187 -12.502 -22.921  0.00  0.00    +0.155 HD
BRANCH  20  24
ATOM     23  F   UNL     1      35.542 -10.075 -24.515  0.00  0.00    -0.203 F 
ATOM     24  C   UNL     1      33.424 -10.759 -23.683  0.00  0.00    +0.078 C 
ATOM     25  C   UNL     1      34.315  -9.759 -24.076  0.00  0.00    +0.155 C 
ATOM     26  C   UNL     1      32.151 -10.417 -23.227  0.00  0.00    +0.018 C 
ATOM     27  C   UNL     1      32.659  -8.079 -23.559  0.00  0.00    +0.061 C 
ATOM     28  C   UNL     1      33.933  -8.420 -24.014  0.00  0.00    +0.046 C 
ATOM     29  C   UNL     1      31.768  -9.077 -23.166  0.00  0.00    +0.017 C 
BRANCH  27  31
ATOM     30  O   UNL     1      32.131  -6.602 -21.129  0.00  0.00    -0.269 OA
ATOM     31  N   UNL     1      32.261  -6.686 -23.494  0.00  0.00    -0.233 N 
ATOM     32  C   UNL     1      31.992  -6.085 -22.237  0.00  0.00    +0.257 C 
ATOM     33  C   UNL     1      32.161  -5.922 -24.659  0.00  0.00    +0.072 C 
ATOM     34  C   UNL     1      31.542  -4.658 -22.264  0.00  0.00    +0.059 C 
ATOM     35  C   UNL     1      31.789  -4.638 -24.654  0.00  0.00    +0.017 C 
ATOM     36  C   UNL     1      31.464  -3.992 -23.418  0.00  0.00    +0.006 C 
ENDBRANCH  27  31
ENDBRANCH  20  24
ENDBRANCH   1  21
TORSDOF 6
ENDMDL
MODEL 7
REMARK VINA RESULT:     -11.0      2.909      4.978
REMARK  Name = 42628063
REMARK  6 active torsions:
REMARK  status: ('A' for Active; 'I' for Inactive)
REMARK    1  A    between atoms: C_1  and  N_3
REMARK    2  A    between atoms: C_1  and  C_21
REMARK    3  A    between atoms: C_4  and  N_10
REMARK    4  A    between atoms: C_11  and  C_15
REMARK    5  A    between atoms: N_20  and  C_24
REMARK    6  A    between atoms: C_27  and  N_31
REMARK                            x       y       z     vdW  Elec       q    Type
REMARK                         _______ _______ _______ _____ _____    ______ ____
ROOT
ATOM      1  C   UNL     1      35.147 -17.858 -23.908  0.00  0.00    +0.010 C 
ENDROOT
BRANCH   1   3
ATOM      2  F   UNL     1      32.253 -15.304 -21.640  0.00  0.00    -0.238 F 
ATOM      3  N   UNL     1      34.154 -16.852 -23.560  0.00  0.00    +0.396 N 
ATOM      4  C   UNL     1      33.390 -14.665 -23.591  0.00  0.00    +0.082 C 
ATOM      5  C   UNL     1      33.504 -15.104 -22.134  0.00  0.00    +0.156 C 
ATOM      6  C   UNL     1      34.301 -15.626 -24.345  0.00  0.00    -0.054 C 
ATOM      7  C   UNL     1      34.253 -16.429 -22.159  0.00  0.00    -0.039 C 
ATOM      8  H   UNL     1      33.263 -17.311 -23.748  0.00  0.00    -0.079 HD
BRANCH   4  10
ATOM      9  O   UNL     1      31.942 -12.344 -22.720  0.00  0.00    -0.270 OA
ATOM     10  N   UNL     1      33.766 -13.293 -23.794  0.00  0.00    -0.302 N 
ATOM     11  C   UNL     1      32.999 -12.228 -23.335  0.00  0.00    +0.252 C 
ATOM     12  H   UNL     1      34.601 -13.099 -24.277  0.00  0.00    +0.150 HD
BRANCH  11  15
ATOM     13 CL   UNL     1      33.554  -6.735 -23.666  0.00  0.00    -0.075 Cl
ATOM     14  S   UNL     1      32.631  -9.502 -23.113  0.00  0.00    -0.071 S 
ATOM     15  C   UNL     1      33.512 -10.869 -23.647  0.00  0.00    +0.084 C 
ATOM     16  C   UNL     1      34.651 -10.514 -24.335  0.00  0.00    +0.012 C 
ATOM     17  C   UNL     1      34.802  -9.100 -24.427  0.00  0.00    +0.019 C 
ATOM     18  C   UNL     1      33.773  -8.429 -23.803  0.00  0.00    +0.087 C 
ENDBRANCH  11  15
ENDBRANCH   4  10
ENDBRANCH   1   3
BRANCH   1  21
ATOM     19  O   UNL     1      36.778 -18.309 -22.189  0.00  0.00    -0.277 OA
ATOM     20  N   UNL     1      34.683 -19.364 -22.113  0.00  0.00    -0.284 N 
ATOM     21  C   UNL     1      35.658 -18.523 -22.641  0.00  0.00    +0.205 C 
ATOM     22  H   UNL     1      33.834 -19.412 -22.608  0.00  0.00    +0.155 HD
BRANCH  20  24
ATOM     23  F   UNL     1      32.402 -20.219 -20.757  0.00  0.00    -0.203 F 
ATOM     24  C   UNL     1      34.770 -20.159 -20.945  0.00  0.00    +0.078 C 
ATOM     25  C   UNL     1      33.609 -20.571 -20.289  0.00  0.00    +0.155 C 
ATOM     26  C   UNL     1      36.019 -20.531 -20.449  0.00  0.00    +0.018 C 
ATOM     27  C   UNL     1      34.946 -21.726 -18.644  0.00  0.00    +0.061 C 
ATOM     28  C   UNL     1      33.697 -21.354 -19.139  0.00  0.00    +0.046 C 
ATOM     29  C   UNL     1      36.107 -21.315 -19.298  0.00  0.00    +0.017 C 
BRANCH  27  31
ATOM     30  O   UNL     1      37.212 -21.809 -16.848  0.00  0.00    -0.269 OA
ATOM     31  N   UNL     1      35.039 -22.541 -17.447  0.00  0.00    -0.233 N 
ATOM     32  C   UNL     1      36.225 -22.522 -16.669  0.00  0.00    +0.257 C 
ATOM     33  C   UNL     1      33.960 -23.329 -17.041  0.00  0.00    +0.072 C 
ATOM     34  C   UNL     1      36.254 -23.426 -15.477  0.00  0.00    +0.059 C 
ATOM     35  C   UNL     1      33.998 -24.105 -15.953  0.00  0.00    +0.017 C 
ATOM     36  C   UNL     1      35.185 -24.157 -15.153  0.00  0.00    +0.006 C 
ENDBRANCH  27  31
ENDBRANCH  20  24
ENDBRANCH   1  21
TORSDOF 6
ENDMDL
MODEL 8
REMARK VINA RESULT:     -11.0      5.303     12.581
REMARK  Name = 42628063
REMARK  6 active torsions:
REMARK  status: ('A' for Active; 'I' for Inactive)
REMARK    1  A    between atoms: C_1  and  N_3
REMARK    2  A    between atoms: C_1  and  C_21
REMARK    3  A    between atoms: C_4  and  N_10
REMARK    4  A    between atoms: C_11  and  C_15
REMARK    5  A    between atoms: N_20  and  C_24
REMARK    6  A    between atoms: C_27  and  N_31
REMARK                            x       y       z     vdW  Elec       q    Type
REMARK                         _______ _______ _______ _____ _____    ______ ____
ROOT
ATOM      1  C   UNL     1      32.266 -13.403 -21.255  0.00  0.00    +0.010 C 
ENDROOT
BRANCH   1   3
ATOM      2  F   UNL     1      35.329 -15.883 -23.378  0.00  0.00    -0.238 F 
ATOM      3  N   UNL     1      32.958 -14.510 -21.898  0.00  0.00    +0.396 N 
ATOM      4  C   UNL     1      33.699 -16.706 -21.903  0.00  0.00    +0.082 C 
ATOM      5  C   UNL     1      34.913 -15.799 -22.086  0.00  0.00    +0.156 C 
ATOM      6  C   UNL     1      32.643 -15.800 -21.283  0.00  0.00    -0.054 C 
ATOM      7  C   UNL     1      34.417 -14.386 -21.809  0.00  0.00    -0.039 C 
ATOM      8  H   UNL     1      32.640 -14.471 -22.865  0.00  0.00    -0.079 HD
BRANCH   4  10
ATOM      9  O   UNL     1      34.651 -19.262 -22.798  0.00  0.00    -0.270 OA
ATOM     10  N   UNL     1      33.976 -17.853 -21.084  0.00  0.00    -0.302 N 
ATOM     11  C   UNL     1      34.436 -19.057 -21.607  0.00  0.00    +0.252 C 
ATOM     12  H   UNL     1      33.834 -17.785 -20.112  0.00  0.00    +0.150 HD
BRANCH  11  15
ATOM     13 CL   UNL     1      33.586 -23.137 -17.971  0.00  0.00    -0.075 Cl
ATOM     14  S   UNL     1      33.292 -20.925 -19.929  0.00  0.00    -0.071 S 
ATOM     15  C   UNL     1      34.651 -20.156 -20.630  0.00  0.00    +0.084 C 
ATOM     16  C   UNL     1      35.838 -20.686 -20.175  0.00  0.00    +0.012 C 
ATOM     17  C   UNL     1      35.629 -21.738 -19.236  0.00  0.00    +0.019 C 
ATOM     18  C   UNL     1      34.289 -21.971 -19.012  0.00  0.00    +0.087 C 
ENDBRANCH  11  15
ENDBRANCH   4  10
ENDBRANCH   1   3
BRANCH   1  21
ATOM     19  O   UNL     1      32.687 -12.236 -23.324  0.00  0.00    -0.277 OA
ATOM     20  N   UNL     1      31.922 -11.046 -21.450  0.00  0.00    -0.284 N 
ATOM     21  C   UNL     1      32.329 -12.179 -22.152  0.00  0.00    +0.205 C 
ATOM     22  H   UNL     1      31.662 -11.186 -20.512  0.00  0.00    +0.155 HD
BRANCH  20  24
ATOM     23  F   UNL     1      32.836  -8.891 -19.936  0.00  0.00    -0.203 F 
ATOM     24  C   UNL     1      31.841  -9.717 -21.929  0.00  0.00    +0.078 C 
ATOM     25  C   UNL     1      32.307  -8.660 -21.147  0.00  0.00    +0.155 C 
ATOM     26  C   UNL     1      31.292  -9.464 -23.187  0.00  0.00    +0.018 C 
ATOM     27  C   UNL     1      31.678  -7.099 -22.879  0.00  0.00    +0.061 C 
ATOM     28  C   UNL     1      32.226  -7.352 -21.621  0.00  0.00    +0.046 C 
ATOM     29  C   UNL     1      31.211  -8.155 -23.661  0.00  0.00    +0.017 C 
BRANCH  27  31
ATOM     30  O   UNL     1      30.405  -4.897 -21.501  0.00  0.00    -0.269 OA
ATOM     31  N   UNL     1      31.593  -5.738 -23.372  0.00  0.00    -0.233 N 
ATOM     32  C   UNL     1      30.904  -4.753 -22.617  0.00  0.00    +0.257 C 
ATOM     33  C   UNL     1      32.203  -5.381 -24.577  0.00  0.00    +0.072 C 
ATOM     34  C   UNL     1      30.824  -3.387 -23.220  0.00  0.00    +0.059 C 
ATOM     35  C   UNL     1      32.146  -4.144 -25.080  0.00  0.00    +0.017 C 
ATOM     36  C   UNL     1      31.428  -3.120 -24.381  0.00  0.00    +0.006 C 
ENDBRANCH  27  31
ENDBRANCH  20  24
ENDBRANCH   1  21
TORSDOF 6
ENDMDL
MODEL 9
REMARK VINA RESULT:     -11.0      1.623      1.861
REMARK  Name = 42628063
REMARK  6 active torsions:
REMARK  status: ('A' for Active; 'I' for Inactive)
REMARK    1  A    between atoms: C_1  and  N_3
REMARK    2  A    between atoms: C_1  and  C_21
REMARK    3  A    between atoms: C_4  and  N_10
REMARK    4  A    between atoms: C_11  and  C_15
REMARK    5  A    between atoms: N_20  and  C_24
REMARK    6  A    between atoms: C_27  and  N_31
REMARK                            x       y       z     vdW  Elec       q    Type
REMARK                         _______ _______ _______ _____ _____    ______ ____
ROOT
ATOM      1  C   UNL     1      33.092 -13.302 -26.056  0.00  0.00    +0.010 C 
ENDROOT
BRANCH   1   3
ATOM      2  F   UNL     1      36.517 -10.440 -25.709  0.00  0.00    -0.238 F 
ATOM      3  N   UNL     1      34.076 -12.366 -25.533  0.00  0.00    +0.396 N 
ATOM      4  C   UNL     1      34.622 -10.466 -24.325  0.00  0.00    +0.082 C 
ATOM      5  C   UNL     1      35.165 -10.296 -25.741  0.00  0.00    +0.156 C 
ATOM      6  C   UNL     1      33.537 -11.526 -24.463  0.00  0.00    -0.054 C 
ATOM      7  C   UNL     1      34.557 -11.430 -26.555  0.00  0.00    -0.039 C 
ATOM      8  H   UNL     1      34.829 -12.964 -25.193  0.00  0.00    -0.079 HD
BRANCH   4  10
ATOM      9  O   UNL     1      32.061 -10.080 -23.086  0.00  0.00    -0.270 OA
ATOM     10  N   UNL     1      34.114  -9.242 -23.769  0.00  0.00    -0.302 N 
ATOM     11  C   UNL     1      32.855  -9.148 -23.186  0.00  0.00    +0.252 C 
ATOM     12  H   UNL     1      34.679  -8.438 -23.802  0.00  0.00    +0.150 HD
BRANCH  11  15
ATOM     13 CL   UNL     1      31.097  -3.911 -22.902  0.00  0.00    -0.075 Cl
ATOM     14  S   UNL     1      31.909  -6.626 -23.788  0.00  0.00    -0.071 S 
ATOM     15  C   UNL     1      32.466  -7.806 -22.679  0.00  0.00    +0.084 C 
ATOM     16  C   UNL     1      32.482  -7.335 -21.386  0.00  0.00    +0.012 C 
ATOM     17  C   UNL     1      32.032  -5.985 -21.302  0.00  0.00    +0.019 C 
ATOM     18  C   UNL     1      31.688  -5.478 -22.537  0.00  0.00    +0.087 C 
ENDBRANCH  11  15
ENDBRANCH   4  10
ENDBRANCH   1   3
BRANCH   1  21
ATOM     19  O   UNL     1      33.557 -15.645 -26.396  0.00  0.00    -0.277 OA
ATOM     20  N   UNL     1      33.621 -14.748 -24.227  0.00  0.00    -0.284 N 
ATOM     21  C   UNL     1      33.446 -14.711 -25.609  0.00  0.00    +0.205 C 
ATOM     22  H   UNL     1      33.497 -13.896 -23.750  0.00  0.00    +0.155 HD
BRANCH  20  24
ATOM     23  F   UNL     1      32.878 -14.903 -21.545  0.00  0.00    -0.203 F 
ATOM     24  C   UNL     1      33.956 -15.868 -23.430  0.00  0.00    +0.078 C 
ATOM     25  C   UNL     1      33.569 -15.915 -22.090  0.00  0.00    +0.155 C 
ATOM     26  C   UNL     1      34.675 -16.927 -23.985  0.00  0.00    +0.018 C 
ATOM     27  C   UNL     1      34.618 -18.079 -21.863  0.00  0.00    +0.061 C 
ATOM     28  C   UNL     1      33.900 -17.020 -21.307  0.00  0.00    +0.046 C 
ATOM     29  C   UNL     1      35.006 -18.032 -23.202  0.00  0.00    +0.017 C 
BRANCH  27  31
ATOM     30  O   UNL     1      32.744 -20.039 -20.859  0.00  0.00    -0.269 OA
ATOM     31  N   UNL     1      34.963 -19.228 -21.048  0.00  0.00    -0.233 N 
ATOM     32  C   UNL     1      33.942 -20.097 -20.583  0.00  0.00    +0.257 C 
ATOM     33  C   UNL     1      36.296 -19.500 -20.734  0.00  0.00    +0.072 C 
ATOM     34  C   UNL     1      34.379 -21.231 -19.711  0.00  0.00    +0.059 C 
ATOM     35  C   UNL     1      36.665 -20.540 -19.979  0.00  0.00    +0.017 C 
ATOM     36  C   UNL     1      35.674 -21.426 -19.448  0.00  0.00    +0.006 C 
ENDBRANCH  27  31
ENDBRANCH  20  24
ENDBRANCH   1  21
TORSDOF 6
ENDMDL
