MODEL 1
REMARK VINA RESULT:      -6.2      0.000      0.000
REMARK  Name = 4478249
REMARK  3 active torsions:
REMARK  status: ('A' for Active; 'I' for Inactive)
REMARK    1  A    between atoms: N_2  and  C_8
REMARK    2  A    between atoms: C_8  and  C_9
REMARK    3  A    between atoms: C_9  and  S_10
REMARK                            x       y       z     vdW  Elec       q    Type
REMARK                         _______ _______ _______ _____ _____    ______ ____
ROOT
ATOM      1  O   UNL     1      35.367 -23.802 -16.178  0.00  0.00    -0.358 OA
ATOM      2  N   UNL     1      37.171 -24.298 -14.046  0.00  0.00    +0.392 N 
ATOM      3  C   UNL     1      36.131 -25.318 -14.448  0.00  0.00    -0.045 C 
ATOM      4  C   UNL     1      37.566 -23.443 -15.228  0.00  0.00    -0.045 C 
ATOM      5  C   UNL     1      34.950 -24.579 -15.054  0.00  0.00    +0.119 C 
ATOM      6  C   UNL     1      36.310 -22.802 -15.794  0.00  0.00    +0.119 C 
ATOM      7  H   UNL     1      36.752 -23.686 -13.347  0.00  0.00    -0.079 HD
ENDROOT
BRANCH   2   8
ATOM      8  C   UNL     1      38.361 -24.935 -13.387  0.00  0.00    -0.051 C 
BRANCH   8   9
ATOM      9  C   UNL     1      38.893 -26.064 -14.247  0.00  0.00    +0.135 C 
BRANCH   9  10
ATOM     10  S   UNL     1      40.608 -25.888 -14.623  0.00  0.00    +0.020 S 
ATOM     11  O   UNL     1      40.651 -26.060 -16.075  0.00  0.00    -0.070 OA
ATOM     12  O   UNL     1      40.917 -24.539 -14.151  0.00  0.00    -0.070 OA
ATOM     13  O   UNL     1      41.229 -26.967 -13.856  0.00  0.00    -0.070 OA
ENDBRANCH   9  10
ENDBRANCH   8   9
ENDBRANCH   2   8
TORSDOF 3
ENDMDL
MODEL 2
REMARK VINA RESULT:      -6.2      1.829      2.330
REMARK  Name = 4478249
REMARK  3 active torsions:
REMARK  status: ('A' for Active; 'I' for Inactive)
REMARK    1  A    between atoms: N_2  and  C_8
REMARK    2  A    between atoms: C_8  and  C_9
REMARK    3  A    between atoms: C_9  and  S_10
REMARK                            x       y       z     vdW  Elec       q    Type
REMARK                         _______ _______ _______ _____ _____    ______ ____
ROOT
ATOM      1  O   UNL     1      34.968 -24.728 -11.684  0.00  0.00    -0.358 OA
ATOM      2  N   UNL     1      37.007 -24.458 -13.638  0.00  0.00    +0.392 N 
ATOM      3  C   UNL     1      37.298 -25.042 -12.276  0.00  0.00    -0.045 C 
ATOM      4  C   UNL     1      35.569 -24.707 -14.032  0.00  0.00    -0.045 C 
ATOM      5  C   UNL     1      36.311 -24.449 -11.283  0.00  0.00    +0.119 C 
ATOM      6  C   UNL     1      34.672 -24.132 -12.947  0.00  0.00    +0.119 C 
ATOM      7  H   UNL     1      37.142 -23.449 -13.578  0.00  0.00    -0.079 HD
ENDROOT
BRANCH   2   8
ATOM      8  C   UNL     1      37.971 -24.949 -14.680  0.00  0.00    -0.051 C 
BRANCH   8   9
ATOM      9  C   UNL     1      38.862 -26.028 -14.100  0.00  0.00    +0.135 C 
BRANCH   9  10
ATOM     10  S   UNL     1      40.551 -25.854 -14.582  0.00  0.00    +0.020 S 
ATOM     11  O   UNL     1      40.499 -26.003 -16.037  0.00  0.00    -0.070 OA
ATOM     12  O   UNL     1      40.896 -24.513 -14.111  0.00  0.00    -0.070 OA
ATOM     13  O   UNL     1      41.214 -26.947 -13.873  0.00  0.00    -0.070 OA
ENDBRANCH   9  10
ENDBRANCH   8   9
ENDBRANCH   2   8
TORSDOF 3
ENDMDL
MODEL 3
REMARK VINA RESULT:      -6.1      3.511      4.621
REMARK  Name = 4478249
REMARK  3 active torsions:
REMARK  status: ('A' for Active; 'I' for Inactive)
REMARK    1  A    between atoms: N_2  and  C_8
REMARK    2  A    between atoms: C_8  and  C_9
REMARK    3  A    between atoms: C_9  and  S_10
REMARK                            x       y       z     vdW  Elec       q    Type
REMARK                         _______ _______ _______ _____ _____    ______ ____
ROOT
ATOM      1  O   UNL     1      38.311 -27.096 -14.690  0.00  0.00    -0.358 OA
ATOM      2  N   UNL     1      37.360 -24.448 -14.328  0.00  0.00    +0.392 N 
ATOM      3  C   UNL     1      36.408 -25.603 -14.532  0.00  0.00    -0.045 C 
ATOM      4  C   UNL     1      38.641 -24.918 -13.679  0.00  0.00    -0.045 C 
ATOM      5  C   UNL     1      37.120 -26.668 -15.351  0.00  0.00    +0.119 C 
ATOM      6  C   UNL     1      39.237 -26.019 -14.542  0.00  0.00    +0.119 C 
ATOM      7  H   UNL     1      37.596 -24.075 -15.247  0.00  0.00    -0.079 HD
ENDROOT
BRANCH   2   8
ATOM      8  C   UNL     1      36.723 -23.320 -13.568  0.00  0.00    -0.051 C 
BRANCH   8   9
ATOM      9  C   UNL     1      37.107 -23.393 -12.104  0.00  0.00    +0.135 C 
BRANCH   9  10
ATOM     10  S   UNL     1      35.938 -24.293 -11.135  0.00  0.00    +0.020 S 
ATOM     11  O   UNL     1      34.650 -23.848 -11.668  0.00  0.00    -0.070 OA
ATOM     12  O   UNL     1      36.274 -25.688 -11.416  0.00  0.00    -0.070 OA
ATOM     13  O   UNL     1      36.226 -23.851  -9.771  0.00  0.00    -0.070 OA
ENDBRANCH   9  10
ENDBRANCH   8   9
ENDBRANCH   2   8
TORSDOF 3
ENDMDL
MODEL 4
REMARK VINA RESULT:      -6.1      3.545      4.122
REMARK  Name = 4478249
REMARK  3 active torsions:
REMARK  status: ('A' for Active; 'I' for Inactive)
REMARK    1  A    between atoms: N_2  and  C_8
REMARK    2  A    between atoms: C_8  and  C_9
REMARK    3  A    between atoms: C_9  and  S_10
REMARK                            x       y       z     vdW  Elec       q    Type
REMARK                         _______ _______ _______ _____ _____    ______ ____
ROOT
ATOM      1  O   UNL     1      35.580 -22.797 -17.270  0.00  0.00    -0.358 OA
ATOM      2  N   UNL     1      36.623 -23.140 -14.655  0.00  0.00    +0.392 N 
ATOM      3  C   UNL     1      35.424 -23.926 -15.131  0.00  0.00    -0.045 C 
ATOM      4  C   UNL     1      37.517 -22.772 -15.815  0.00  0.00    -0.045 C 
ATOM      5  C   UNL     1      34.702 -23.102 -16.185  0.00  0.00    +0.119 C 
ATOM      6  C   UNL     1      36.687 -22.008 -16.834  0.00  0.00    +0.119 C 
ATOM      7  H   UNL     1      36.280 -22.274 -14.240  0.00  0.00    -0.079 HD
ENDROOT
BRANCH   2   8
ATOM      8  C   UNL     1      37.373 -23.858 -13.569  0.00  0.00    -0.051 C 
BRANCH   8   9
ATOM      9  C   UNL     1      37.005 -23.286 -12.215  0.00  0.00    +0.135 C 
BRANCH   9  10
ATOM     10  S   UNL     1      35.939 -24.346 -11.290  0.00  0.00    +0.020 S 
ATOM     11  O   UNL     1      36.240 -23.993  -9.903  0.00  0.00    -0.070 OA
ATOM     12  O   UNL     1      34.606 -23.962 -11.750  0.00  0.00    -0.070 OA
ATOM     13  O   UNL     1      36.369 -25.684 -11.693  0.00  0.00    -0.070 OA
ENDBRANCH   9  10
ENDBRANCH   8   9
ENDBRANCH   2   8
TORSDOF 3
ENDMDL
MODEL 5
REMARK VINA RESULT:      -6.1      1.850      2.686
REMARK  Name = 4478249
REMARK  3 active torsions:
REMARK  status: ('A' for Active; 'I' for Inactive)
REMARK    1  A    between atoms: N_2  and  C_8
REMARK    2  A    between atoms: C_8  and  C_9
REMARK    3  A    between atoms: C_9  and  S_10
REMARK                            x       y       z     vdW  Elec       q    Type
REMARK                         _______ _______ _______ _____ _____    ______ ____
ROOT
ATOM      1  O   UNL     1      34.644 -23.804 -12.320  0.00  0.00    -0.358 OA
ATOM      2  N   UNL     1      36.166 -25.519 -13.990  0.00  0.00    +0.392 N 
ATOM      3  C   UNL     1      35.115 -24.597 -14.562  0.00  0.00    -0.045 C 
ATOM      4  C   UNL     1      36.743 -24.948 -12.715  0.00  0.00    -0.045 C 
ATOM      5  C   UNL     1      34.057 -24.363 -13.497  0.00  0.00    +0.119 C 
ATOM      6  C   UNL     1      35.599 -24.695 -11.746  0.00  0.00    +0.119 C 
ATOM      7  H   UNL     1      35.711 -26.401 -13.757  0.00  0.00    -0.079 HD
ENDROOT
BRANCH   2   8
ATOM      8  C   UNL     1      37.233 -25.850 -14.994  0.00  0.00    -0.051 C 
BRANCH   8   9
ATOM      9  C   UNL     1      38.550 -26.111 -14.291  0.00  0.00    +0.135 C 
BRANCH   9  10
ATOM     10  S   UNL     1      39.876 -25.147 -14.943  0.00  0.00    +0.020 S 
ATOM     11  O   UNL     1      40.698 -24.869 -13.765  0.00  0.00    -0.070 OA
ATOM     12  O   UNL     1      40.488 -26.041 -15.925  0.00  0.00    -0.070 OA
ATOM     13  O   UNL     1      39.196 -23.982 -15.508  0.00  0.00    -0.070 OA
ENDBRANCH   9  10
ENDBRANCH   8   9
ENDBRANCH   2   8
TORSDOF 3
ENDMDL
MODEL 6
REMARK VINA RESULT:      -6.0      3.446      3.963
REMARK  Name = 4478249
REMARK  3 active torsions:
REMARK  status: ('A' for Active; 'I' for Inactive)
REMARK    1  A    between atoms: N_2  and  C_8
REMARK    2  A    between atoms: C_8  and  C_9
REMARK    3  A    between atoms: C_9  and  S_10
REMARK                            x       y       z     vdW  Elec       q    Type
REMARK                         _______ _______ _______ _____ _____    ______ ____
ROOT
ATOM      1  O   UNL     1      35.641 -23.166 -16.674  0.00  0.00    -0.358 OA
ATOM      2  N   UNL     1      36.726 -23.974 -14.181  0.00  0.00    +0.392 N 
ATOM      3  C   UNL     1      35.653 -24.785 -14.870  0.00  0.00    -0.045 C 
ATOM      4  C   UNL     1      37.556 -23.217 -15.191  0.00  0.00    -0.045 C 
ATOM      5  C   UNL     1      34.818 -23.843 -15.722  0.00  0.00    +0.119 C 
ATOM      6  C   UNL     1      36.622 -22.356 -16.027  0.00  0.00    +0.119 C 
ATOM      7  H   UNL     1      36.262 -23.290 -13.584  0.00  0.00    -0.079 HD
ENDROOT
BRANCH   2   8
ATOM      8  C   UNL     1      37.573 -24.818 -13.272  0.00  0.00    -0.051 C 
BRANCH   8   9
ATOM      9  C   UNL     1      36.781 -25.222 -12.045  0.00  0.00    +0.135 C 
BRANCH   9  10
ATOM     10  S   UNL     1      36.140 -23.838 -11.158  0.00  0.00    +0.020 S 
ATOM     11  O   UNL     1      37.171 -22.816 -11.343  0.00  0.00    -0.070 OA
ATOM     12  O   UNL     1      34.873 -23.565 -11.834  0.00  0.00    -0.070 OA
ATOM     13  O   UNL     1      36.014 -24.346  -9.793  0.00  0.00    -0.070 OA
ENDBRANCH   9  10
ENDBRANCH   8   9
ENDBRANCH   2   8
TORSDOF 3
ENDMDL
MODEL 7
REMARK VINA RESULT:      -5.9      6.243      9.090
REMARK  Name = 4478249
REMARK  3 active torsions:
REMARK  status: ('A' for Active; 'I' for Inactive)
REMARK    1  A    between atoms: N_2  and  C_8
REMARK    2  A    between atoms: C_8  and  C_9
REMARK    3  A    between atoms: C_9  and  S_10
REMARK                            x       y       z     vdW  Elec       q    Type
REMARK                         _______ _______ _______ _____ _____    ______ ____
ROOT
ATOM      1  O   UNL     1      34.480 -23.363 -16.525  0.00  0.00    -0.358 OA
ATOM      2  N   UNL     1      31.754 -23.538 -15.761  0.00  0.00    +0.392 N 
ATOM      3  C   UNL     1      32.856 -23.474 -14.729  0.00  0.00    -0.045 C 
ATOM      4  C   UNL     1      32.170 -22.837 -17.033  0.00  0.00    -0.045 C 
ATOM      5  C   UNL     1      34.114 -24.070 -15.338  0.00  0.00    +0.119 C 
ATOM      6  C   UNL     1      33.465 -23.466 -17.522  0.00  0.00    +0.119 C 
ATOM      7  H   UNL     1      31.596 -24.520 -15.985  0.00  0.00    -0.079 HD
ENDROOT
BRANCH   2   8
ATOM      8  C   UNL     1      30.451 -23.015 -15.228  0.00  0.00    -0.051 C 
BRANCH   8   9
ATOM      9  C   UNL     1      29.319 -23.947 -15.610  0.00  0.00    +0.135 C 
BRANCH   9  10
ATOM     10  S   UNL     1      28.071 -23.150 -16.571  0.00  0.00    +0.020 S 
ATOM     11  O   UNL     1      27.717 -24.164 -17.564  0.00  0.00    -0.070 OA
ATOM     12  O   UNL     1      27.028 -22.858 -15.588  0.00  0.00    -0.070 OA
ATOM     13  O   UNL     1      28.761 -21.977 -17.106  0.00  0.00    -0.070 OA
ENDBRANCH   9  10
ENDBRANCH   8   9
ENDBRANCH   2   8
TORSDOF 3
ENDMDL
MODEL 8
REMARK VINA RESULT:      -5.8      8.124     10.413
REMARK  Name = 4478249
REMARK  3 active torsions:
REMARK  status: ('A' for Active; 'I' for Inactive)
REMARK    1  A    between atoms: N_2  and  C_8
REMARK    2  A    between atoms: C_8  and  C_9
REMARK    3  A    between atoms: C_9  and  S_10
REMARK                            x       y       z     vdW  Elec       q    Type
REMARK                         _______ _______ _______ _____ _____    ______ ____
ROOT
ATOM      1  O   UNL     1      34.294 -21.860 -19.730  0.00  0.00    -0.358 OA
ATOM      2  N   UNL     1      35.242 -19.327 -20.585  0.00  0.00    +0.392 N 
ATOM      3  C   UNL     1      36.190 -20.476 -20.333  0.00  0.00    -0.045 C 
ATOM      4  C   UNL     1      33.881 -19.836 -20.997  0.00  0.00    -0.045 C 
ATOM      5  C   UNL     1      35.568 -21.386 -19.288  0.00  0.00    +0.119 C 
ATOM      6  C   UNL     1      33.378 -20.781 -19.917  0.00  0.00    +0.119 C 
ATOM      7  H   UNL     1      35.131 -18.819 -19.708  0.00  0.00    -0.079 HD
ENDROOT
BRANCH   2   8
ATOM      8  C   UNL     1      35.799 -18.341 -21.572  0.00  0.00    -0.051 C 
BRANCH   8   9
ATOM      9  C   UNL     1      34.676 -17.550 -22.211  0.00  0.00    +0.135 C 
BRANCH   9  10
ATOM     10  S   UNL     1      34.393 -15.999 -21.417  0.00  0.00    +0.020 S 
ATOM     11  O   UNL     1      32.936 -15.947 -21.297  0.00  0.00    -0.070 OA
ATOM     12  O   UNL     1      35.112 -16.137 -20.151  0.00  0.00    -0.070 OA
ATOM     13  O   UNL     1      34.970 -15.036 -22.353  0.00  0.00    -0.070 OA
ENDBRANCH   9  10
ENDBRANCH   8   9
ENDBRANCH   2   8
TORSDOF 3
ENDMDL
MODEL 9
REMARK VINA RESULT:      -5.7      2.368      3.082
REMARK  Name = 4478249
REMARK  3 active torsions:
REMARK  status: ('A' for Active; 'I' for Inactive)
REMARK    1  A    between atoms: N_2  and  C_8
REMARK    2  A    between atoms: C_8  and  C_9
REMARK    3  A    between atoms: C_9  and  S_10
REMARK                            x       y       z     vdW  Elec       q    Type
REMARK                         _______ _______ _______ _____ _____    ______ ____
ROOT
ATOM      1  O   UNL     1      32.890 -23.400 -15.332  0.00  0.00    -0.358 OA
ATOM      2  N   UNL     1      35.571 -24.008 -14.633  0.00  0.00    +0.392 N 
ATOM      3  C   UNL     1      35.250 -23.029 -15.738  0.00  0.00    -0.045 C 
ATOM      4  C   UNL     1      34.465 -24.035 -13.604  0.00  0.00    -0.045 C 
ATOM      5  C   UNL     1      33.906 -23.409 -16.336  0.00  0.00    +0.119 C 
ATOM      6  C   UNL     1      33.161 -24.363 -14.314  0.00  0.00    +0.119 C 
ATOM      7  H   UNL     1      35.630 -24.937 -15.050  0.00  0.00    -0.079 HD
ENDROOT
BRANCH   2   8
ATOM      8  C   UNL     1      36.913 -23.741 -14.014  0.00  0.00    -0.051 C 
BRANCH   8   9
ATOM      9  C   UNL     1      37.974 -24.594 -14.678  0.00  0.00    +0.135 C 
BRANCH   9  10
ATOM     10  S   UNL     1      37.629 -26.322 -14.572  0.00  0.00    +0.020 S 
ATOM     11  O   UNL     1      38.941 -26.937 -14.774  0.00  0.00    -0.070 OA
ATOM     12  O   UNL     1      37.079 -26.471 -13.226  0.00  0.00    -0.070 OA
ATOM     13  O   UNL     1      36.674 -26.538 -15.657  0.00  0.00    -0.070 OA
ENDBRANCH   9  10
ENDBRANCH   8   9
ENDBRANCH   2   8
TORSDOF 3
ENDMDL
