MODEL 1
REMARK VINA RESULT:     -10.0      0.000      0.000
REMARK  Name = 4766
REMARK  4 active torsions:
REMARK  status: ('A' for Active; 'I' for Inactive)
REMARK    1  A    between atoms: C_5  and  C_12
REMARK    2  A    between atoms: C_5  and  C_20
REMARK    3  A    between atoms: C_17  and  O_18
REMARK    4  A    between atoms: C_25  and  O_26
REMARK                            x       y       z     vdW  Elec       q    Type
REMARK                         _______ _______ _______ _____ _____    ______ ____
ROOT
ATOM      1  S   UNL     1      36.244 -23.441 -12.742  0.00  0.00    +0.013 S 
ATOM      2  O   UNL     1      35.275 -22.774 -13.886  0.00  0.00    -0.231 OA
ATOM      3  O   UNL     1      35.450 -23.775 -11.580  0.00  0.00    -0.067 OA
ATOM      4  O   UNL     1      37.481 -22.694 -12.671  0.00  0.00    -0.067 OA
ATOM      5  C   UNL     1      34.934 -23.662 -15.005  0.00  0.00    +0.176 C 
ATOM      6  C   UNL     1      35.816 -24.897 -14.801  0.00  0.00    +0.030 C 
ATOM      7  C   UNL     1      36.549 -24.902 -13.615  0.00  0.00    +0.109 C 
ATOM      8  C   UNL     1      35.966 -25.979 -15.661  0.00  0.00    -0.000 C 
ATOM      9  C   UNL     1      37.413 -25.907 -13.234  0.00  0.00    +0.019 C 
ATOM     10  C   UNL     1      36.830 -27.024 -15.308  0.00  0.00    -0.000 C 
ATOM     11  C   UNL     1      37.547 -26.987 -14.101  0.00  0.00    +0.001 C 
ENDROOT
BRANCH   5  12
ATOM     12  C   UNL     1      33.424 -23.876 -14.826  0.00  0.00    +0.012 C 
ATOM     13  C   UNL     1      32.956 -24.825 -13.914  0.00  0.00    +0.002 C 
ATOM     14  C   UNL     1      32.516 -23.125 -15.574  0.00  0.00    +0.002 C 
ATOM     15  C   UNL     1      31.585 -25.021 -13.752  0.00  0.00    +0.036 C 
ATOM     16  C   UNL     1      31.145 -23.321 -15.411  0.00  0.00    +0.036 C 
ATOM     17  C   UNL     1      30.679 -24.268 -14.501  0.00  0.00    +0.134 C 
BRANCH  17  18
ATOM     18  O   UNL     1      29.341 -24.459 -14.340  0.00  0.00    -0.506 OA
ATOM     19  H   UNL     1      29.022 -24.959 -13.614  0.00  0.00    +0.292 HD
ENDBRANCH  17  18
ENDBRANCH   5  12
BRANCH   5  20
ATOM     20  C   UNL     1      35.303 -22.956 -16.320  0.00  0.00    +0.012 C 
ATOM     21  C   UNL     1      36.531 -22.305 -16.443  0.00  0.00    +0.002 C 
ATOM     22  C   UNL     1      34.410 -22.965 -17.393  0.00  0.00    +0.002 C 
ATOM     23  C   UNL     1      36.866 -21.664 -17.636  0.00  0.00    +0.036 C 
ATOM     24  C   UNL     1      34.745 -22.324 -18.586  0.00  0.00    +0.036 C 
ATOM     25  C   UNL     1      35.972 -21.673 -18.707  0.00  0.00    +0.134 C 
BRANCH  25  26
ATOM     26  O   UNL     1      36.300 -21.049 -19.871  0.00  0.00    -0.506 OA
ATOM     27  H   UNL     1      37.196 -20.855 -20.062  0.00  0.00    +0.292 HD
ENDBRANCH  25  26
ENDBRANCH   5  20
TORSDOF 4
ENDMDL
MODEL 2
REMARK VINA RESULT:      -9.5      1.927      5.201
REMARK  Name = 4766
REMARK  4 active torsions:
REMARK  status: ('A' for Active; 'I' for Inactive)
REMARK    1  A    between atoms: C_5  and  C_12
REMARK    2  A    between atoms: C_5  and  C_20
REMARK    3  A    between atoms: C_17  and  O_18
REMARK    4  A    between atoms: C_25  and  O_26
REMARK                            x       y       z     vdW  Elec       q    Type
REMARK                         _______ _______ _______ _____ _____    ______ ____
ROOT
ATOM      1  S   UNL     1      36.840 -26.223 -15.001  0.00  0.00    +0.013 S 
ATOM      2  O   UNL     1      35.610 -25.403 -15.712  0.00  0.00    -0.231 OA
ATOM      3  O   UNL     1      38.017 -26.138 -15.838  0.00  0.00    -0.067 OA
ATOM      4  O   UNL     1      36.335 -27.469 -14.466  0.00  0.00    -0.067 OA
ATOM      5  C   UNL     1      35.313 -24.093 -15.119  0.00  0.00    +0.176 C 
ATOM      6  C   UNL     1      36.168 -24.042 -13.849  0.00  0.00    +0.030 C 
ATOM      7  C   UNL     1      37.039 -25.118 -13.688  0.00  0.00    +0.109 C 
ATOM      8  C   UNL     1      36.154 -23.063 -12.861  0.00  0.00    -0.000 C 
ATOM      9  C   UNL     1      37.891 -25.280 -12.615  0.00  0.00    +0.019 C 
ATOM     10  C   UNL     1      37.009 -23.188 -11.758  0.00  0.00    -0.000 C 
ATOM     11  C   UNL     1      37.872 -24.289 -11.638  0.00  0.00    +0.001 C 
ENDROOT
BRANCH   5  12
ATOM     12  C   UNL     1      35.705 -23.113 -16.234  0.00  0.00    +0.012 C 
ATOM     13  C   UNL     1      34.923 -23.017 -17.387  0.00  0.00    +0.002 C 
ATOM     14  C   UNL     1      36.845 -22.319 -16.099  0.00  0.00    +0.002 C 
ATOM     15  C   UNL     1      35.281 -22.128 -18.400  0.00  0.00    +0.036 C 
ATOM     16  C   UNL     1      37.202 -21.430 -17.112  0.00  0.00    +0.036 C 
ATOM     17  C   UNL     1      36.420 -21.334 -18.262  0.00  0.00    +0.134 C 
BRANCH  17  18
ATOM     18  O   UNL     1      36.767 -20.466 -19.252  0.00  0.00    -0.506 OA
ATOM     19  H   UNL     1      36.149 -20.245 -19.920  0.00  0.00    +0.292 HD
ENDBRANCH  17  18
ENDBRANCH   5  12
BRANCH   5  20
ATOM     20  C   UNL     1      33.820 -24.047 -14.757  0.00  0.00    +0.012 C 
ATOM     21  C   UNL     1      33.258 -25.059 -13.976  0.00  0.00    +0.002 C 
ATOM     22  C   UNL     1      33.023 -22.993 -15.208  0.00  0.00    +0.002 C 
ATOM     23  C   UNL     1      31.902 -25.017 -13.648  0.00  0.00    +0.036 C 
ATOM     24  C   UNL     1      31.667 -22.952 -14.880  0.00  0.00    +0.036 C 
ATOM     25  C   UNL     1      31.107 -23.964 -14.101  0.00  0.00    +0.134 C 
BRANCH  25  26
ATOM     26  O   UNL     1      29.786 -23.924 -13.779  0.00  0.00    -0.506 OA
ATOM     27  H   UNL     1      29.149 -24.282 -14.365  0.00  0.00    +0.292 HD
ENDBRANCH  25  26
ENDBRANCH   5  20
TORSDOF 4
ENDMDL
