MODEL 1
REMARK VINA RESULT:      -9.8      0.000      0.000
REMARK  Name = 441048
REMARK  8 active torsions:
REMARK  status: ('A' for Active; 'I' for Inactive)
REMARK    1  A    between atoms: C_3  and  O_14
REMARK    2  A    between atoms: C_4  and  C_11
REMARK    3  A    between atoms: O_14  and  C_15
REMARK    4  A    between atoms: C_15  and  C_16
REMARK    5  A    between atoms: C_16  and  C_17
REMARK    6  A    between atoms: C_17  and  C_18
REMARK    7  A    between atoms: C_18  and  C_19
REMARK    8  A    between atoms: C_19  and  C_22
REMARK                            x       y       z     vdW  Elec       q    Type
REMARK                         _______ _______ _______ _____ _____    ______ ____
ROOT
ATOM      1 CL   UNL     1      34.714 -14.549 -20.627  0.00  0.00    -0.079 Cl
ATOM      2 CL   UNL     1      34.681 -17.340 -25.294  0.00  0.00    -0.079 Cl
ATOM      3  C   UNL     1      34.715 -16.065 -22.889  0.00  0.00    +0.159 C 
ATOM      4  C   UNL     1      35.049 -18.438 -21.470  0.00  0.00    +0.055 C 
ATOM      5  C   UNL     1      34.806 -16.035 -21.500  0.00  0.00    +0.093 C 
ATOM      6  C   UNL     1      34.790 -17.275 -23.573  0.00  0.00    +0.093 C 
ATOM      7  C   UNL     1      34.973 -17.224 -20.789  0.00  0.00    +0.019 C 
ATOM      8  C   UNL     1      34.957 -18.464 -22.862  0.00  0.00    +0.019 C 
ENDROOT
BRANCH   4  11
ATOM      9  O   UNL     1      36.472 -19.880 -20.227  0.00  0.00    -0.458 OA
ATOM     10  N   UNL     1      34.318 -20.592 -20.516  0.00  0.00    -0.234 NA
ATOM     11  C   UNL     1      35.226 -19.691 -20.723  0.00  0.00    +0.220 C 
ATOM     12  C   UNL     1      36.464 -21.216 -19.747  0.00  0.00    +0.233 C 
ATOM     13  C   UNL     1      35.000 -21.575 -19.666  0.00  0.00    +0.176 C 
ENDBRANCH   4  11
BRANCH   3  14
ATOM     14  O   UNL     1      34.551 -14.896 -23.585  0.00  0.00    -0.474 OA
BRANCH  14  15
ATOM     15  C   UNL     1      33.220 -14.536 -23.928  0.00  0.00    +0.205 C 
BRANCH  15  16
ATOM     16  C   UNL     1      32.935 -13.140 -23.393  0.00  0.00    +0.047 C 
BRANCH  16  17
ATOM     17  C   UNL     1      32.226 -13.188 -22.041  0.00  0.00    +0.004 C 
BRANCH  17  18
ATOM     18  C   UNL     1      31.349 -11.953 -21.829  0.00  0.00    +0.008 C 
BRANCH  18  19
ATOM     19  C   UNL     1      31.526 -11.381 -20.419  0.00  0.00    +0.067 C 
BRANCH  19  22
ATOM     20  O   UNL     1      31.988  -9.328 -19.257  0.00  0.00    -0.358 OA
ATOM     21  N   UNL     1      32.217  -7.973 -19.464  0.00  0.00    -0.082 NA
ATOM     22  C   UNL     1      31.793  -9.897 -20.455  0.00  0.00    +0.154 C 
ATOM     23  C   UNL     1      31.875  -9.013 -21.462  0.00  0.00    +0.054 C 
ATOM     24  C   UNL     1      32.144  -7.810 -20.788  0.00  0.00    +0.101 C 
ATOM     25  C   UNL     1      32.341  -6.473 -21.373  0.00  0.00    +0.056 C 
ENDBRANCH  19  22
ENDBRANCH  18  19
ENDBRANCH  17  18
ENDBRANCH  16  17
ENDBRANCH  15  16
ENDBRANCH  14  15
ENDBRANCH   3  14
TORSDOF 8
ENDMDL
MODEL 2
REMARK VINA RESULT:      -9.7      0.117      1.820
REMARK  Name = 441048
REMARK  8 active torsions:
REMARK  status: ('A' for Active; 'I' for Inactive)
REMARK    1  A    between atoms: C_3  and  O_14
REMARK    2  A    between atoms: C_4  and  C_11
REMARK    3  A    between atoms: O_14  and  C_15
REMARK    4  A    between atoms: C_15  and  C_16
REMARK    5  A    between atoms: C_16  and  C_17
REMARK    6  A    between atoms: C_17  and  C_18
REMARK    7  A    between atoms: C_18  and  C_19
REMARK    8  A    between atoms: C_19  and  C_22
REMARK                            x       y       z     vdW  Elec       q    Type
REMARK                         _______ _______ _______ _____ _____    ______ ____
ROOT
ATOM      1 CL   UNL     1      34.644 -17.417 -25.249  0.00  0.00    -0.079 Cl
ATOM      2 CL   UNL     1      34.730 -14.583 -20.608  0.00  0.00    -0.079 Cl
ATOM      3  C   UNL     1      34.699 -16.120 -22.855  0.00  0.00    +0.159 C 
ATOM      4  C   UNL     1      34.963 -18.488 -21.415  0.00  0.00    +0.055 C 
ATOM      5  C   UNL     1      34.745 -17.338 -23.528  0.00  0.00    +0.093 C 
ATOM      6  C   UNL     1      34.784 -16.079 -21.466  0.00  0.00    +0.093 C 
ATOM      7  C   UNL     1      34.877 -18.525 -22.806  0.00  0.00    +0.019 C 
ATOM      8  C   UNL     1      34.917 -17.266 -20.744  0.00  0.00    +0.019 C 
ENDROOT
BRANCH   4  11
ATOM      9  O   UNL     1      36.362 -20.007 -20.236  0.00  0.00    -0.458 OA
ATOM     10  N   UNL     1      34.149 -20.568 -20.366  0.00  0.00    -0.234 NA
ATOM     11  C   UNL     1      35.102 -19.738 -20.653  0.00  0.00    +0.220 C 
ATOM     12  C   UNL     1      36.293 -21.331 -19.727  0.00  0.00    +0.233 C 
ATOM     13  C   UNL     1      34.815 -21.582 -19.542  0.00  0.00    +0.176 C 
ENDBRANCH   4  11
BRANCH   3  14
ATOM     14  O   UNL     1      34.569 -14.956 -23.565  0.00  0.00    -0.474 OA
BRANCH  14  15
ATOM     15  C   UNL     1      33.248 -14.560 -23.911  0.00  0.00    +0.205 C 
BRANCH  15  16
ATOM     16  C   UNL     1      32.979 -13.181 -23.325  0.00  0.00    +0.047 C 
BRANCH  16  17
ATOM     17  C   UNL     1      32.232 -13.268 -21.996  0.00  0.00    +0.004 C 
BRANCH  17  18
ATOM     18  C   UNL     1      31.390 -12.016 -21.749  0.00  0.00    +0.008 C 
BRANCH  18  19
ATOM     19  C   UNL     1      31.656 -11.433 -20.358  0.00  0.00    +0.067 C 
BRANCH  19  22
ATOM     20  O   UNL     1      32.065  -9.351 -19.228  0.00  0.00    -0.358 OA
ATOM     21  N   UNL     1      32.240  -7.991 -19.454  0.00  0.00    -0.082 NA
ATOM     22  C   UNL     1      31.867  -9.941 -20.415  0.00  0.00    +0.154 C 
ATOM     23  C   UNL     1      31.896  -9.066 -21.433  0.00  0.00    +0.054 C 
ATOM     24  C   UNL     1      32.135  -7.846 -20.778  0.00  0.00    +0.101 C 
ATOM     25  C   UNL     1      32.271  -6.510 -21.382  0.00  0.00    +0.056 C 
ENDBRANCH  19  22
ENDBRANCH  18  19
ENDBRANCH  17  18
ENDBRANCH  16  17
ENDBRANCH  15  16
ENDBRANCH  14  15
ENDBRANCH   3  14
TORSDOF 8
ENDMDL
MODEL 3
REMARK VINA RESULT:      -9.6      2.216      2.613
REMARK  Name = 441048
REMARK  8 active torsions:
REMARK  status: ('A' for Active; 'I' for Inactive)
REMARK    1  A    between atoms: C_3  and  O_14
REMARK    2  A    between atoms: C_4  and  C_11
REMARK    3  A    between atoms: O_14  and  C_15
REMARK    4  A    between atoms: C_15  and  C_16
REMARK    5  A    between atoms: C_16  and  C_17
REMARK    6  A    between atoms: C_17  and  C_18
REMARK    7  A    between atoms: C_18  and  C_19
REMARK    8  A    between atoms: C_19  and  C_22
REMARK                            x       y       z     vdW  Elec       q    Type
REMARK                         _______ _______ _______ _____ _____    ______ ____
ROOT
ATOM      1 CL   UNL     1      34.595 -14.722 -20.942  0.00  0.00    -0.079 Cl
ATOM      2 CL   UNL     1      34.703 -17.830 -25.404  0.00  0.00    -0.079 Cl
ATOM      3  C   UNL     1      34.654 -16.393 -23.092  0.00  0.00    +0.159 C 
ATOM      4  C   UNL     1      34.740 -18.674 -21.499  0.00  0.00    +0.055 C 
ATOM      5  C   UNL     1      34.652 -16.269 -21.705  0.00  0.00    +0.093 C 
ATOM      6  C   UNL     1      34.699 -17.650 -23.687  0.00  0.00    +0.093 C 
ATOM      7  C   UNL     1      34.695 -17.413 -20.907  0.00  0.00    +0.019 C 
ATOM      8  C   UNL     1      34.742 -18.794 -22.889  0.00  0.00    +0.019 C 
ENDROOT
BRANCH   4  11
ATOM      9  O   UNL     1      33.606 -20.537 -20.552  0.00  0.00    -0.458 OA
ATOM     10  N   UNL     1      35.826 -20.339 -20.038  0.00  0.00    -0.234 NA
ATOM     11  C   UNL     1      34.786 -19.880 -20.659  0.00  0.00    +0.220 C 
ATOM     12  C   UNL     1      33.834 -21.514 -19.547  0.00  0.00    +0.233 C 
ATOM     13  C   UNL     1      35.338 -21.580 -19.426  0.00  0.00    +0.176 C 
ENDBRANCH   4  11
BRANCH   3  14
ATOM     14  O   UNL     1      34.613 -15.268 -23.875  0.00  0.00    -0.474 OA
BRANCH  14  15
ATOM     15  C   UNL     1      33.334 -14.690 -24.099  0.00  0.00    +0.205 C 
BRANCH  15  16
ATOM     16  C   UNL     1      33.184 -14.387 -25.583  0.00  0.00    +0.047 C 
BRANCH  16  17
ATOM     17  C   UNL     1      33.330 -12.894 -25.871  0.00  0.00    +0.004 C 
BRANCH  17  18
ATOM     18  C   UNL     1      33.759 -12.125 -24.621  0.00  0.00    +0.008 C 
BRANCH  18  19
ATOM     19  C   UNL     1      34.584 -10.888 -24.985  0.00  0.00    +0.067 C 
BRANCH  19  22
ATOM     20  O   UNL     1      35.238  -8.853 -23.885  0.00  0.00    -0.358 OA
ATOM     21  N   UNL     1      34.755  -7.840 -23.065  0.00  0.00    -0.082 NA
ATOM     22  C   UNL     1      34.234  -9.712 -24.107  0.00  0.00    +0.154 C 
ATOM     23  C   UNL     1      33.100  -9.346 -23.489  0.00  0.00    +0.054 C 
ATOM     24  C   UNL     1      33.477  -8.157 -22.843  0.00  0.00    +0.101 C 
ATOM     25  C   UNL     1      32.642  -7.286 -21.999  0.00  0.00    +0.056 C 
ENDBRANCH  19  22
ENDBRANCH  18  19
ENDBRANCH  17  18
ENDBRANCH  16  17
ENDBRANCH  15  16
ENDBRANCH  14  15
ENDBRANCH   3  14
TORSDOF 8
ENDMDL
MODEL 4
REMARK VINA RESULT:      -9.6      4.304      9.640
REMARK  Name = 441048
REMARK  8 active torsions:
REMARK  status: ('A' for Active; 'I' for Inactive)
REMARK    1  A    between atoms: C_3  and  O_14
REMARK    2  A    between atoms: C_4  and  C_11
REMARK    3  A    between atoms: O_14  and  C_15
REMARK    4  A    between atoms: C_15  and  C_16
REMARK    5  A    between atoms: C_16  and  C_17
REMARK    6  A    between atoms: C_17  and  C_18
REMARK    7  A    between atoms: C_18  and  C_19
REMARK    8  A    between atoms: C_19  and  C_22
REMARK                            x       y       z     vdW  Elec       q    Type
REMARK                         _______ _______ _______ _____ _____    ______ ____
ROOT
ATOM      1 CL   UNL     1      34.512 -15.411 -20.503  0.00  0.00    -0.079 Cl
ATOM      2 CL   UNL     1      34.907 -19.389 -24.190  0.00  0.00    -0.079 Cl
ATOM      3  C   UNL     1      34.679 -17.308 -22.450  0.00  0.00    +0.159 C 
ATOM      4  C   UNL     1      34.093 -15.488 -24.474  0.00  0.00    +0.055 C 
ATOM      5  C   UNL     1      34.445 -15.972 -22.133  0.00  0.00    +0.093 C 
ATOM      6  C   UNL     1      34.621 -17.739 -23.772  0.00  0.00    +0.093 C 
ATOM      7  C   UNL     1      34.151 -15.061 -23.148  0.00  0.00    +0.019 C 
ATOM      8  C   UNL     1      34.328 -16.828 -24.786  0.00  0.00    +0.019 C 
ENDROOT
BRANCH   4  11
ATOM      9  O   UNL     1      33.848 -13.228 -25.170  0.00  0.00    -0.458 OA
ATOM     10  N   UNL     1      33.462 -14.822 -26.764  0.00  0.00    -0.234 NA
ATOM     11  C   UNL     1      33.783 -14.529 -25.544  0.00  0.00    +0.220 C 
ATOM     12  C   UNL     1      33.312 -12.515 -26.275  0.00  0.00    +0.233 C 
ATOM     13  C   UNL     1      33.336 -13.511 -27.409  0.00  0.00    +0.176 C 
ENDBRANCH   4  11
BRANCH   3  14
ATOM     14  O   UNL     1      34.967 -18.203 -21.452  0.00  0.00    -0.474 OA
BRANCH  14  15
ATOM     15  C   UNL     1      33.869 -18.906 -20.886  0.00  0.00    +0.205 C 
BRANCH  15  16
ATOM     16  C   UNL     1      34.241 -20.378 -20.761  0.00  0.00    +0.047 C 
BRANCH  16  17
ATOM     17  C   UNL     1      35.598 -20.562 -20.087  0.00  0.00    +0.004 C 
BRANCH  17  18
ATOM     18  C   UNL     1      35.560 -21.694 -19.060  0.00  0.00    +0.008 C 
BRANCH  18  19
ATOM     19  C   UNL     1      34.405 -22.660 -19.340  0.00  0.00    +0.067 C 
BRANCH  19  22
ATOM     20  O   UNL     1      32.254 -22.434 -18.291  0.00  0.00    -0.358 OA
ATOM     21  N   UNL     1      31.584 -22.657 -17.095  0.00  0.00    -0.082 NA
ATOM     22  C   UNL     1      33.523 -22.833 -18.129  0.00  0.00    +0.154 C 
ATOM     23  C   UNL     1      33.757 -23.313 -16.897  0.00  0.00    +0.054 C 
ATOM     24  C   UNL     1      32.501 -23.182 -16.278  0.00  0.00    +0.101 C 
ATOM     25  C   UNL     1      32.133 -23.549 -14.901  0.00  0.00    +0.056 C 
ENDBRANCH  19  22
ENDBRANCH  18  19
ENDBRANCH  17  18
ENDBRANCH  16  17
ENDBRANCH  15  16
ENDBRANCH  14  15
ENDBRANCH   3  14
TORSDOF 8
ENDMDL
MODEL 5
REMARK VINA RESULT:      -9.6      2.057      3.030
REMARK  Name = 441048
REMARK  8 active torsions:
REMARK  status: ('A' for Active; 'I' for Inactive)
REMARK    1  A    between atoms: C_3  and  O_14
REMARK    2  A    between atoms: C_4  and  C_11
REMARK    3  A    between atoms: O_14  and  C_15
REMARK    4  A    between atoms: C_15  and  C_16
REMARK    5  A    between atoms: C_16  and  C_17
REMARK    6  A    between atoms: C_17  and  C_18
REMARK    7  A    between atoms: C_18  and  C_19
REMARK    8  A    between atoms: C_19  and  C_22
REMARK                            x       y       z     vdW  Elec       q    Type
REMARK                         _______ _______ _______ _____ _____    ______ ____
ROOT
ATOM      1 CL   UNL     1      34.604 -17.874 -25.377  0.00  0.00    -0.079 Cl
ATOM      2 CL   UNL     1      34.743 -14.705 -20.960  0.00  0.00    -0.079 Cl
ATOM      3  C   UNL     1      34.681 -16.404 -23.086  0.00  0.00    +0.159 C 
ATOM      4  C   UNL     1      34.854 -18.665 -21.471  0.00  0.00    +0.055 C 
ATOM      5  C   UNL     1      34.693 -17.670 -23.666  0.00  0.00    +0.093 C 
ATOM      6  C   UNL     1      34.756 -16.262 -21.703  0.00  0.00    +0.093 C 
ATOM      7  C   UNL     1      34.779 -18.803 -22.856  0.00  0.00    +0.019 C 
ATOM      8  C   UNL     1      34.842 -17.395 -20.894  0.00  0.00    +0.019 C 
ENDROOT
BRANCH   4  11
ATOM      9  O   UNL     1      36.180 -20.101 -20.116  0.00  0.00    -0.458 OA
ATOM     10  N   UNL     1      33.973 -20.663 -20.322  0.00  0.00    -0.234 NA
ATOM     11  C   UNL     1      34.945 -19.858 -20.616  0.00  0.00    +0.220 C 
ATOM     12  C   UNL     1      36.076 -21.385 -19.519  0.00  0.00    +0.233 C 
ATOM     13  C   UNL     1      34.589 -21.618 -19.394  0.00  0.00    +0.176 C 
ENDBRANCH   4  11
BRANCH   3  14
ATOM     14  O   UNL     1      34.596 -15.292 -23.883  0.00  0.00    -0.474 OA
BRANCH  14  15
ATOM     15  C   UNL     1      33.328 -14.654 -23.957  0.00  0.00    +0.205 C 
BRANCH  15  16
ATOM     16  C   UNL     1      33.023 -14.336 -25.415  0.00  0.00    +0.047 C 
BRANCH  16  17
ATOM     17  C   UNL     1      33.328 -12.878 -25.751  0.00  0.00    +0.004 C 
BRANCH  17  18
ATOM     18  C   UNL     1      33.788 -12.107 -24.513  0.00  0.00    +0.008 C 
BRANCH  18  19
ATOM     19  C   UNL     1      34.579 -10.854 -24.901  0.00  0.00    +0.067 C 
BRANCH  19  22
ATOM     20  O   UNL     1      35.218  -8.780 -23.867  0.00  0.00    -0.358 OA
ATOM     21  N   UNL     1      34.753  -7.784 -23.018  0.00  0.00    -0.082 NA
ATOM     22  C   UNL     1      34.243  -9.688 -24.005  0.00  0.00    +0.154 C 
ATOM     23  C   UNL     1      33.143  -9.370 -23.303  0.00  0.00    +0.054 C 
ATOM     24  C   UNL     1      33.512  -8.158 -22.695  0.00  0.00    +0.101 C 
ATOM     25  C   UNL     1      32.705  -7.320 -21.793  0.00  0.00    +0.056 C 
ENDBRANCH  19  22
ENDBRANCH  18  19
ENDBRANCH  17  18
ENDBRANCH  16  17
ENDBRANCH  15  16
ENDBRANCH  14  15
ENDBRANCH   3  14
TORSDOF 8
ENDMDL
MODEL 6
REMARK VINA RESULT:      -9.5      2.536      9.260
REMARK  Name = 441048
REMARK  8 active torsions:
REMARK  status: ('A' for Active; 'I' for Inactive)
REMARK    1  A    between atoms: C_3  and  O_14
REMARK    2  A    between atoms: C_4  and  C_11
REMARK    3  A    between atoms: O_14  and  C_15
REMARK    4  A    between atoms: C_15  and  C_16
REMARK    5  A    between atoms: C_16  and  C_17
REMARK    6  A    between atoms: C_17  and  C_18
REMARK    7  A    between atoms: C_18  and  C_19
REMARK    8  A    between atoms: C_19  and  C_22
REMARK                            x       y       z     vdW  Elec       q    Type
REMARK                         _______ _______ _______ _____ _____    ______ ____
ROOT
ATOM      1 CL   UNL     1      33.252 -14.611 -22.148  0.00  0.00    -0.079 Cl
ATOM      2 CL   UNL     1      33.623 -13.581 -27.475  0.00  0.00    -0.079 Cl
ATOM      3  C   UNL     1      33.453 -13.958 -24.785  0.00  0.00    +0.159 C 
ATOM      4  C   UNL     1      33.761 -11.246 -24.237  0.00  0.00    +0.055 C 
ATOM      5  C   UNL     1      33.446 -13.513 -23.465  0.00  0.00    +0.093 C 
ATOM      6  C   UNL     1      33.612 -13.055 -25.832  0.00  0.00    +0.093 C 
ATOM      7  C   UNL     1      33.601 -12.153 -23.191  0.00  0.00    +0.019 C 
ATOM      8  C   UNL     1      33.767 -11.696 -25.558  0.00  0.00    +0.019 C 
ENDROOT
BRANCH   4  11
ATOM      9  O   UNL     1      32.775  -9.168 -23.632  0.00  0.00    -0.458 OA
ATOM     10  N   UNL     1      35.035  -9.148 -23.981  0.00  0.00    -0.234 NA
ATOM     11  C   UNL     1      33.923  -9.813 -23.950  0.00  0.00    +0.220 C 
ATOM     12  C   UNL     1      33.133  -7.795 -23.610  0.00  0.00    +0.233 C 
ATOM     13  C   UNL     1      34.642  -7.804 -23.546  0.00  0.00    +0.176 C 
ENDBRANCH   4  11
BRANCH   3  14
ATOM     14  O   UNL     1      33.300 -15.293 -25.052  0.00  0.00    -0.474 OA
BRANCH  14  15
ATOM     15  C   UNL     1      34.469 -16.099 -24.981  0.00  0.00    +0.205 C 
BRANCH  15  16
ATOM     16  C   UNL     1      34.077 -17.554 -25.196  0.00  0.00    +0.047 C 
BRANCH  16  17
ATOM     17  C   UNL     1      34.793 -18.482 -24.218  0.00  0.00    +0.004 C 
BRANCH  17  18
ATOM     18  C   UNL     1      35.328 -17.712 -23.010  0.00  0.00    +0.008 C 
BRANCH  18  19
ATOM     19  C   UNL     1      34.403 -17.865 -21.800  0.00  0.00    +0.067 C 
BRANCH  19  22
ATOM     20  O   UNL     1      36.022 -19.173 -20.598  0.00  0.00    -0.358 OA
ATOM     21  N   UNL     1      36.170 -20.352 -19.877  0.00  0.00    -0.082 NA
ATOM     22  C   UNL     1      34.745 -19.093 -20.994  0.00  0.00    +0.154 C 
ATOM     23  C   UNL     1      34.015 -20.144 -20.586  0.00  0.00    +0.054 C 
ATOM     24  C   UNL     1      34.958 -20.913 -19.883  0.00  0.00    +0.101 C 
ATOM     25  C   UNL     1      34.742 -22.199 -19.198  0.00  0.00    +0.056 C 
ENDBRANCH  19  22
ENDBRANCH  18  19
ENDBRANCH  17  18
ENDBRANCH  16  17
ENDBRANCH  15  16
ENDBRANCH  14  15
ENDBRANCH   3  14
TORSDOF 8
ENDMDL
MODEL 7
REMARK VINA RESULT:      -9.5      4.426     10.169
REMARK  Name = 441048
REMARK  8 active torsions:
REMARK  status: ('A' for Active; 'I' for Inactive)
REMARK    1  A    between atoms: C_3  and  O_14
REMARK    2  A    between atoms: C_4  and  C_11
REMARK    3  A    between atoms: O_14  and  C_15
REMARK    4  A    between atoms: C_15  and  C_16
REMARK    5  A    between atoms: C_16  and  C_17
REMARK    6  A    between atoms: C_17  and  C_18
REMARK    7  A    between atoms: C_18  and  C_19
REMARK    8  A    between atoms: C_19  and  C_22
REMARK                            x       y       z     vdW  Elec       q    Type
REMARK                         _______ _______ _______ _____ _____    ______ ____
ROOT
ATOM      1 CL   UNL     1      34.697 -15.911 -20.628  0.00  0.00    -0.079 Cl
ATOM      2 CL   UNL     1      34.836 -19.652 -24.572  0.00  0.00    -0.079 Cl
ATOM      3  C   UNL     1      34.735 -17.683 -22.696  0.00  0.00    +0.159 C 
ATOM      4  C   UNL     1      34.115 -15.723 -24.574  0.00  0.00    +0.055 C 
ATOM      5  C   UNL     1      34.549 -16.365 -22.286  0.00  0.00    +0.093 C 
ATOM      6  C   UNL     1      34.612 -18.027 -24.039  0.00  0.00    +0.093 C 
ATOM      7  C   UNL     1      34.239 -15.383 -23.228  0.00  0.00    +0.019 C 
ATOM      8  C   UNL     1      34.302 -17.045 -24.980  0.00  0.00    +0.019 C 
ENDROOT
BRANCH   4  11
ATOM      9  O   UNL     1      33.772 -13.426 -25.081  0.00  0.00    -0.458 OA
ATOM     10  N   UNL     1      33.520 -14.890 -26.819  0.00  0.00    -0.234 NA
ATOM     11  C   UNL     1      33.787 -14.690 -25.568  0.00  0.00    +0.220 C 
ATOM     12  C   UNL     1      33.233 -12.646 -26.138  0.00  0.00    +0.233 C 
ATOM     13  C   UNL     1      33.345 -13.535 -27.353  0.00  0.00    +0.176 C 
ENDBRANCH   4  11
BRANCH   3  14
ATOM     14  O   UNL     1      35.039 -18.646 -21.770  0.00  0.00    -0.474 OA
BRANCH  14  15
ATOM     15  C   UNL     1      33.952 -19.199 -21.039  0.00  0.00    +0.205 C 
BRANCH  15  16
ATOM     16  C   UNL     1      34.388 -20.530 -20.442  0.00  0.00    +0.047 C 
BRANCH  16  17
ATOM     17  C   UNL     1      35.879 -20.538 -20.110  0.00  0.00    +0.004 C 
BRANCH  17  18
ATOM     18  C   UNL     1      36.241 -21.720 -19.209  0.00  0.00    +0.008 C 
BRANCH  18  19
ATOM     19  C   UNL     1      36.797 -21.243 -17.864  0.00  0.00    +0.067 C 
BRANCH  19  22
ATOM     20  O   UNL     1      35.603 -23.060 -16.838  0.00  0.00    -0.358 OA
ATOM     21  N   UNL     1      35.697 -24.006 -15.825  0.00  0.00    -0.082 NA
ATOM     22  C   UNL     1      36.727 -22.330 -16.821  0.00  0.00    +0.154 C 
ATOM     23  C   UNL     1      37.578 -22.722 -15.859  0.00  0.00    +0.054 C 
ATOM     24  C   UNL     1      36.884 -23.784 -15.255  0.00  0.00    +0.101 C 
ATOM     25  C   UNL     1      37.322 -24.619 -14.124  0.00  0.00    +0.056 C 
ENDBRANCH  19  22
ENDBRANCH  18  19
ENDBRANCH  17  18
ENDBRANCH  16  17
ENDBRANCH  15  16
ENDBRANCH  14  15
ENDBRANCH   3  14
TORSDOF 8
ENDMDL
MODEL 8
REMARK VINA RESULT:      -9.5      4.357     10.298
REMARK  Name = 441048
REMARK  8 active torsions:
REMARK  status: ('A' for Active; 'I' for Inactive)
REMARK    1  A    between atoms: C_3  and  O_14
REMARK    2  A    between atoms: C_4  and  C_11
REMARK    3  A    between atoms: O_14  and  C_15
REMARK    4  A    between atoms: C_15  and  C_16
REMARK    5  A    between atoms: C_16  and  C_17
REMARK    6  A    between atoms: C_17  and  C_18
REMARK    7  A    between atoms: C_18  and  C_19
REMARK    8  A    between atoms: C_19  and  C_22
REMARK                            x       y       z     vdW  Elec       q    Type
REMARK                         _______ _______ _______ _____ _____    ______ ____
ROOT
ATOM      1 CL   UNL     1      34.890 -19.353 -24.235  0.00  0.00    -0.079 Cl
ATOM      2 CL   UNL     1      34.505 -15.419 -20.501  0.00  0.00    -0.079 Cl
ATOM      3  C   UNL     1      34.668 -17.292 -22.469  0.00  0.00    +0.159 C 
ATOM      4  C   UNL     1      34.067 -15.453 -24.471  0.00  0.00    +0.055 C 
ATOM      5  C   UNL     1      34.605 -17.709 -23.797  0.00  0.00    +0.093 C 
ATOM      6  C   UNL     1      34.433 -15.961 -22.138  0.00  0.00    +0.093 C 
ATOM      7  C   UNL     1      34.303 -16.787 -24.799  0.00  0.00    +0.019 C 
ATOM      8  C   UNL     1      34.131 -15.039 -23.140  0.00  0.00    +0.019 C 
ENDROOT
BRANCH   4  11
ATOM      9  O   UNL     1      33.754 -13.187 -25.123  0.00  0.00    -0.458 OA
ATOM     10  N   UNL     1      33.475 -14.756 -26.763  0.00  0.00    -0.234 NA
ATOM     11  C   UNL     1      33.750 -14.480 -25.527  0.00  0.00    +0.220 C 
ATOM     12  C   UNL     1      33.223 -12.468 -26.225  0.00  0.00    +0.233 C 
ATOM     13  C   UNL     1      33.317 -13.435 -27.381  0.00  0.00    +0.176 C 
ENDBRANCH   4  11
BRANCH   3  14
ATOM     14  O   UNL     1      34.964 -18.199 -21.486  0.00  0.00    -0.474 OA
BRANCH  14  15
ATOM     15  C   UNL     1      33.876 -18.936 -20.945  0.00  0.00    +0.205 C 
BRANCH  15  16
ATOM     16  C   UNL     1      34.343 -20.356 -20.651  0.00  0.00    +0.047 C 
BRANCH  16  17
ATOM     17  C   UNL     1      33.370 -21.091 -19.732  0.00  0.00    +0.004 C 
BRANCH  17  18
ATOM     18  C   UNL     1      34.069 -22.215 -18.966  0.00  0.00    +0.008 C 
BRANCH  18  19
ATOM     19  C   UNL     1      33.161 -22.794 -17.877  0.00  0.00    +0.067 C 
BRANCH  19  22
ATOM     20  O   UNL     1      35.277 -23.346 -16.880  0.00  0.00    -0.358 OA
ATOM     21  N   UNL     1      35.856 -23.777 -15.693  0.00  0.00    -0.082 NA
ATOM     22  C   UNL     1      33.956 -23.251 -16.680  0.00  0.00    +0.154 C 
ATOM     23  C   UNL     1      33.601 -23.590 -15.430  0.00  0.00    +0.054 C 
ATOM     24  C   UNL     1      34.835 -23.916 -14.842  0.00  0.00    +0.101 C 
ATOM     25  C   UNL     1      35.086 -24.365 -13.463  0.00  0.00    +0.056 C 
ENDBRANCH  19  22
ENDBRANCH  18  19
ENDBRANCH  17  18
ENDBRANCH  16  17
ENDBRANCH  15  16
ENDBRANCH  14  15
ENDBRANCH   3  14
TORSDOF 8
ENDMDL
MODEL 9
REMARK VINA RESULT:      -9.4      2.625      9.510
REMARK  Name = 441048
REMARK  8 active torsions:
REMARK  status: ('A' for Active; 'I' for Inactive)
REMARK    1  A    between atoms: C_3  and  O_14
REMARK    2  A    between atoms: C_4  and  C_11
REMARK    3  A    between atoms: O_14  and  C_15
REMARK    4  A    between atoms: C_15  and  C_16
REMARK    5  A    between atoms: C_16  and  C_17
REMARK    6  A    between atoms: C_17  and  C_18
REMARK    7  A    between atoms: C_18  and  C_19
REMARK    8  A    between atoms: C_19  and  C_22
REMARK                            x       y       z     vdW  Elec       q    Type
REMARK                         _______ _______ _______ _____ _____    ______ ____
ROOT
ATOM      1 CL   UNL     1      33.716 -13.680 -27.280  0.00  0.00    -0.079 Cl
ATOM      2 CL   UNL     1      32.854 -14.508 -21.974  0.00  0.00    -0.079 Cl
ATOM      3  C   UNL     1      33.307 -13.957 -24.601  0.00  0.00    +0.159 C 
ATOM      4  C   UNL     1      33.725 -11.248 -24.112  0.00  0.00    +0.055 C 
ATOM      5  C   UNL     1      33.603 -13.100 -25.658  0.00  0.00    +0.093 C 
ATOM      6  C   UNL     1      33.219 -13.467 -23.302  0.00  0.00    +0.093 C 
ATOM      7  C   UNL     1      33.812 -11.742 -25.413  0.00  0.00    +0.019 C 
ATOM      8  C   UNL     1      33.428 -12.110 -23.056  0.00  0.00    +0.019 C 
ENDROOT
BRANCH   4  11
ATOM      9  O   UNL     1      32.858  -9.153 -23.396  0.00  0.00    -0.458 OA
ATOM     10  N   UNL     1      35.057  -9.173 -24.023  0.00  0.00    -0.234 NA
ATOM     11  C   UNL     1      33.947  -9.818 -23.852  0.00  0.00    +0.220 C 
ATOM     12  C   UNL     1      33.240  -7.786 -23.424  0.00  0.00    +0.233 C 
ATOM     13  C   UNL     1      34.745  -7.821 -23.547  0.00  0.00    +0.176 C 
ENDBRANCH   4  11
BRANCH   3  14
ATOM     14  O   UNL     1      33.101 -15.290 -24.844  0.00  0.00    -0.474 OA
BRANCH  14  15
ATOM     15  C   UNL     1      34.230 -16.046 -25.261  0.00  0.00    +0.205 C 
BRANCH  15  16
ATOM     16  C   UNL     1      34.629 -16.993 -24.137  0.00  0.00    +0.047 C 
BRANCH  16  17
ATOM     17  C   UNL     1      34.503 -18.455 -24.560  0.00  0.00    +0.004 C 
BRANCH  17  18
ATOM     18  C   UNL     1      34.843 -19.400 -23.406  0.00  0.00    +0.008 C 
BRANCH  18  19
ATOM     19  C   UNL     1      34.525 -18.759 -22.052  0.00  0.00    +0.067 C 
BRANCH  19  22
ATOM     20  O   UNL     1      32.801 -19.889 -20.815  0.00  0.00    -0.358 OA
ATOM     21  N   UNL     1      32.599 -20.876 -19.858  0.00  0.00    -0.082 NA
ATOM     22  C   UNL     1      34.120 -19.793 -21.032  0.00  0.00    +0.154 C 
ATOM     23  C   UNL     1      34.826 -20.654 -20.282  0.00  0.00    +0.054 C 
ATOM     24  C   UNL     1      33.823 -21.317 -19.555  0.00  0.00    +0.101 C 
ATOM     25  C   UNL     1      33.990 -22.386 -18.556  0.00  0.00    +0.056 C 
ENDBRANCH  19  22
ENDBRANCH  18  19
ENDBRANCH  17  18
ENDBRANCH  16  17
ENDBRANCH  15  16
ENDBRANCH  14  15
ENDBRANCH   3  14
TORSDOF 8
ENDMDL
