MODEL 1
REMARK VINA RESULT:      -9.8      0.000      0.000
REMARK  Name = 10021692
REMARK  10 active torsions:
REMARK  status: ('A' for Active; 'I' for Inactive)
REMARK    1  A    between atoms: N_2  and  C_19
REMARK    2  A    between atoms: C_3  and  C_5
REMARK    3  A    between atoms: C_7  and  C_15
REMARK    4  A    between atoms: C_8  and  O_11
REMARK    5  A    between atoms: C_9  and  O_13
REMARK    6  A    between atoms: C_15  and  C_16
REMARK    7  A    between atoms: C_16  and  C_18
REMARK    8  A    between atoms: C_19  and  C_21
REMARK    9  A    between atoms: N_20  and  C_26
REMARK   10  A    between atoms: C_26  and  C_27
REMARK                            x       y       z     vdW  Elec       q    Type
REMARK                         _______ _______ _______ _____ _____    ______ ____
ROOT
ATOM      1  O   UNL     1      35.079 -16.095 -20.193  0.00  0.00    -0.270 OA
ATOM      2  N   UNL     1      35.317 -17.646 -21.903  0.00  0.00    -0.303 N 
ATOM      3  C   UNL     1      34.901 -16.432 -21.361  0.00  0.00    +0.249 C 
ATOM      4  H   UNL     1      35.128 -17.828 -22.851  0.00  0.00    +0.150 HD
ENDROOT
BRANCH   3   5
ATOM      5  C   UNL     1      34.173 -15.518 -22.277  0.00  0.00    +0.090 C 
ATOM      6  C   UNL     1      33.409 -14.513 -21.719  0.00  0.00    +0.003 C 
ATOM      7  C   UNL     1      32.716 -13.644 -22.561  0.00  0.00    -0.019 C 
ATOM      8  C   UNL     1      34.272 -15.691 -23.642  0.00  0.00    +0.177 C 
ATOM      9  C   UNL     1      33.580 -14.822 -24.486  0.00  0.00    +0.172 C 
ATOM     10  C   UNL     1      32.802 -13.798 -23.946  0.00  0.00    +0.036 C 
BRANCH   8  11
ATOM     11  O   UNL     1      35.031 -16.690 -24.179  0.00  0.00    -0.468 OA
ATOM     12  C   UNL     1      34.351 -17.672 -24.957  0.00  0.00    +0.253 C 
ENDBRANCH   8  11
BRANCH   9  13
ATOM     13  O   UNL     1      33.654 -14.963 -25.839  0.00  0.00    -0.468 OA
ATOM     14  C   UNL     1      32.942 -14.013 -26.630  0.00  0.00    +0.253 C 
ENDBRANCH   9  13
BRANCH   7  15
ATOM     15  C   UNL     1      31.886 -12.548 -21.984  0.00  0.00    +0.029 C 
BRANCH  15  16
ATOM     16  C   UNL     1      31.964 -12.506 -20.450  0.00  0.00    +0.043 C 
BRANCH  16  18
ATOM     17  F   UNL     1      31.509 -11.222 -18.536  0.00  0.00    -0.234 F 
ATOM     18  C   UNL     1      31.313 -11.256 -19.881  0.00  0.00    +0.194 C 
ENDBRANCH  16  18
ENDBRANCH  15  16
ENDBRANCH   7  15
ENDBRANCH   3   5
BRANCH   2  19
ATOM     19  C   UNL     1      36.008 -18.643 -21.138  0.00  0.00    +0.069 C 
BRANCH  19  21
ATOM     20  N   UNL     1      35.213 -20.496 -19.658  0.00  0.00    +0.392 N 
ATOM     21  C   UNL     1      35.173 -19.910 -21.005  0.00  0.00    -0.038 C 
ATOM     22  C   UNL     1      33.681 -19.631 -21.206  0.00  0.00    -0.021 C 
ATOM     23  C   UNL     1      32.960 -20.608 -20.285  0.00  0.00    -0.025 C 
ATOM     24  C   UNL     1      34.064 -21.403 -19.607  0.00  0.00    -0.077 C 
ATOM     25  H   UNL     1      35.169 -19.767 -18.947  0.00  0.00    -0.079 HD
BRANCH  20  26
ATOM     26  C   UNL     1      36.458 -21.197 -19.370  0.00  0.00    -0.050 C 
BRANCH  26  27
ATOM     27  C   UNL     1      36.415 -21.873 -18.035  0.00  0.00    -0.049 C 
ATOM     28  C   UNL     1      37.162 -21.506 -16.987  0.00  0.00    -0.007 C 
ENDBRANCH  26  27
ENDBRANCH  20  26
ENDBRANCH  19  21
ENDBRANCH   2  19
TORSDOF 10
ENDMDL
MODEL 2
REMARK VINA RESULT:      -9.4      2.076      3.294
REMARK  Name = 10021692
REMARK  10 active torsions:
REMARK  status: ('A' for Active; 'I' for Inactive)
REMARK    1  A    between atoms: N_2  and  C_19
REMARK    2  A    between atoms: C_3  and  C_5
REMARK    3  A    between atoms: C_7  and  C_15
REMARK    4  A    between atoms: C_8  and  O_11
REMARK    5  A    between atoms: C_9  and  O_13
REMARK    6  A    between atoms: C_15  and  C_16
REMARK    7  A    between atoms: C_16  and  C_18
REMARK    8  A    between atoms: C_19  and  C_21
REMARK    9  A    between atoms: N_20  and  C_26
REMARK   10  A    between atoms: C_26  and  C_27
REMARK                            x       y       z     vdW  Elec       q    Type
REMARK                         _______ _______ _______ _____ _____    ______ ____
ROOT
ATOM      1  O   UNL     1      32.140 -15.946 -21.001  0.00  0.00    -0.270 OA
ATOM      2  N   UNL     1      34.412 -15.495 -21.143  0.00  0.00    -0.303 N 
ATOM      3  C   UNL     1      33.061 -15.171 -21.246  0.00  0.00    +0.249 C 
ATOM      4  H   UNL     1      35.079 -14.806 -21.362  0.00  0.00    +0.150 HD
ENDROOT
BRANCH   3   5
ATOM      5  C   UNL     1      32.748 -13.797 -21.711  0.00  0.00    +0.090 C 
ATOM      6  C   UNL     1      32.001 -12.984 -20.881  0.00  0.00    +0.003 C 
ATOM      7  C   UNL     1      31.695 -11.689 -21.299  0.00  0.00    -0.019 C 
ATOM      8  C   UNL     1      33.199 -13.367 -22.943  0.00  0.00    +0.177 C 
ATOM      9  C   UNL     1      32.893 -12.072 -23.362  0.00  0.00    +0.172 C 
ATOM     10  C   UNL     1      32.142 -11.233 -22.540  0.00  0.00    +0.036 C 
BRANCH   8  11
ATOM     11  O   UNL     1      33.936 -14.183 -23.753  0.00  0.00    -0.468 OA
ATOM     12  C   UNL     1      33.303 -14.658 -24.938  0.00  0.00    +0.253 C 
ENDBRANCH   8  11
BRANCH   9  13
ATOM     13  O   UNL     1      33.322 -11.615 -24.571  0.00  0.00    -0.468 OA
ATOM     14  C   UNL     1      34.340 -10.616 -24.563  0.00  0.00    +0.253 C 
ENDBRANCH   9  13
BRANCH   7  15
ATOM     15  C   UNL     1      30.892 -10.791 -20.419  0.00  0.00    +0.029 C 
BRANCH  15  16
ATOM     16  C   UNL     1      31.762 -10.063 -19.383  0.00  0.00    +0.043 C 
BRANCH  16  18
ATOM     17  F   UNL     1      31.592  -8.336 -20.965  0.00  0.00    -0.234 F 
ATOM     18  C   UNL     1      32.367  -8.787 -19.943  0.00  0.00    +0.194 C 
ENDBRANCH  16  18
ENDBRANCH  15  16
ENDBRANCH   7  15
ENDBRANCH   3   5
BRANCH   2  19
ATOM     19  C   UNL     1      34.872 -16.788 -20.732  0.00  0.00    +0.069 C 
BRANCH  19  21
ATOM     20  N   UNL     1      34.505 -18.751 -22.239  0.00  0.00    +0.392 N 
ATOM     21  C   UNL     1      35.363 -17.601 -21.924  0.00  0.00    -0.038 C 
ATOM     22  C   UNL     1      35.323 -16.787 -23.220  0.00  0.00    -0.021 C 
ATOM     23  C   UNL     1      34.994 -17.792 -24.318  0.00  0.00    -0.025 C 
ATOM     24  C   UNL     1      34.868 -19.130 -23.607  0.00  0.00    -0.077 C 
ATOM     25  H   UNL     1      33.521 -18.502 -22.150  0.00  0.00    -0.079 HD
BRANCH  20  26
ATOM     26  C   UNL     1      34.673 -19.866 -21.315  0.00  0.00    -0.050 C 
BRANCH  26  27
ATOM     27  C   UNL     1      33.406 -20.166 -20.576  0.00  0.00    -0.049 C 
ATOM     28  C   UNL     1      33.277 -21.154 -19.682  0.00  0.00    -0.007 C 
ENDBRANCH  26  27
ENDBRANCH  20  26
ENDBRANCH  19  21
ENDBRANCH   2  19
TORSDOF 10
ENDMDL
MODEL 3
REMARK VINA RESULT:      -9.3      4.383      9.146
REMARK  Name = 10021692
REMARK  10 active torsions:
REMARK  status: ('A' for Active; 'I' for Inactive)
REMARK    1  A    between atoms: N_2  and  C_19
REMARK    2  A    between atoms: C_3  and  C_5
REMARK    3  A    between atoms: C_7  and  C_15
REMARK    4  A    between atoms: C_8  and  O_11
REMARK    5  A    between atoms: C_9  and  O_13
REMARK    6  A    between atoms: C_15  and  C_16
REMARK    7  A    between atoms: C_16  and  C_18
REMARK    8  A    between atoms: C_19  and  C_21
REMARK    9  A    between atoms: N_20  and  C_26
REMARK   10  A    between atoms: C_26  and  C_27
REMARK                            x       y       z     vdW  Elec       q    Type
REMARK                         _______ _______ _______ _____ _____    ______ ____
ROOT
ATOM      1  O   UNL     1      37.188 -21.523 -20.575  0.00  0.00    -0.270 OA
ATOM      2  N   UNL     1      35.867 -19.658 -20.168  0.00  0.00    -0.303 N 
ATOM      3  C   UNL     1      36.320 -20.952 -19.920  0.00  0.00    +0.249 C 
ATOM      4  H   UNL     1      35.166 -19.285 -19.588  0.00  0.00    +0.150 HD
ENDROOT
BRANCH   3   5
ATOM      5  C   UNL     1      35.670 -21.670 -18.794  0.00  0.00    +0.090 C 
ATOM      6  C   UNL     1      36.433 -21.953 -17.678  0.00  0.00    +0.003 C 
ATOM      7  C   UNL     1      35.843 -22.628 -16.610  0.00  0.00    -0.019 C 
ATOM      8  C   UNL     1      34.343 -22.037 -18.887  0.00  0.00    +0.177 C 
ATOM      9  C   UNL     1      33.752 -22.713 -17.819  0.00  0.00    +0.172 C 
ATOM     10  C   UNL     1      34.501 -23.007 -16.680  0.00  0.00    +0.036 C 
BRANCH   8  11
ATOM     11  O   UNL     1      33.603 -21.751 -19.997  0.00  0.00    -0.468 OA
ATOM     12  C   UNL     1      32.830 -20.554 -19.968  0.00  0.00    +0.253 C 
ENDBRANCH   8  11
BRANCH   9  13
ATOM     13  O   UNL     1      32.445 -23.090 -17.875  0.00  0.00    -0.468 OA
ATOM     14  C   UNL     1      31.717 -23.092 -16.649  0.00  0.00    +0.253 C 
ENDBRANCH   9  13
BRANCH   7  15
ATOM     15  C   UNL     1      36.643 -22.942 -15.391  0.00  0.00    +0.029 C 
BRANCH  15  16
ATOM     16  C   UNL     1      36.120 -24.185 -14.655  0.00  0.00    +0.043 C 
BRANCH  16  18
ATOM     17  F   UNL     1      36.008 -26.372 -15.504  0.00  0.00    -0.234 F 
ATOM     18  C   UNL     1      36.883 -25.440 -15.043  0.00  0.00    +0.194 C 
ENDBRANCH  16  18
ENDBRANCH  15  16
ENDBRANCH   7  15
ENDBRANCH   3   5
BRANCH   2  19
ATOM     19  C   UNL     1      36.378 -18.848 -21.234  0.00  0.00    +0.069 C 
BRANCH  19  21
ATOM     20  N   UNL     1      35.274 -16.798 -22.150  0.00  0.00    +0.392 N 
ATOM     21  C   UNL     1      35.246 -18.265 -22.072  0.00  0.00    -0.038 C 
ATOM     22  C   UNL     1      35.355 -18.682 -23.541  0.00  0.00    -0.021 C 
ATOM     23  C   UNL     1      34.820 -17.497 -24.337  0.00  0.00    -0.025 C 
ATOM     24  C   UNL     1      34.424 -16.464 -23.295  0.00  0.00    -0.077 C 
ATOM     25  H   UNL     1      36.230 -16.461 -22.261  0.00  0.00    -0.079 HD
BRANCH  20  26
ATOM     26  C   UNL     1      34.808 -16.146 -20.932  0.00  0.00    -0.050 C 
BRANCH  26  27
ATOM     27  C   UNL     1      33.710 -15.168 -21.214  0.00  0.00    -0.049 C 
ATOM     28  C   UNL     1      32.687 -14.933 -20.385  0.00  0.00    -0.007 C 
ENDBRANCH  26  27
ENDBRANCH  20  26
ENDBRANCH  19  21
ENDBRANCH   2  19
TORSDOF 10
ENDMDL
MODEL 4
REMARK VINA RESULT:      -9.1      5.498      9.826
REMARK  Name = 10021692
REMARK  10 active torsions:
REMARK  status: ('A' for Active; 'I' for Inactive)
REMARK    1  A    between atoms: N_2  and  C_19
REMARK    2  A    between atoms: C_3  and  C_5
REMARK    3  A    between atoms: C_7  and  C_15
REMARK    4  A    between atoms: C_8  and  O_11
REMARK    5  A    between atoms: C_9  and  O_13
REMARK    6  A    between atoms: C_15  and  C_16
REMARK    7  A    between atoms: C_16  and  C_18
REMARK    8  A    between atoms: C_19  and  C_21
REMARK    9  A    between atoms: N_20  and  C_26
REMARK   10  A    between atoms: C_26  and  C_27
REMARK                            x       y       z     vdW  Elec       q    Type
REMARK                         _______ _______ _______ _____ _____    ______ ____
ROOT
ATOM      1  O   UNL     1      33.728 -23.761 -19.293  0.00  0.00    -0.270 OA
ATOM      2  N   UNL     1      33.284 -21.505 -18.981  0.00  0.00    -0.303 N 
ATOM      3  C   UNL     1      33.485 -22.814 -18.550  0.00  0.00    +0.249 C 
ATOM      4  H   UNL     1      33.093 -20.812 -18.309  0.00  0.00    +0.150 HD
ENDROOT
BRANCH   3   5
ATOM      5  C   UNL     1      33.364 -23.050 -17.089  0.00  0.00    +0.090 C 
ATOM      6  C   UNL     1      32.097 -23.085 -16.539  0.00  0.00    +0.003 C 
ATOM      7  C   UNL     1      31.961 -23.305 -15.169  0.00  0.00    -0.019 C 
ATOM      8  C   UNL     1      34.499 -23.225 -16.324  0.00  0.00    +0.177 C 
ATOM      9  C   UNL     1      34.363 -23.445 -14.952  0.00  0.00    +0.172 C 
ATOM     10  C   UNL     1      33.094 -23.486 -14.375  0.00  0.00    +0.036 C 
BRANCH   8  11
ATOM     11  O   UNL     1      35.744 -23.187 -16.881  0.00  0.00    -0.468 OA
ATOM     12  C   UNL     1      36.597 -22.117 -16.484  0.00  0.00    +0.253 C 
ENDBRANCH   8  11
BRANCH   9  13
ATOM     13  O   UNL     1      35.461 -23.622 -14.166  0.00  0.00    -0.468 OA
ATOM     14  C   UNL     1      35.237 -24.067 -12.830  0.00  0.00    +0.253 C 
ENDBRANCH   9  13
BRANCH   7  15
ATOM     15  C   UNL     1      30.603 -23.350 -14.552  0.00  0.00    +0.029 C 
BRANCH  15  16
ATOM     16  C   UNL     1      29.529 -22.736 -15.463  0.00  0.00    +0.043 C 
BRANCH  16  18
ATOM     17  F   UNL     1      28.679 -24.904 -15.159  0.00  0.00    -0.234 F 
ATOM     18  C   UNL     1      28.441 -23.737 -15.815  0.00  0.00    +0.194 C 
ENDBRANCH  16  18
ENDBRANCH  15  16
ENDBRANCH   7  15
ENDBRANCH   3   5
BRANCH   2  19
ATOM     19  C   UNL     1      33.343 -21.123 -20.361  0.00  0.00    +0.069 C 
BRANCH  19  21
ATOM     20  N   UNL     1      34.997 -19.277 -20.695  0.00  0.00    +0.392 N 
ATOM     21  C   UNL     1      34.758 -20.725 -20.762  0.00  0.00    -0.038 C 
ATOM     22  C   UNL     1      35.801 -21.284 -19.790  0.00  0.00    -0.021 C 
ATOM     23  C   UNL     1      36.907 -20.237 -19.741  0.00  0.00    -0.025 C 
ATOM     24  C   UNL     1      36.455 -19.135 -20.686  0.00  0.00    -0.077 C 
ATOM     25  H   UNL     1      34.560 -18.878 -19.865  0.00  0.00    -0.079 HD
BRANCH  20  26
ATOM     26  C   UNL     1      34.397 -18.541 -21.800  0.00  0.00    -0.050 C 
BRANCH  26  27
ATOM     27  C   UNL     1      35.202 -18.676 -23.055  0.00  0.00    -0.049 C 
ATOM     28  C   UNL     1      34.683 -18.996 -24.247  0.00  0.00    -0.007 C 
ENDBRANCH  26  27
ENDBRANCH  20  26
ENDBRANCH  19  21
ENDBRANCH   2  19
TORSDOF 10
ENDMDL
MODEL 5
REMARK VINA RESULT:      -9.0      3.572      8.507
REMARK  Name = 10021692
REMARK  10 active torsions:
REMARK  status: ('A' for Active; 'I' for Inactive)
REMARK    1  A    between atoms: N_2  and  C_19
REMARK    2  A    between atoms: C_3  and  C_5
REMARK    3  A    between atoms: C_7  and  C_15
REMARK    4  A    between atoms: C_8  and  O_11
REMARK    5  A    between atoms: C_9  and  O_13
REMARK    6  A    between atoms: C_15  and  C_16
REMARK    7  A    between atoms: C_16  and  C_18
REMARK    8  A    between atoms: C_19  and  C_21
REMARK    9  A    between atoms: N_20  and  C_26
REMARK   10  A    between atoms: C_26  and  C_27
REMARK                            x       y       z     vdW  Elec       q    Type
REMARK                         _______ _______ _______ _____ _____    ______ ____
ROOT
ATOM      1  O   UNL     1      35.074 -19.816 -22.797  0.00  0.00    -0.270 OA
ATOM      2  N   UNL     1      35.277 -18.030 -21.329  0.00  0.00    -0.303 N 
ATOM      3  C   UNL     1      35.133 -19.377 -21.651  0.00  0.00    +0.249 C 
ATOM      4  H   UNL     1      35.314 -17.774 -20.380  0.00  0.00    +0.150 HD
ENDROOT
BRANCH   3   5
ATOM      5  C   UNL     1      35.022 -20.318 -20.508  0.00  0.00    +0.090 C 
ATOM      6  C   UNL     1      36.175 -20.649 -19.824  0.00  0.00    +0.003 C 
ATOM      7  C   UNL     1      36.092 -21.531 -18.747  0.00  0.00    -0.019 C 
ATOM      8  C   UNL     1      33.790 -20.835 -20.160  0.00  0.00    +0.177 C 
ATOM      9  C   UNL     1      33.707 -21.718 -19.083  0.00  0.00    +0.172 C 
ATOM     10  C   UNL     1      34.858 -22.066 -18.376  0.00  0.00    +0.036 C 
BRANCH   8  11
ATOM     11  O   UNL     1      32.659 -20.499 -20.846  0.00  0.00    -0.468 OA
ATOM     12  C   UNL     1      32.073 -19.235 -20.546  0.00  0.00    +0.253 C 
ENDBRANCH   8  11
BRANCH   9  13
ATOM     13  O   UNL     1      32.508 -22.247 -18.712  0.00  0.00    -0.468 OA
ATOM     14  C   UNL     1      32.430 -22.826 -17.410  0.00  0.00    +0.253 C 
ENDBRANCH   9  13
BRANCH   7  15
ATOM     15  C   UNL     1      37.323 -21.902 -17.990  0.00  0.00    +0.029 C 
BRANCH  15  16
ATOM     16  C   UNL     1      37.163 -21.686 -16.477  0.00  0.00    +0.043 C 
BRANCH  16  18
ATOM     17  F   UNL     1      38.719 -23.365 -15.954  0.00  0.00    -0.234 F 
ATOM     18  C   UNL     1      37.452 -22.951 -15.688  0.00  0.00    +0.194 C 
ENDBRANCH  16  18
ENDBRANCH  15  16
ENDBRANCH   7  15
ENDBRANCH   3   5
BRANCH   2  19
ATOM     19  C   UNL     1      35.372 -16.999 -22.321  0.00  0.00    +0.069 C 
BRANCH  19  21
ATOM     20  N   UNL     1      33.550 -15.359 -22.821  0.00  0.00    +0.392 N 
ATOM     21  C   UNL     1      34.617 -15.748 -21.888  0.00  0.00    -0.038 C 
ATOM     22  C   UNL     1      33.856 -15.970 -20.579  0.00  0.00    -0.021 C 
ATOM     23  C   UNL     1      32.596 -15.120 -20.697  0.00  0.00    -0.025 C 
ATOM     24  C   UNL     1      32.695 -14.448 -22.056  0.00  0.00    -0.077 C 
ATOM     25  H   UNL     1      33.047 -16.181 -23.155  0.00  0.00    -0.079 HD
BRANCH  20  26
ATOM     26  C   UNL     1      34.048 -14.729 -24.037  0.00  0.00    -0.050 C 
BRANCH  26  27
ATOM     27  C   UNL     1      33.530 -15.412 -25.264  0.00  0.00    -0.049 C 
ATOM     28  C   UNL     1      32.933 -14.776 -26.280  0.00  0.00    -0.007 C 
ENDBRANCH  26  27
ENDBRANCH  20  26
ENDBRANCH  19  21
ENDBRANCH   2  19
TORSDOF 10
ENDMDL
MODEL 6
REMARK VINA RESULT:      -8.9      4.510      6.686
REMARK  Name = 10021692
REMARK  10 active torsions:
REMARK  status: ('A' for Active; 'I' for Inactive)
REMARK    1  A    between atoms: N_2  and  C_19
REMARK    2  A    between atoms: C_3  and  C_5
REMARK    3  A    between atoms: C_7  and  C_15
REMARK    4  A    between atoms: C_8  and  O_11
REMARK    5  A    between atoms: C_9  and  O_13
REMARK    6  A    between atoms: C_15  and  C_16
REMARK    7  A    between atoms: C_16  and  C_18
REMARK    8  A    between atoms: C_19  and  C_21
REMARK    9  A    between atoms: N_20  and  C_26
REMARK   10  A    between atoms: C_26  and  C_27
REMARK                            x       y       z     vdW  Elec       q    Type
REMARK                         _______ _______ _______ _____ _____    ______ ____
ROOT
ATOM      1  O   UNL     1      33.558 -11.655 -25.600  0.00  0.00    -0.270 OA
ATOM      2  N   UNL     1      33.927 -12.633 -23.528  0.00  0.00    -0.303 N 
ATOM      3  C   UNL     1      33.671 -11.561 -24.380  0.00  0.00    +0.249 C 
ATOM      4  H   UNL     1      34.002 -12.459 -22.562  0.00  0.00    +0.150 HD
ENDROOT
BRANCH   3   5
ATOM      5  C   UNL     1      33.560 -10.225 -23.742  0.00  0.00    +0.090 C 
ATOM      6  C   UNL     1      34.224  -9.167 -24.330  0.00  0.00    +0.003 C 
ATOM      7  C   UNL     1      34.133  -7.904 -23.746  0.00  0.00    -0.019 C 
ATOM      8  C   UNL     1      32.811 -10.072 -22.593  0.00  0.00    +0.177 C 
ATOM      9  C   UNL     1      32.719  -8.809 -22.008  0.00  0.00    +0.172 C 
ATOM     10  C   UNL     1      33.380  -7.724 -22.585  0.00  0.00    +0.036 C 
BRANCH   8  11
ATOM     11  O   UNL     1      32.161 -11.128 -22.023  0.00  0.00    -0.468 OA
ATOM     12  C   UNL     1      30.738 -11.135 -22.112  0.00  0.00    +0.253 C 
ENDBRANCH   8  11
BRANCH   9  13
ATOM     13  O   UNL     1      31.989  -8.621 -20.874  0.00  0.00    -0.468 OA
ATOM     14  C   UNL     1      32.271  -7.451 -20.108  0.00  0.00    +0.253 C 
ENDBRANCH   9  13
BRANCH   7  15
ATOM     15  C   UNL     1      34.838  -6.744 -24.364  0.00  0.00    +0.029 C 
BRANCH  15  16
ATOM     16  C   UNL     1      34.109  -6.215 -25.609  0.00  0.00    +0.043 C 
BRANCH  16  18
ATOM     17  F   UNL     1      31.808  -6.177 -25.141  0.00  0.00    -0.234 F 
ATOM     18  C   UNL     1      32.898  -5.372 -25.244  0.00  0.00    +0.194 C 
ENDBRANCH  16  18
ENDBRANCH  15  16
ENDBRANCH   7  15
ENDBRANCH   3   5
BRANCH   2  19
ATOM     19  C   UNL     1      34.087 -13.978 -23.996  0.00  0.00    +0.069 C 
BRANCH  19  21
ATOM     20  N   UNL     1      34.977 -15.920 -22.696  0.00  0.00    +0.392 N 
ATOM     21  C   UNL     1      33.860 -14.982 -22.872  0.00  0.00    -0.038 C 
ATOM     22  C   UNL     1      33.778 -14.295 -21.507  0.00  0.00    -0.021 C 
ATOM     23  C   UNL     1      34.389 -15.284 -20.521  0.00  0.00    -0.025 C 
ATOM     24  C   UNL     1      34.784 -16.489 -21.360  0.00  0.00    -0.077 C 
ATOM     25  H   UNL     1      35.871 -15.439 -22.791  0.00  0.00    -0.079 HD
BRANCH  20  26
ATOM     26  C   UNL     1      35.023 -16.960 -23.716  0.00  0.00    -0.050 C 
BRANCH  26  27
ATOM     27  C   UNL     1      35.371 -18.293 -23.130  0.00  0.00    -0.049 C 
ATOM     28  C   UNL     1      34.900 -19.459 -23.590  0.00  0.00    -0.007 C 
ENDBRANCH  26  27
ENDBRANCH  20  26
ENDBRANCH  19  21
ENDBRANCH   2  19
TORSDOF 10
ENDMDL
MODEL 7
REMARK VINA RESULT:      -8.8      3.587      8.316
REMARK  Name = 10021692
REMARK  10 active torsions:
REMARK  status: ('A' for Active; 'I' for Inactive)
REMARK    1  A    between atoms: N_2  and  C_19
REMARK    2  A    between atoms: C_3  and  C_5
REMARK    3  A    between atoms: C_7  and  C_15
REMARK    4  A    between atoms: C_8  and  O_11
REMARK    5  A    between atoms: C_9  and  O_13
REMARK    6  A    between atoms: C_15  and  C_16
REMARK    7  A    between atoms: C_16  and  C_18
REMARK    8  A    between atoms: C_19  and  C_21
REMARK    9  A    between atoms: N_20  and  C_26
REMARK   10  A    between atoms: C_26  and  C_27
REMARK                            x       y       z     vdW  Elec       q    Type
REMARK                         _______ _______ _______ _____ _____    ______ ____
ROOT
ATOM      1  O   UNL     1      32.361 -13.251 -20.156  0.00  0.00    -0.270 OA
ATOM      2  N   UNL     1      31.690 -12.398 -22.207  0.00  0.00    -0.303 N 
ATOM      3  C   UNL     1      32.330 -13.319 -21.382  0.00  0.00    +0.249 C 
ATOM      4  H   UNL     1      31.720 -12.536 -23.181  0.00  0.00    +0.150 HD
ENDROOT
BRANCH   3   5
ATOM      5  C   UNL     1      33.035 -14.434 -22.065  0.00  0.00    +0.090 C 
ATOM      6  C   UNL     1      33.465 -15.498 -21.297  0.00  0.00    +0.003 C 
ATOM      7  C   UNL     1      34.130 -16.555 -21.918  0.00  0.00    -0.019 C 
ATOM      8  C   UNL     1      33.246 -14.382 -23.428  0.00  0.00    +0.177 C 
ATOM      9  C   UNL     1      33.912 -15.439 -24.050  0.00  0.00    +0.172 C 
ATOM     10  C   UNL     1      34.353 -16.525 -23.295  0.00  0.00    +0.036 C 
BRANCH   8  11
ATOM     11  O   UNL     1      32.816 -13.323 -24.173  0.00  0.00    -0.468 OA
ATOM     12  C   UNL     1      33.805 -12.388 -24.597  0.00  0.00    +0.253 C 
ENDBRANCH   8  11
BRANCH   9  13
ATOM     13  O   UNL     1      34.137 -15.422 -25.393  0.00  0.00    -0.468 OA
ATOM     14  C   UNL     1      33.025 -15.701 -26.241  0.00  0.00    +0.253 C 
ENDBRANCH   9  13
BRANCH   7  15
ATOM     15  C   UNL     1      34.601 -17.717 -21.111  0.00  0.00    +0.029 C 
BRANCH  15  16
ATOM     16  C   UNL     1      34.303 -19.060 -21.796  0.00  0.00    +0.043 C 
BRANCH  16  18
ATOM     17  F   UNL     1      32.377 -19.204 -20.459  0.00  0.00    -0.234 F 
ATOM     18  C   UNL     1      33.407 -19.946 -20.947  0.00  0.00    +0.194 C 
ENDBRANCH  16  18
ENDBRANCH  15  16
ENDBRANCH   7  15
ENDBRANCH   3   5
BRANCH   2  19
ATOM     19  C   UNL     1      30.989 -11.255 -21.699  0.00  0.00    +0.069 C 
BRANCH  19  21
ATOM     20  N   UNL     1      31.741  -8.908 -22.124  0.00  0.00    +0.392 N 
ATOM     21  C   UNL     1      31.955 -10.132 -21.341  0.00  0.00    -0.038 C 
ATOM     22  C   UNL     1      31.756  -9.651 -19.902  0.00  0.00    -0.021 C 
ATOM     23  C   UNL     1      32.063  -8.158 -19.930  0.00  0.00    -0.025 C 
ATOM     24  C   UNL     1      32.429  -7.855 -21.374  0.00  0.00    -0.077 C 
ATOM     25  H   UNL     1      30.744  -8.721 -22.236  0.00  0.00    -0.079 HD
BRANCH  20  26
ATOM     26  C   UNL     1      32.239  -9.002 -23.491  0.00  0.00    -0.050 C 
BRANCH  26  27
ATOM     27  C   UNL     1      33.525  -8.255 -23.662  0.00  0.00    -0.049 C 
ATOM     28  C   UNL     1      34.678  -8.825 -24.034  0.00  0.00    -0.007 C 
ENDBRANCH  26  27
ENDBRANCH  20  26
ENDBRANCH  19  21
ENDBRANCH   2  19
TORSDOF 10
ENDMDL
MODEL 8
REMARK VINA RESULT:      -8.7      4.110      8.770
REMARK  Name = 10021692
REMARK  10 active torsions:
REMARK  status: ('A' for Active; 'I' for Inactive)
REMARK    1  A    between atoms: N_2  and  C_19
REMARK    2  A    between atoms: C_3  and  C_5
REMARK    3  A    between atoms: C_7  and  C_15
REMARK    4  A    between atoms: C_8  and  O_11
REMARK    5  A    between atoms: C_9  and  O_13
REMARK    6  A    between atoms: C_15  and  C_16
REMARK    7  A    between atoms: C_16  and  C_18
REMARK    8  A    between atoms: C_19  and  C_21
REMARK    9  A    between atoms: N_20  and  C_26
REMARK   10  A    between atoms: C_26  and  C_27
REMARK                            x       y       z     vdW  Elec       q    Type
REMARK                         _______ _______ _______ _____ _____    ______ ____
ROOT
ATOM      1  O   UNL     1      31.523 -12.729 -21.238  0.00  0.00    -0.270 OA
ATOM      2  N   UNL     1      32.663 -11.583 -22.904  0.00  0.00    -0.303 N 
ATOM      3  C   UNL     1      32.342 -12.712 -22.154  0.00  0.00    +0.249 C 
ATOM      4  H   UNL     1      33.333 -11.668 -23.619  0.00  0.00    +0.150 HD
ENDROOT
BRANCH   3   5
ATOM      5  C   UNL     1      33.076 -13.957 -22.494  0.00  0.00    +0.090 C 
ATOM      6  C   UNL     1      33.648 -14.676 -21.462  0.00  0.00    +0.003 C 
ATOM      7  C   UNL     1      34.343 -15.848 -21.759  0.00  0.00    -0.019 C 
ATOM      8  C   UNL     1      33.172 -14.362 -23.809  0.00  0.00    +0.177 C 
ATOM      9  C   UNL     1      33.867 -15.535 -24.108  0.00  0.00    +0.172 C 
ATOM     10  C   UNL     1      34.452 -16.278 -23.083  0.00  0.00    +0.036 C 
BRANCH   8  11
ATOM     11  O   UNL     1      32.601 -13.641 -24.818  0.00  0.00    -0.468 OA
ATOM     12  C   UNL     1      33.486 -12.982 -25.721  0.00  0.00    +0.253 C 
ENDBRANCH   8  11
BRANCH   9  13
ATOM     13  O   UNL     1      33.982 -15.965 -25.395  0.00  0.00    -0.468 OA
ATOM     14  C   UNL     1      34.483 -17.285 -25.595  0.00  0.00    +0.253 C 
ENDBRANCH   9  13
BRANCH   7  15
ATOM     15  C   UNL     1      34.967 -16.644 -20.663  0.00  0.00    +0.029 C 
BRANCH  15  16
ATOM     16  C   UNL     1      35.430 -18.029 -21.140  0.00  0.00    +0.043 C 
BRANCH  16  18
ATOM     17  F   UNL     1      34.134 -19.665 -22.217  0.00  0.00    -0.234 F 
ATOM     18  C   UNL     1      34.331 -19.071 -21.010  0.00  0.00    +0.194 C 
ENDBRANCH  16  18
ENDBRANCH  15  16
ENDBRANCH   7  15
ENDBRANCH   3   5
BRANCH   2  19
ATOM     19  C   UNL     1      32.059 -10.303 -22.678  0.00  0.00    +0.069 C 
BRANCH  19  21
ATOM     20  N   UNL     1      33.033  -8.000 -22.750  0.00  0.00    +0.392 N 
ATOM     21  C   UNL     1      32.736  -9.221 -23.511  0.00  0.00    -0.038 C 
ATOM     22  C   UNL     1      34.121  -9.661 -23.994  0.00  0.00    -0.021 C 
ATOM     23  C   UNL     1      34.962  -8.391 -24.016  0.00  0.00    -0.025 C 
ATOM     24  C   UNL     1      34.026  -7.286 -23.555  0.00  0.00    -0.077 C 
ATOM     25  H   UNL     1      33.376  -8.230 -21.818  0.00  0.00    -0.079 HD
BRANCH  20  26
ATOM     26  C   UNL     1      31.857  -7.176 -22.500  0.00  0.00    -0.050 C 
BRANCH  26  27
ATOM     27  C   UNL     1      31.767  -6.762 -21.064  0.00  0.00    -0.049 C 
ATOM     28  C   UNL     1      32.557  -7.244 -20.096  0.00  0.00    -0.007 C 
ENDBRANCH  26  27
ENDBRANCH  20  26
ENDBRANCH  19  21
ENDBRANCH   2  19
TORSDOF 10
ENDMDL
MODEL 9
REMARK VINA RESULT:      -8.6      2.065      3.475
REMARK  Name = 10021692
REMARK  10 active torsions:
REMARK  status: ('A' for Active; 'I' for Inactive)
REMARK    1  A    between atoms: N_2  and  C_19
REMARK    2  A    between atoms: C_3  and  C_5
REMARK    3  A    between atoms: C_7  and  C_15
REMARK    4  A    between atoms: C_8  and  O_11
REMARK    5  A    between atoms: C_9  and  O_13
REMARK    6  A    between atoms: C_15  and  C_16
REMARK    7  A    between atoms: C_16  and  C_18
REMARK    8  A    between atoms: C_19  and  C_21
REMARK    9  A    between atoms: N_20  and  C_26
REMARK   10  A    between atoms: C_26  and  C_27
REMARK                            x       y       z     vdW  Elec       q    Type
REMARK                         _______ _______ _______ _____ _____    ______ ____
ROOT
ATOM      1  O   UNL     1      33.292 -20.313 -20.885  0.00  0.00    -0.270 OA
ATOM      2  N   UNL     1      35.595 -20.387 -20.611  0.00  0.00    -0.303 N 
ATOM      3  C   UNL     1      34.398 -19.791 -21.000  0.00  0.00    +0.249 C 
ATOM      4  H   UNL     1      36.433 -19.890 -20.744  0.00  0.00    +0.150 HD
ENDROOT
BRANCH   3   5
ATOM      5  C   UNL     1      34.504 -18.445 -21.618  0.00  0.00    +0.090 C 
ATOM      6  C   UNL     1      34.285 -17.343 -20.815  0.00  0.00    +0.003 C 
ATOM      7  C   UNL     1      34.379 -16.069 -21.375  0.00  0.00    -0.019 C 
ATOM      8  C   UNL     1      34.812 -18.325 -22.958  0.00  0.00    +0.177 C 
ATOM      9  C   UNL     1      34.906 -17.051 -23.519  0.00  0.00    +0.172 C 
ATOM     10  C   UNL     1      34.690 -15.923 -22.728  0.00  0.00    +0.036 C 
BRANCH   8  11
ATOM     11  O   UNL     1      35.025 -19.424 -23.739  0.00  0.00    -0.468 OA
ATOM     12  C   UNL     1      34.111 -19.643 -24.810  0.00  0.00    +0.253 C 
ENDBRANCH   8  11
BRANCH   9  13
ATOM     13  O   UNL     1      35.208 -16.895 -24.838  0.00  0.00    -0.468 OA
ATOM     14  C   UNL     1      34.292 -16.139 -25.628  0.00  0.00    +0.253 C 
ENDBRANCH   9  13
BRANCH   7  15
ATOM     15  C   UNL     1      34.149 -14.863 -20.529  0.00  0.00    +0.029 C 
BRANCH  15  16
ATOM     16  C   UNL     1      32.655 -14.544 -20.362  0.00  0.00    +0.043 C 
BRANCH  16  18
ATOM     17  F   UNL     1      31.929 -12.339 -20.009  0.00  0.00    -0.234 F 
ATOM     18  C   UNL     1      32.285 -13.211 -20.990  0.00  0.00    +0.194 C 
ENDBRANCH  16  18
ENDBRANCH  15  16
ENDBRANCH   7  15
ENDBRANCH   3   5
BRANCH   2  19
ATOM     19  C   UNL     1      35.658 -21.693 -20.024  0.00  0.00    +0.069 C 
BRANCH  19  21
ATOM     20  N   UNL     1      34.841 -22.773 -17.920  0.00  0.00    +0.392 N 
ATOM     21  C   UNL     1      35.539 -21.620 -18.506  0.00  0.00    -0.038 C 
ATOM     22  C   UNL     1      36.910 -21.675 -17.827  0.00  0.00    -0.021 C 
ATOM     23  C   UNL     1      36.680 -22.417 -16.516  0.00  0.00    -0.025 C 
ATOM     24  C   UNL     1      35.196 -22.746 -16.499  0.00  0.00    -0.077 C 
ATOM     25  H   UNL     1      35.127 -23.638 -18.379  0.00  0.00    -0.079 HD
BRANCH  20  26
ATOM     26  C   UNL     1      33.397 -22.731 -18.110  0.00  0.00    -0.050 C 
BRANCH  26  27
ATOM     27  C   UNL     1      32.664 -23.076 -16.851  0.00  0.00    -0.049 C 
ATOM     28  C   UNL     1      31.335 -22.996 -16.713  0.00  0.00    -0.007 C 
ENDBRANCH  26  27
ENDBRANCH  20  26
ENDBRANCH  19  21
ENDBRANCH   2  19
TORSDOF 10
ENDMDL
