MODEL 1
REMARK VINA RESULT:     -10.1      0.000      0.000
REMARK  Name = 5362460
REMARK  6 active torsions:
REMARK  status: ('A' for Active; 'I' for Inactive)
REMARK    1  A    between atoms: C_12  and  O_21
REMARK    2  A    between atoms: C_18  and  O_30
REMARK    3  A    between atoms: O_21  and  C_23
REMARK    4  A    between atoms: C_23  and  C_25
REMARK    5  A    between atoms: O_30  and  C_32
REMARK    6  A    between atoms: C_32  and  C_34
REMARK                            x       y       z     vdW  Elec       q    Type
REMARK                         _______ _______ _______ _____ _____    ______ ____
ROOT
ATOM      1  O   UNL     1      34.046 -23.919 -16.839  0.00  0.00    -0.472 OA
ATOM      2  N   UNL     1      37.580 -25.562 -13.327  0.00  0.00    +0.387 N 
ATOM      3  C   UNL     1      35.994 -24.379 -15.451  0.00  0.00    +0.062 C 
ATOM      4  C   UNL     1      37.212 -23.673 -14.836  0.00  0.00    +0.011 C 
ATOM      5  C   UNL     1      37.277 -24.110 -13.337  0.00  0.00    -0.049 C 
ATOM      6  C   UNL     1      35.516 -23.907 -16.844  0.00  0.00    +0.214 C 
ATOM      7  C   UNL     1      36.198 -25.906 -15.376  0.00  0.00    -0.015 C 
ATOM      8  C   UNL     1      34.780 -23.983 -14.679  0.00  0.00    +0.014 C 
ATOM      9  C   UNL     1      35.999 -23.696 -12.529  0.00  0.00    +0.006 C 
ATOM     10  C   UNL     1      36.547 -26.389 -13.959  0.00  0.00    -0.077 C 
ATOM     11  C   UNL     1      34.721 -23.719 -13.322  0.00  0.00    -0.025 C 
ATOM     12  C   UNL     1      36.058 -22.517 -17.271  0.00  0.00    +0.231 C 
ATOM     13  C   UNL     1      37.158 -22.182 -15.056  0.00  0.00    -0.029 C 
ATOM     14  C   UNL     1      33.705 -23.799 -15.519  0.00  0.00    +0.169 C 
ATOM     15  C   UNL     1      36.610 -21.661 -16.163  0.00  0.00    +0.016 C 
ATOM     16  C   UNL     1      37.937 -26.072 -12.007  0.00  0.00    -0.101 C 
ATOM     17  C   UNL     1      33.476 -23.373 -12.794  0.00  0.00    -0.001 C 
ATOM     18  C   UNL     1      32.464 -23.466 -15.020  0.00  0.00    +0.182 C 
ATOM     19  C   UNL     1      32.352 -23.268 -13.638  0.00  0.00    +0.040 C 
ATOM     20  H   UNL     1      38.411 -25.644 -13.912  0.00  0.00    -0.080 HD
ENDROOT
BRANCH  12  21
ATOM     21  O   UNL     1      35.056 -21.806 -17.995  0.00  0.00    -0.441 OA
BRANCH  21  23
ATOM     22  O   UNL     1      34.884 -23.122 -19.876  0.00  0.00    -0.245 OA
ATOM     23  C   UNL     1      35.015 -22.034 -19.334  0.00  0.00    +0.343 C 
BRANCH  23  25
ATOM     24  N   UNL     1      36.587 -19.035 -20.912  0.00  0.00    -0.242 NA
ATOM     25  C   UNL     1      35.155 -20.762 -20.086  0.00  0.00    +0.095 C 
ATOM     26  C   UNL     1      34.043 -20.160 -20.626  0.00  0.00    +0.010 C 
ATOM     27  C   UNL     1      36.390 -20.191 -20.240  0.00  0.00    +0.105 C 
ATOM     28  C   UNL     1      34.205 -18.969 -21.324  0.00  0.00    +0.021 C 
ATOM     29  C   UNL     1      35.485 -18.452 -21.438  0.00  0.00    +0.099 C 
ENDBRANCH  23  25
ENDBRANCH  21  23
ENDBRANCH  12  21
BRANCH  18  30
ATOM     30  O   UNL     1      31.393 -23.300 -15.834  0.00  0.00    -0.418 OA
BRANCH  30  32
ATOM     31  O   UNL     1      30.304 -25.119 -14.867  0.00  0.00    -0.244 OA
ATOM     32  C   UNL     1      30.276 -24.067 -15.487  0.00  0.00    +0.347 C 
BRANCH  32  34
ATOM     33  N   UNL     1      27.444 -23.206 -17.765  0.00  0.00    -0.242 NA
ATOM     34  C   UNL     1      29.020 -23.450 -15.987  0.00  0.00    +0.095 C 
ATOM     35  C   UNL     1      28.308 -22.598 -15.178  0.00  0.00    +0.010 C 
ATOM     36  C   UNL     1      28.577 -23.734 -17.251  0.00  0.00    +0.105 C 
ATOM     37  C   UNL     1      27.137 -22.036 -15.673  0.00  0.00    +0.021 C 
ATOM     38  C   UNL     1      26.752 -22.368 -16.961  0.00  0.00    +0.099 C 
ENDBRANCH  32  34
ENDBRANCH  30  32
ENDBRANCH  18  30
TORSDOF 6
ENDMDL
MODEL 2
REMARK VINA RESULT:     -10.0      1.645      2.185
REMARK  Name = 5362460
REMARK  6 active torsions:
REMARK  status: ('A' for Active; 'I' for Inactive)
REMARK    1  A    between atoms: C_12  and  O_21
REMARK    2  A    between atoms: C_18  and  O_30
REMARK    3  A    between atoms: O_21  and  C_23
REMARK    4  A    between atoms: C_23  and  C_25
REMARK    5  A    between atoms: O_30  and  C_32
REMARK    6  A    between atoms: C_32  and  C_34
REMARK                            x       y       z     vdW  Elec       q    Type
REMARK                         _______ _______ _______ _____ _____    ______ ____
ROOT
ATOM      1  O   UNL     1      34.158 -24.637 -15.395  0.00  0.00    -0.472 OA
ATOM      2  N   UNL     1      39.182 -25.749 -14.376  0.00  0.00    +0.387 N 
ATOM      3  C   UNL     1      36.582 -24.838 -15.293  0.00  0.00    +0.062 C 
ATOM      4  C   UNL     1      37.855 -23.989 -15.437  0.00  0.00    +0.011 C 
ATOM      5  C   UNL     1      38.768 -24.333 -14.217  0.00  0.00    -0.049 C 
ATOM      6  C   UNL     1      35.379 -24.491 -16.200  0.00  0.00    +0.214 C 
ATOM      7  C   UNL     1      36.957 -26.332 -15.344  0.00  0.00    -0.015 C 
ATOM      8  C   UNL     1      35.946 -24.511 -13.983  0.00  0.00    +0.014 C 
ATOM      9  C   UNL     1      38.096 -23.993 -12.842  0.00  0.00    +0.006 C 
ATOM     10  C   UNL     1      38.067 -26.701 -14.347  0.00  0.00    -0.077 C 
ATOM     11  C   UNL     1      36.603 -24.178 -12.812  0.00  0.00    -0.025 C 
ATOM     12  C   UNL     1      35.451 -23.083 -16.850  0.00  0.00    +0.231 C 
ATOM     13  C   UNL     1      37.532 -22.525 -15.589  0.00  0.00    -0.029 C 
ATOM     14  C   UNL     1      34.575 -24.474 -14.102  0.00  0.00    +0.169 C 
ATOM     15  C   UNL     1      36.420 -22.119 -16.219  0.00  0.00    +0.016 C 
ATOM     16  C   UNL     1      40.249 -26.148 -13.464  0.00  0.00    -0.101 C 
ATOM     17  C   UNL     1      35.813 -23.917 -11.690  0.00  0.00    -0.001 C 
ATOM     18  C   UNL     1      33.774 -24.228 -13.008  0.00  0.00    +0.182 C 
ATOM     19  C   UNL     1      34.408 -23.963 -11.786  0.00  0.00    +0.040 C 
ATOM     20  H   UNL     1      39.567 -25.787 -15.320  0.00  0.00    -0.080 HD
ENDROOT
BRANCH  12  21
ATOM     21  O   UNL     1      34.147 -22.509 -16.910  0.00  0.00    -0.441 OA
BRANCH  21  23
ATOM     22  O   UNL     1      32.663 -23.662 -18.238  0.00  0.00    -0.245 OA
ATOM     23  C   UNL     1      33.446 -22.743 -18.051  0.00  0.00    +0.343 C 
BRANCH  23  25
ATOM     24  N   UNL     1      35.391 -20.654 -20.459  0.00  0.00    -0.242 NA
ATOM     25  C   UNL     1      33.757 -21.716 -19.076  0.00  0.00    +0.095 C 
ATOM     26  C   UNL     1      32.754 -20.915 -19.569  0.00  0.00    +0.010 C 
ATOM     27  C   UNL     1      35.041 -21.568 -19.528  0.00  0.00    +0.105 C 
ATOM     28  C   UNL     1      33.075 -19.961 -20.528  0.00  0.00    +0.021 C 
ATOM     29  C   UNL     1      34.397 -19.871 -20.936  0.00  0.00    +0.099 C 
ENDBRANCH  23  25
ENDBRANCH  21  23
ENDBRANCH  12  21
BRANCH  18  30
ATOM     30  O   UNL     1      32.423 -24.206 -13.107  0.00  0.00    -0.418 OA
BRANCH  30  32
ATOM     31  O   UNL     1      32.346 -22.000 -13.855  0.00  0.00    -0.244 OA
ATOM     32  C   UNL     1      31.913 -23.142 -13.859  0.00  0.00    +0.347 C 
BRANCH  32  34
ATOM     33  N   UNL     1      28.967 -25.126 -15.017  0.00  0.00    -0.242 NA
ATOM     34  C   UNL     1      30.744 -23.567 -14.672  0.00  0.00    +0.095 C 
ATOM     35  C   UNL     1      30.375 -22.833 -15.773  0.00  0.00    +0.010 C 
ATOM     36  C   UNL     1      30.040 -24.687 -14.321  0.00  0.00    +0.105 C 
ATOM     37  C   UNL     1      29.277 -23.254 -16.515  0.00  0.00    +0.021 C 
ATOM     38  C   UNL     1      28.613 -24.398 -16.099  0.00  0.00    +0.099 C 
ENDBRANCH  32  34
ENDBRANCH  30  32
ENDBRANCH  18  30
TORSDOF 6
ENDMDL
MODEL 3
REMARK VINA RESULT:      -9.1     10.594     15.955
REMARK  Name = 5362460
REMARK  6 active torsions:
REMARK  status: ('A' for Active; 'I' for Inactive)
REMARK    1  A    between atoms: C_12  and  O_21
REMARK    2  A    between atoms: C_18  and  O_30
REMARK    3  A    between atoms: O_21  and  C_23
REMARK    4  A    between atoms: C_23  and  C_25
REMARK    5  A    between atoms: O_30  and  C_32
REMARK    6  A    between atoms: C_32  and  C_34
REMARK                            x       y       z     vdW  Elec       q    Type
REMARK                         _______ _______ _______ _____ _____    ______ ____
ROOT
ATOM      1  O   UNL     1      32.031 -10.461 -22.823  0.00  0.00    -0.472 OA
ATOM      2  N   UNL     1      31.376  -5.449 -24.226  0.00  0.00    +0.387 N 
ATOM      3  C   UNL     1      31.680  -8.057 -22.988  0.00  0.00    +0.062 C 
ATOM      4  C   UNL     1      32.030  -6.749 -22.261  0.00  0.00    +0.011 C 
ATOM      5  C   UNL     1      32.534  -5.748 -23.350  0.00  0.00    -0.049 C 
ATOM      6  C   UNL     1      31.430  -9.315 -22.124  0.00  0.00    +0.214 C 
ATOM      7  C   UNL     1      30.545  -7.791 -23.997  0.00  0.00    -0.015 C 
ATOM      8  C   UNL     1      32.899  -8.540 -23.699  0.00  0.00    +0.014 C 
ATOM      9  C   UNL     1      33.813  -6.261 -24.098  0.00  0.00    +0.006 C 
ATOM     10  C   UNL     1      30.853  -6.617 -24.941  0.00  0.00    -0.077 C 
ATOM     11  C   UNL     1      33.877  -7.753 -24.280  0.00  0.00    -0.025 C 
ATOM     12  C   UNL     1      31.962  -9.211 -20.670  0.00  0.00    +0.231 C 
ATOM     13  C   UNL     1      32.995  -6.985 -21.127  0.00  0.00    -0.029 C 
ATOM     14  C   UNL     1      33.002  -9.911 -23.616  0.00  0.00    +0.169 C 
ATOM     15  C   UNL     1      32.971  -8.123 -20.417  0.00  0.00    +0.016 C 
ATOM     16  C   UNL     1      31.607  -4.329 -25.133  0.00  0.00    -0.101 C 
ATOM     17  C   UNL     1      34.936  -8.411 -24.908  0.00  0.00    -0.001 C 
ATOM     18  C   UNL     1      34.032 -10.584 -24.235  0.00  0.00    +0.182 C 
ATOM     19  C   UNL     1      34.999  -9.820 -24.901  0.00  0.00    +0.040 C 
ATOM     20  H   UNL     1      30.644  -5.160 -23.577  0.00  0.00    -0.080 HD
ENDROOT
BRANCH  12  21
ATOM     21  O   UNL     1      32.476 -10.472 -20.249  0.00  0.00    -0.441 OA
BRANCH  21  23
ATOM     22  O   UNL     1      30.561 -11.181 -19.187  0.00  0.00    -0.245 OA
ATOM     23  C   UNL     1      31.553 -11.394 -19.868  0.00  0.00    +0.343 C 
BRANCH  23  25
ATOM     24  N   UNL     1      32.086 -14.197 -22.278  0.00  0.00    -0.242 NA
ATOM     25  C   UNL     1      31.905 -12.737 -20.396  0.00  0.00    +0.095 C 
ATOM     26  C   UNL     1      32.351 -13.713 -19.538  0.00  0.00    +0.010 C 
ATOM     27  C   UNL     1      31.783 -12.998 -21.734  0.00  0.00    +0.105 C 
ATOM     28  C   UNL     1      32.673 -14.961 -20.060  0.00  0.00    +0.021 C 
ATOM     29  C   UNL     1      32.524 -15.151 -21.424  0.00  0.00    +0.099 C 
ENDBRANCH  23  25
ENDBRANCH  21  23
ENDBRANCH  12  21
BRANCH  18  30
ATOM     30  O   UNL     1      34.135 -11.934 -24.177  0.00  0.00    -0.418 OA
BRANCH  30  32
ATOM     31  O   UNL     1      33.193 -12.068 -26.305  0.00  0.00    -0.244 OA
ATOM     32  C   UNL     1      33.691 -12.600 -25.325  0.00  0.00    +0.347 C 
BRANCH  32  34
ATOM     33  N   UNL     1      33.521 -16.246 -26.120  0.00  0.00    -0.242 NA
ATOM     34  C   UNL     1      33.885 -14.068 -25.207  0.00  0.00    +0.095 C 
ATOM     35  C   UNL     1      34.570 -14.583 -24.133  0.00  0.00    +0.010 C 
ATOM     36  C   UNL     1      33.380 -14.902 -26.168  0.00  0.00    +0.105 C 
ATOM     37  C   UNL     1      34.735 -15.961 -24.049  0.00  0.00    +0.021 C 
ATOM     38  C   UNL     1      34.196 -16.742 -25.059  0.00  0.00    +0.099 C 
ENDBRANCH  32  34
ENDBRANCH  30  32
ENDBRANCH  18  30
TORSDOF 6
ENDMDL
