MODEL 1
REMARK VINA RESULT:      -4.7      0.000      0.000
REMARK  Name = 5939
REMARK  2 active torsions:
REMARK  status: ('A' for Active; 'I' for Inactive)
REMARK    1  A    between atoms: N_1  and  C_4
REMARK    2  A    between atoms: N_1  and  C_11
REMARK                            x       y       z     vdW  Elec       q    Type
REMARK                         _______ _______ _______ _____ _____    ______ ____
ROOT
ATOM      1  N   UNL     1      38.419 -26.941 -14.772  0.00  0.00    -0.180 NA
ENDROOT
BRANCH   1   4
ATOM      2  N   UNL     1      36.884 -26.437 -13.091  0.00  0.00    -0.370 N 
ATOM      3  N   UNL     1      36.071 -26.658 -15.214  0.00  0.00    -0.370 N 
ATOM      4  C   UNL     1      37.187 -26.698 -14.406  0.00  0.00    +0.196 C 
ATOM      5  H   UNL     1      37.598 -26.437 -12.413  0.00  0.00    +0.159 HD
ATOM      6  H   UNL     1      35.954 -26.252 -12.827  0.00  0.00    +0.159 HD
ATOM      7  H   UNL     1      36.156 -26.827 -16.180  0.00  0.00    +0.159 HD
ATOM      8  H   UNL     1      35.189 -26.459 -14.824  0.00  0.00    +0.159 HD
ENDBRANCH   1   4
BRANCH   1  11
ATOM      9  N   UNL     1      40.589 -26.161 -14.136  0.00  0.00    -0.368 N 
ATOM     10  N   UNL     1      38.949 -24.741 -15.018  0.00  0.00    -0.267 NA
ATOM     11  C   UNL     1      39.339 -25.925 -14.650  0.00  0.00    +0.217 C 
ATOM     12  H   UNL     1      40.847 -27.073 -13.869  0.00  0.00    +0.159 HD
ATOM     13  H   UNL     1      41.229 -25.420 -14.036  0.00  0.00    +0.159 HD
ATOM     14  H   UNL     1      38.043 -24.612 -15.382  0.00  0.00    +0.190 HD
ENDBRANCH   1  11
TORSDOF 2
ENDMDL
MODEL 2
REMARK VINA RESULT:      -4.7      0.846      3.191
REMARK  Name = 5939
REMARK  2 active torsions:
REMARK  status: ('A' for Active; 'I' for Inactive)
REMARK    1  A    between atoms: N_1  and  C_4
REMARK    2  A    between atoms: N_1  and  C_11
REMARK                            x       y       z     vdW  Elec       q    Type
REMARK                         _______ _______ _______ _____ _____    ______ ____
ROOT
ATOM      1  N   UNL     1      37.943 -26.682 -14.237  0.00  0.00    -0.180 NA
ENDROOT
BRANCH   1   4
ATOM      2  N   UNL     1      40.235 -26.288 -14.074  0.00  0.00    -0.370 N 
ATOM      3  N   UNL     1      39.015 -24.838 -15.349  0.00  0.00    -0.370 N 
ATOM      4  C   UNL     1      38.987 -25.959 -14.549  0.00  0.00    +0.196 C 
ATOM      5  H   UNL     1      40.348 -27.071 -13.489  0.00  0.00    +0.159 HD
ATOM      6  H   UNL     1      41.015 -25.738 -14.318  0.00  0.00    +0.159 HD
ATOM      7  H   UNL     1      38.183 -24.500 -15.753  0.00  0.00    +0.159 HD
ATOM      8  H   UNL     1      39.868 -24.375 -15.518  0.00  0.00    +0.159 HD
ENDBRANCH   1   4
BRANCH   1  11
ATOM      9  N   UNL     1      35.716 -25.917 -14.657  0.00  0.00    -0.368 N 
ATOM     10  N   UNL     1      36.908 -27.226 -16.191  0.00  0.00    -0.267 NA
ATOM     11  C   UNL     1      36.837 -26.601 -15.053  0.00  0.00    +0.217 C 
ATOM     12  H   UNL     1      35.701 -25.456 -13.788  0.00  0.00    +0.159 HD
ATOM     13  H   UNL     1      34.925 -25.886 -15.243  0.00  0.00    +0.159 HD
ATOM     14  H   UNL     1      37.732 -27.706 -16.438  0.00  0.00    +0.190 HD
ENDBRANCH   1  11
TORSDOF 2
ENDMDL
MODEL 3
REMARK VINA RESULT:      -4.5     11.835     12.813
REMARK  Name = 5939
REMARK  2 active torsions:
REMARK  status: ('A' for Active; 'I' for Inactive)
REMARK    1  A    between atoms: N_1  and  C_4
REMARK    2  A    between atoms: N_1  and  C_11
REMARK                            x       y       z     vdW  Elec       q    Type
REMARK                         _______ _______ _______ _____ _____    ______ ____
ROOT
ATOM      1  N   UNL     1      41.706 -13.473 -15.765  0.00  0.00    -0.180 NA
ENDROOT
BRANCH   1   4
ATOM      2  N   UNL     1      42.869 -15.192 -16.827  0.00  0.00    -0.370 N 
ATOM      3  N   UNL     1      41.095 -14.287 -17.944  0.00  0.00    -0.370 N 
ATOM      4  C   UNL     1      41.860 -14.259 -16.799  0.00  0.00    +0.196 C 
ATOM      5  H   UNL     1      43.487 -15.271 -16.065  0.00  0.00    +0.159 HD
ATOM      6  H   UNL     1      42.974 -15.781 -17.609  0.00  0.00    +0.159 HD
ATOM      7  H   UNL     1      40.338 -13.666 -18.046  0.00  0.00    +0.159 HD
ATOM      8  H   UNL     1      41.305 -14.930 -18.660  0.00  0.00    +0.159 HD
ENDBRANCH   1   4
BRANCH   1  11
ATOM      9  N   UNL     1      40.649 -13.119 -13.648  0.00  0.00    -0.368 N 
ATOM     10  N   UNL     1      40.447 -15.128 -14.836  0.00  0.00    -0.267 NA
ATOM     11  C   UNL     1      40.909 -13.916 -14.733  0.00  0.00    +0.217 C 
ATOM     12  H   UNL     1      41.017 -12.206 -13.609  0.00  0.00    +0.159 HD
ATOM     13  H   UNL     1      40.094 -13.457 -12.909  0.00  0.00    +0.159 HD
ATOM     14  H   UNL     1      40.657 -15.668 -15.632  0.00  0.00    +0.190 HD
ENDBRANCH   1  11
TORSDOF 2
ENDMDL
MODEL 4
REMARK VINA RESULT:      -4.4      3.020      4.549
REMARK  Name = 5939
REMARK  2 active torsions:
REMARK  status: ('A' for Active; 'I' for Inactive)
REMARK    1  A    between atoms: N_1  and  C_4
REMARK    2  A    between atoms: N_1  and  C_11
REMARK                            x       y       z     vdW  Elec       q    Type
REMARK                         _______ _______ _______ _____ _____    ______ ____
ROOT
ATOM      1  N   UNL     1      36.490 -25.581 -11.916  0.00  0.00    -0.180 NA
ENDROOT
BRANCH   1   4
ATOM      2  N   UNL     1      38.268 -24.102 -11.627  0.00  0.00    -0.370 N 
ATOM      3  N   UNL     1      38.601 -25.872 -13.032  0.00  0.00    -0.370 N 
ATOM      4  C   UNL     1      37.718 -25.227 -12.195  0.00  0.00    +0.196 C 
ATOM      5  H   UNL     1      37.736 -23.552 -11.008  0.00  0.00    +0.159 HD
ATOM      6  H   UNL     1      39.195 -23.847 -11.841  0.00  0.00    +0.159 HD
ATOM      7  H   UNL     1      38.326 -26.694 -13.499  0.00  0.00    +0.159 HD
ATOM      8  H   UNL     1      39.508 -25.511 -13.161  0.00  0.00    +0.159 HD
ENDBRANCH   1   4
BRANCH   1  11
ATOM      9  N   UNL     1      35.086 -23.666 -12.209  0.00  0.00    -0.368 N 
ATOM     10  N   UNL     1      35.433 -24.667 -10.119  0.00  0.00    -0.267 NA
ATOM     11  C   UNL     1      35.644 -24.624 -11.401  0.00  0.00    +0.217 C 
ATOM     12  H   UNL     1      35.271 -23.669 -13.176  0.00  0.00    +0.159 HD
ATOM     13  H   UNL     1      34.500 -22.976 -11.822  0.00  0.00    +0.159 HD
ATOM     14  H   UNL     1      35.852 -25.371  -9.574  0.00  0.00    +0.190 HD
ENDBRANCH   1  11
TORSDOF 2
ENDMDL
MODEL 5
REMARK VINA RESULT:      -4.4     11.366     11.958
REMARK  Name = 5939
REMARK  2 active torsions:
REMARK  status: ('A' for Active; 'I' for Inactive)
REMARK    1  A    between atoms: N_1  and  C_4
REMARK    2  A    between atoms: N_1  and  C_11
REMARK                            x       y       z     vdW  Elec       q    Type
REMARK                         _______ _______ _______ _____ _____    ______ ____
ROOT
ATOM      1  N   UNL     1      41.262 -15.056 -17.237  0.00  0.00    -0.180 NA
ENDROOT
BRANCH   1   4
ATOM      2  N   UNL     1      40.500 -15.146 -15.035  0.00  0.00    -0.370 N 
ATOM      3  N   UNL     1      41.761 -13.337 -15.630  0.00  0.00    -0.370 N 
ATOM      4  C   UNL     1      41.193 -14.520 -16.045  0.00  0.00    +0.196 C 
ATOM      5  H   UNL     1      40.047 -16.002 -15.207  0.00  0.00    +0.159 HD
ATOM      6  H   UNL     1      40.457 -14.736 -14.141  0.00  0.00    +0.159 HD
ATOM      7  H   UNL     1      42.286 -12.794 -16.262  0.00  0.00    +0.159 HD
ATOM      8  H   UNL     1      41.644 -13.035 -14.700  0.00  0.00    +0.159 HD
ENDBRANCH   1   4
BRANCH   1  11
ATOM      9  N   UNL     1      42.375 -16.598 -18.688  0.00  0.00    -0.368 N 
ATOM     10  N   UNL     1      43.101 -16.179 -16.501  0.00  0.00    -0.267 NA
ATOM     11  C   UNL     1      42.275 -15.956 -17.480  0.00  0.00    +0.217 C 
ATOM     12  H   UNL     1      41.730 -16.401 -19.405  0.00  0.00    +0.159 HD
ATOM     13  H   UNL     1      43.093 -17.254 -18.839  0.00  0.00    +0.159 HD
ATOM     14  H   UNL     1      42.995 -15.697 -15.648  0.00  0.00    +0.190 HD
ENDBRANCH   1  11
TORSDOF 2
ENDMDL
MODEL 6
REMARK VINA RESULT:      -4.3      2.720      3.554
REMARK  Name = 5939
REMARK  2 active torsions:
REMARK  status: ('A' for Active; 'I' for Inactive)
REMARK    1  A    between atoms: N_1  and  C_4
REMARK    2  A    between atoms: N_1  and  C_11
REMARK                            x       y       z     vdW  Elec       q    Type
REMARK                         _______ _______ _______ _____ _____    ______ ____
ROOT
ATOM      1  N   UNL     1      37.408 -25.128 -11.703  0.00  0.00    -0.180 NA
ENDROOT
BRANCH   1   4
ATOM      2  N   UNL     1      38.994 -25.871 -13.241  0.00  0.00    -0.370 N 
ATOM      3  N   UNL     1      36.893 -26.752 -13.401  0.00  0.00    -0.370 N 
ATOM      4  C   UNL     1      37.720 -25.882 -12.725  0.00  0.00    +0.196 C 
ATOM      5  H   UNL     1      39.681 -25.288 -12.844  0.00  0.00    +0.159 HD
ATOM      6  H   UNL     1      39.219 -26.446 -14.009  0.00  0.00    +0.159 HD
ATOM      7  H   UNL     1      35.953 -26.853 -13.126  0.00  0.00    +0.159 HD
ATOM      8  H   UNL     1      37.243 -27.275 -14.158  0.00  0.00    +0.159 HD
ENDBRANCH   1   4
BRANCH   1  11
ATOM      9  N   UNL     1      36.139 -23.205 -12.346  0.00  0.00    -0.368 N 
ATOM     10  N   UNL     1      38.386 -23.072 -11.698  0.00  0.00    -0.267 NA
ATOM     11  C   UNL     1      37.310 -23.770 -11.910  0.00  0.00    +0.217 C 
ATOM     12  H   UNL     1      35.345 -23.769 -12.495  0.00  0.00    +0.159 HD
ATOM     13  H   UNL     1      36.091 -22.236 -12.510  0.00  0.00    +0.159 HD
ATOM     14  H   UNL     1      39.207 -23.516 -11.385  0.00  0.00    +0.190 HD
ENDBRANCH   1  11
TORSDOF 2
ENDMDL
MODEL 7
REMARK VINA RESULT:      -4.3      1.994      3.221
REMARK  Name = 5939
REMARK  2 active torsions:
REMARK  status: ('A' for Active; 'I' for Inactive)
REMARK    1  A    between atoms: N_1  and  C_4
REMARK    2  A    between atoms: N_1  and  C_11
REMARK                            x       y       z     vdW  Elec       q    Type
REMARK                         _______ _______ _______ _____ _____    ______ ____
ROOT
ATOM      1  N   UNL     1      36.232 -25.315 -15.319  0.00  0.00    -0.180 NA
ENDROOT
BRANCH   1   4
ATOM      2  N   UNL     1      38.141 -23.995 -15.541  0.00  0.00    -0.370 N 
ATOM      3  N   UNL     1      36.704 -23.476 -13.842  0.00  0.00    -0.370 N 
ATOM      4  C   UNL     1      36.966 -24.316 -14.903  0.00  0.00    +0.196 C 
ATOM      5  H   UNL     1      38.440 -24.522 -16.316  0.00  0.00    +0.159 HD
ATOM      6  H   UNL     1      38.683 -23.238 -15.221  0.00  0.00    +0.159 HD
ATOM      7  H   UNL     1      35.890 -23.602 -13.304  0.00  0.00    +0.159 HD
ATOM      8  H   UNL     1      37.332 -22.750 -13.624  0.00  0.00    +0.159 HD
ENDBRANCH   1   4
BRANCH   1  11
ATOM      9  N   UNL     1      37.116 -27.047 -13.926  0.00  0.00    -0.368 N 
ATOM     10  N   UNL     1      36.834 -27.311 -16.236  0.00  0.00    -0.267 NA
ATOM     11  C   UNL     1      36.729 -26.590 -15.159  0.00  0.00    +0.217 C 
ATOM     12  H   UNL     1      37.020 -26.470 -13.134  0.00  0.00    +0.159 HD
ATOM     13  H   UNL     1      37.488 -27.954 -13.831  0.00  0.00    +0.159 HD
ATOM     14  H   UNL     1      36.545 -26.945 -17.104  0.00  0.00    +0.190 HD
ENDBRANCH   1  11
TORSDOF 2
ENDMDL
MODEL 8
REMARK VINA RESULT:      -4.3      1.965      3.455
REMARK  Name = 5939
REMARK  2 active torsions:
REMARK  status: ('A' for Active; 'I' for Inactive)
REMARK    1  A    between atoms: N_1  and  C_4
REMARK    2  A    between atoms: N_1  and  C_11
REMARK                            x       y       z     vdW  Elec       q    Type
REMARK                         _______ _______ _______ _____ _____    ______ ____
ROOT
ATOM      1  N   UNL     1      39.051 -24.472 -13.260  0.00  0.00    -0.180 NA
ENDROOT
BRANCH   1   4
ATOM      2  N   UNL     1      38.460 -25.698 -15.152  0.00  0.00    -0.370 N 
ATOM      3  N   UNL     1      40.331 -26.361 -14.021  0.00  0.00    -0.370 N 
ATOM      4  C   UNL     1      39.289 -25.462 -14.080  0.00  0.00    +0.196 C 
ATOM      5  H   UNL     1      37.677 -25.123 -15.305  0.00  0.00    +0.159 HD
ATOM      6  H   UNL     1      38.651 -26.445 -15.766  0.00  0.00    +0.159 HD
ATOM      7  H   UNL     1      40.996 -26.296 -13.297  0.00  0.00    +0.159 HD
ATOM      8  H   UNL     1      40.410 -27.067 -14.702  0.00  0.00    +0.159 HD
ENDBRANCH   1   4
BRANCH   1  11
ATOM      9  N   UNL     1      37.768 -23.657 -11.412  0.00  0.00    -0.368 N 
ATOM     10  N   UNL     1      37.701 -25.894 -12.103  0.00  0.00    -0.267 NA
ATOM     11  C   UNL     1      38.146 -24.681 -12.243  0.00  0.00    +0.217 C 
ATOM     12  H   UNL     1      38.127 -22.751 -11.552  0.00  0.00    +0.159 HD
ATOM     13  H   UNL     1      37.136 -23.827 -10.677  0.00  0.00    +0.159 HD
ATOM     14  H   UNL     1      37.997 -26.601 -12.721  0.00  0.00    +0.190 HD
ENDBRANCH   1  11
TORSDOF 2
ENDMDL
MODEL 9
REMARK VINA RESULT:      -4.2      1.734      2.297
REMARK  Name = 5939
REMARK  2 active torsions:
REMARK  status: ('A' for Active; 'I' for Inactive)
REMARK    1  A    between atoms: N_1  and  C_4
REMARK    2  A    between atoms: N_1  and  C_11
REMARK                            x       y       z     vdW  Elec       q    Type
REMARK                         _______ _______ _______ _____ _____    ______ ____
ROOT
ATOM      1  N   UNL     1      39.189 -24.698 -13.522  0.00  0.00    -0.180 NA
ENDROOT
BRANCH   1   4
ATOM      2  N   UNL     1      38.109 -23.964 -11.591  0.00  0.00    -0.370 N 
ATOM      3  N   UNL     1      37.465 -25.983 -12.444  0.00  0.00    -0.370 N 
ATOM      4  C   UNL     1      38.300 -24.896 -12.584  0.00  0.00    +0.196 C 
ATOM      5  H   UNL     1      38.646 -23.140 -11.579  0.00  0.00    +0.159 HD
ATOM      6  H   UNL     1      37.434 -24.123 -10.891  0.00  0.00    +0.159 HD
ATOM      7  H   UNL     1      37.504 -26.721 -13.095  0.00  0.00    +0.159 HD
ATOM      8  H   UNL     1      36.828 -26.020 -11.694  0.00  0.00    +0.159 HD
ENDBRANCH   1   4
BRANCH   1  11
ATOM      9  N   UNL     1      40.645 -26.486 -14.158  0.00  0.00    -0.368 N 
ATOM     10  N   UNL     1      38.673 -25.993 -15.322  0.00  0.00    -0.267 NA
ATOM     11  C   UNL     1      39.501 -25.754 -14.348  0.00  0.00    +0.217 C 
ATOM     12  H   UNL     1      41.246 -26.274 -13.408  0.00  0.00    +0.159 HD
ATOM     13  H   UNL     1      40.864 -27.226 -14.770  0.00  0.00    +0.159 HD
ATOM     14  H   UNL     1      37.862 -25.444 -15.424  0.00  0.00    +0.190 HD
ENDBRANCH   1  11
TORSDOF 2
ENDMDL
