MODEL 1
REMARK VINA RESULT:      -4.0      0.000      0.000
REMARK  Name = 16213540
REMARK  6 active torsions:
REMARK  status: ('A' for Active; 'I' for Inactive)
REMARK    1  A    between atoms: N_1  and  C_2
REMARK    2  A    between atoms: N_1  and  C_6
REMARK    3  A    between atoms: N_1  and  C_10
REMARK    4  A    between atoms: N_1  and  C_14
REMARK    5  A    between atoms: C_14  and  C_15
REMARK    6  A    between atoms: C_15  and  O_16
REMARK                            x       y       z     vdW  Elec       q    Type
REMARK                         _______ _______ _______ _____ _____    ______ ____
ROOT
ATOM      1  N   UNL     1      41.969 -14.582 -16.606  0.00  0.00    +0.379 N 
ATOM      2  C   UNL     1      41.585 -15.963 -16.093  0.00  0.00    -0.092 C 
ATOM      3  C   UNL     1      41.230 -14.300 -17.906  0.00  0.00    -0.092 C 
ATOM      4  C   UNL     1      43.470 -14.533 -16.854  0.00  0.00    -0.092 C 
ENDROOT
BRANCH   1   5
ATOM      5  C   UNL     1      41.591 -13.533 -15.570  0.00  0.00    -0.044 C 
BRANCH   5   6
ATOM      6  C   UNL     1      40.745 -14.178 -14.490  0.00  0.00    +0.115 C 
BRANCH   6   7
ATOM      7  O   UNL     1      40.826 -13.407 -13.299  0.00  0.00    -0.384 OA
ATOM      8  H   UNL     1      40.700 -12.470 -13.512  0.00  0.00    +0.210 HD
ENDBRANCH   6   7
ENDBRANCH   5   6
ENDBRANCH   1   5
TORSDOF 3
ENDMDL
MODEL 2
REMARK VINA RESULT:      -3.9     11.522     12.417
REMARK  Name = 16213540
REMARK  6 active torsions:
REMARK  status: ('A' for Active; 'I' for Inactive)
REMARK    1  A    between atoms: N_1  and  C_2
REMARK    2  A    between atoms: N_1  and  C_6
REMARK    3  A    between atoms: N_1  and  C_10
REMARK    4  A    between atoms: N_1  and  C_14
REMARK    5  A    between atoms: C_14  and  C_15
REMARK    6  A    between atoms: C_15  and  O_16
REMARK                            x       y       z     vdW  Elec       q    Type
REMARK                         _______ _______ _______ _____ _____    ______ ____
ROOT
ATOM      1  N   UNL     1      38.318 -25.294 -14.047  0.00  0.00    +0.379 N 
ATOM      2  C   UNL     1      39.744 -25.564 -14.505  0.00  0.00    -0.092 C 
ATOM      3  C   UNL     1      37.695 -24.225 -14.932  0.00  0.00    -0.092 C 
ATOM      4  C   UNL     1      38.333 -24.813 -12.603  0.00  0.00    -0.092 C 
ENDROOT
BRANCH   1   5
ATOM      5  C   UNL     1      37.501 -26.574 -14.148  0.00  0.00    -0.044 C 
BRANCH   5   6
ATOM      6  C   UNL     1      36.486 -26.433 -15.265  0.00  0.00    +0.115 C 
BRANCH   6   7
ATOM      7  O   UNL     1      36.819 -27.320 -16.325  0.00  0.00    -0.384 OA
ATOM      8  H   UNL     1      36.077 -27.923 -16.487  0.00  0.00    +0.210 HD
ENDBRANCH   6   7
ENDBRANCH   5   6
ENDBRANCH   1   5
TORSDOF 3
ENDMDL
MODEL 3
REMARK VINA RESULT:      -3.9     11.283     12.166
REMARK  Name = 16213540
REMARK  6 active torsions:
REMARK  status: ('A' for Active; 'I' for Inactive)
REMARK    1  A    between atoms: N_1  and  C_2
REMARK    2  A    between atoms: N_1  and  C_6
REMARK    3  A    between atoms: N_1  and  C_10
REMARK    4  A    between atoms: N_1  and  C_14
REMARK    5  A    between atoms: C_14  and  C_15
REMARK    6  A    between atoms: C_15  and  O_16
REMARK                            x       y       z     vdW  Elec       q    Type
REMARK                         _______ _______ _______ _____ _____    ______ ____
ROOT
ATOM      1  N   UNL     1      37.802 -25.603 -13.973  0.00  0.00    +0.379 N 
ATOM      2  C   UNL     1      37.161 -26.604 -14.924  0.00  0.00    -0.092 C 
ATOM      3  C   UNL     1      37.224 -25.789 -12.577  0.00  0.00    -0.092 C 
ATOM      4  C   UNL     1      37.515 -24.189 -14.457  0.00  0.00    -0.092 C 
ENDROOT
BRANCH   1   5
ATOM      5  C   UNL     1      39.306 -25.831 -13.933  0.00  0.00    -0.044 C 
BRANCH   5   6
ATOM      6  C   UNL     1      39.956 -25.081 -15.079  0.00  0.00    +0.115 C 
BRANCH   6   7
ATOM      7  O   UNL     1      40.496 -26.009 -16.010  0.00  0.00    -0.384 OA
ATOM      8  H   UNL     1      40.199 -25.779 -16.904  0.00  0.00    +0.210 HD
ENDBRANCH   6   7
ENDBRANCH   5   6
ENDBRANCH   1   5
TORSDOF 3
ENDMDL
MODEL 4
REMARK VINA RESULT:      -3.9     11.505     12.419
REMARK  Name = 16213540
REMARK  6 active torsions:
REMARK  status: ('A' for Active; 'I' for Inactive)
REMARK    1  A    between atoms: N_1  and  C_2
REMARK    2  A    between atoms: N_1  and  C_6
REMARK    3  A    between atoms: N_1  and  C_10
REMARK    4  A    between atoms: N_1  and  C_14
REMARK    5  A    between atoms: C_14  and  C_15
REMARK    6  A    between atoms: C_15  and  O_16
REMARK                            x       y       z     vdW  Elec       q    Type
REMARK                         _______ _______ _______ _____ _____    ______ ____
ROOT
ATOM      1  N   UNL     1      38.383 -25.274 -14.043  0.00  0.00    +0.379 N 
ATOM      2  C   UNL     1      38.297 -24.837 -12.588  0.00  0.00    -0.092 C 
ATOM      3  C   UNL     1      39.844 -25.440 -14.438  0.00  0.00    -0.092 C 
ATOM      4  C   UNL     1      37.736 -24.217 -14.928  0.00  0.00    -0.092 C 
ENDROOT
BRANCH   1   5
ATOM      5  C   UNL     1      37.657 -26.599 -14.220  0.00  0.00    -0.044 C 
BRANCH   5   6
ATOM      6  C   UNL     1      36.571 -26.438 -15.267  0.00  0.00    +0.115 C 
BRANCH   6   7
ATOM      7  O   UNL     1      36.813 -27.333 -16.344  0.00  0.00    -0.384 OA
ATOM      8  H   UNL     1      36.062 -27.941 -16.433  0.00  0.00    +0.210 HD
ENDBRANCH   6   7
ENDBRANCH   5   6
ENDBRANCH   1   5
TORSDOF 3
ENDMDL
MODEL 5
REMARK VINA RESULT:      -3.8      1.577      2.048
REMARK  Name = 16213540
REMARK  6 active torsions:
REMARK  status: ('A' for Active; 'I' for Inactive)
REMARK    1  A    between atoms: N_1  and  C_2
REMARK    2  A    between atoms: N_1  and  C_6
REMARK    3  A    between atoms: N_1  and  C_10
REMARK    4  A    between atoms: N_1  and  C_14
REMARK    5  A    between atoms: C_14  and  C_15
REMARK    6  A    between atoms: C_15  and  O_16
REMARK                            x       y       z     vdW  Elec       q    Type
REMARK                         _______ _______ _______ _____ _____    ______ ____
ROOT
ATOM      1  N   UNL     1      42.141 -13.956 -16.915  0.00  0.00    +0.379 N 
ATOM      2  C   UNL     1      43.511 -14.620 -16.903  0.00  0.00    -0.092 C 
ATOM      3  C   UNL     1      41.358 -14.431 -18.131  0.00  0.00    -0.092 C 
ATOM      4  C   UNL     1      42.312 -12.445 -16.981  0.00  0.00    -0.092 C 
ENDROOT
BRANCH   1   5
ATOM      5  C   UNL     1      41.385 -14.327 -15.649  0.00  0.00    -0.044 C 
BRANCH   5   6
ATOM      6  C   UNL     1      41.279 -15.837 -15.553  0.00  0.00    +0.115 C 
BRANCH   6   7
ATOM      7  O   UNL     1      39.961 -16.198 -15.164  0.00  0.00    -0.384 OA
ATOM      8  H   UNL     1      39.339 -15.516 -15.460  0.00  0.00    +0.210 HD
ENDBRANCH   6   7
ENDBRANCH   5   6
ENDBRANCH   1   5
TORSDOF 3
ENDMDL
MODEL 6
REMARK VINA RESULT:      -3.7     10.728     11.448
REMARK  Name = 16213540
REMARK  6 active torsions:
REMARK  status: ('A' for Active; 'I' for Inactive)
REMARK    1  A    between atoms: N_1  and  C_2
REMARK    2  A    between atoms: N_1  and  C_6
REMARK    3  A    between atoms: N_1  and  C_10
REMARK    4  A    between atoms: N_1  and  C_14
REMARK    5  A    between atoms: C_14  and  C_15
REMARK    6  A    between atoms: C_15  and  O_16
REMARK                            x       y       z     vdW  Elec       q    Type
REMARK                         _______ _______ _______ _____ _____    ______ ____
ROOT
ATOM      1  N   UNL     1      38.191 -25.393 -13.882  0.00  0.00    +0.379 N 
ATOM      2  C   UNL     1      37.761 -24.252 -14.793  0.00  0.00    -0.092 C 
ATOM      3  C   UNL     1      39.697 -25.586 -13.986  0.00  0.00    -0.092 C 
ATOM      4  C   UNL     1      37.485 -26.674 -14.306  0.00  0.00    -0.092 C 
ENDROOT
BRANCH   1   5
ATOM      5  C   UNL     1      37.821 -25.062 -12.443  0.00  0.00    -0.044 C 
BRANCH   5   6
ATOM      6  C   UNL     1      37.538 -23.576 -12.330  0.00  0.00    +0.115 C 
BRANCH   6   7
ATOM      7  O   UNL     1      38.593 -22.944 -11.617  0.00  0.00    -0.384 OA
ATOM      8  H   UNL     1      38.409 -22.985 -10.665  0.00  0.00    +0.210 HD
ENDBRANCH   6   7
ENDBRANCH   5   6
ENDBRANCH   1   5
TORSDOF 3
ENDMDL
MODEL 7
REMARK VINA RESULT:      -3.7     11.455     12.507
REMARK  Name = 16213540
REMARK  6 active torsions:
REMARK  status: ('A' for Active; 'I' for Inactive)
REMARK    1  A    between atoms: N_1  and  C_2
REMARK    2  A    between atoms: N_1  and  C_6
REMARK    3  A    between atoms: N_1  and  C_10
REMARK    4  A    between atoms: N_1  and  C_14
REMARK    5  A    between atoms: C_14  and  C_15
REMARK    6  A    between atoms: C_15  and  O_16
REMARK                            x       y       z     vdW  Elec       q    Type
REMARK                         _______ _______ _______ _____ _____    ______ ____
ROOT
ATOM      1  N   UNL     1      36.651 -24.600 -14.000  0.00  0.00    +0.379 N 
ATOM      2  C   UNL     1      35.679 -24.445 -12.839  0.00  0.00    -0.092 C 
ATOM      3  C   UNL     1      37.963 -25.180 -13.489  0.00  0.00    -0.092 C 
ATOM      4  C   UNL     1      36.910 -23.238 -14.628  0.00  0.00    -0.092 C 
ENDROOT
BRANCH   1   5
ATOM      5  C   UNL     1      36.055 -25.535 -15.041  0.00  0.00    -0.044 C 
BRANCH   5   6
ATOM      6  C   UNL     1      36.920 -26.776 -15.153  0.00  0.00    +0.115 C 
BRANCH   6   7
ATOM      7  O   UNL     1      36.754 -27.357 -16.439  0.00  0.00    -0.384 OA
ATOM      8  H   UNL     1      37.441 -27.022 -17.036  0.00  0.00    +0.210 HD
ENDBRANCH   6   7
ENDBRANCH   5   6
ENDBRANCH   1   5
TORSDOF 3
ENDMDL
MODEL 8
REMARK VINA RESULT:      -3.6      9.762     10.494
REMARK  Name = 16213540
REMARK  6 active torsions:
REMARK  status: ('A' for Active; 'I' for Inactive)
REMARK    1  A    between atoms: N_1  and  C_2
REMARK    2  A    between atoms: N_1  and  C_6
REMARK    3  A    between atoms: N_1  and  C_10
REMARK    4  A    between atoms: N_1  and  C_14
REMARK    5  A    between atoms: C_14  and  C_15
REMARK    6  A    between atoms: C_15  and  O_16
REMARK                            x       y       z     vdW  Elec       q    Type
REMARK                         _______ _______ _______ _____ _____    ______ ____
ROOT
ATOM      1  N   UNL     1      34.778 -18.899 -21.478  0.00  0.00    +0.379 N 
ATOM      2  C   UNL     1      34.843 -19.086 -22.987  0.00  0.00    -0.092 C 
ATOM      3  C   UNL     1      34.884 -17.418 -21.145  0.00  0.00    -0.092 C 
ATOM      4  C   UNL     1      35.930 -19.649 -20.824  0.00  0.00    -0.092 C 
ENDROOT
BRANCH   1   5
ATOM      5  C   UNL     1      33.456 -19.443 -20.955  0.00  0.00    -0.044 C 
BRANCH   5   6
ATOM      6  C   UNL     1      33.720 -20.680 -20.119  0.00  0.00    +0.115 C 
BRANCH   6   7
ATOM      7  O   UNL     1      32.581 -20.965 -19.317  0.00  0.00    -0.384 OA
ATOM      8  H   UNL     1      32.744 -21.768 -18.799  0.00  0.00    +0.210 HD
ENDBRANCH   6   7
ENDBRANCH   5   6
ENDBRANCH   1   5
TORSDOF 3
ENDMDL
MODEL 9
REMARK VINA RESULT:      -3.6     14.552     15.260
REMARK  Name = 16213540
REMARK  6 active torsions:
REMARK  status: ('A' for Active; 'I' for Inactive)
REMARK    1  A    between atoms: N_1  and  C_2
REMARK    2  A    between atoms: N_1  and  C_6
REMARK    3  A    between atoms: N_1  and  C_10
REMARK    4  A    between atoms: N_1  and  C_14
REMARK    5  A    between atoms: C_14  and  C_15
REMARK    6  A    between atoms: C_15  and  O_16
REMARK                            x       y       z     vdW  Elec       q    Type
REMARK                         _______ _______ _______ _____ _____    ______ ____
ROOT
ATOM      1  N   UNL     1      30.454 -23.557 -15.691  0.00  0.00    +0.379 N 
ATOM      2  C   UNL     1      30.095 -25.036 -15.662  0.00  0.00    -0.092 C 
ATOM      3  C   UNL     1      31.791 -23.374 -16.394  0.00  0.00    -0.092 C 
ATOM      4  C   UNL     1      30.555 -23.033 -14.265  0.00  0.00    -0.092 C 
ENDROOT
BRANCH   1   5
ATOM      5  C   UNL     1      29.377 -22.787 -16.441  0.00  0.00    -0.044 C 
BRANCH   5   6
ATOM      6  C   UNL     1      28.263 -23.739 -16.833  0.00  0.00    +0.115 C 
BRANCH   6   7
ATOM      7  O   UNL     1      27.586 -23.232 -17.975  0.00  0.00    -0.384 OA
ATOM      8  H   UNL     1      27.076 -23.945 -18.391  0.00  0.00    +0.210 HD
ENDBRANCH   6   7
ENDBRANCH   5   6
ENDBRANCH   1   5
TORSDOF 3
ENDMDL
