MODEL 1
REMARK VINA RESULT:      -8.6      0.000      0.000
REMARK  Name = 68026984
REMARK  5 active torsions:
REMARK  status: ('A' for Active; 'I' for Inactive)
REMARK    1  A    between atoms: C_2  and  C_12
REMARK    2  A    between atoms: C_3  and  C_20
REMARK    3  A    between atoms: C_9  and  O_28
REMARK    4  A    between atoms: C_17  and  O_18
REMARK    5  A    between atoms: C_25  and  O_26
REMARK                            x       y       z     vdW  Elec       q    Type
REMARK                         _______ _______ _______ _____ _____    ______ ____
ROOT
ATOM      1  O   UNL     1      35.300 -24.039 -12.468  0.00  0.00    -0.476 OA
ATOM      2  C   UNL     1      34.345 -24.849 -15.157  0.00  0.00    +0.055 C 
ATOM      3  C   UNL     1      33.405 -24.447 -13.985  0.00  0.00    +0.074 C 
ATOM      4  C   UNL     1      35.731 -25.141 -14.612  0.00  0.00    +0.016 C 
ATOM      5  C   UNL     1      34.124 -23.466 -13.050  0.00  0.00    +0.210 C 
ATOM      6  C   UNL     1      36.117 -24.718 -13.332  0.00  0.00    +0.134 C 
ATOM      7  C   UNL     1      36.652 -25.857 -15.397  0.00  0.00    +0.002 C 
ATOM      8  C   UNL     1      37.393 -25.021 -12.845  0.00  0.00    +0.045 C 
ATOM      9  C   UNL     1      38.298 -25.728 -13.636  0.00  0.00    +0.133 C 
ATOM     10  C   UNL     1      37.928 -26.145 -14.912  0.00  0.00    +0.036 C 
ATOM     11  C   UNL     1      37.802 -24.584 -11.473  0.00  0.00    +0.037 C 
ENDROOT
BRANCH   2  12
ATOM     12  C   UNL     1      34.359 -23.871 -16.329  0.00  0.00    -0.018 C 
ATOM     13  C   UNL     1      33.317 -23.878 -17.256  0.00  0.00    -0.001 C 
ATOM     14  C   UNL     1      35.415 -22.970 -16.472  0.00  0.00    -0.001 C 
ATOM     15  C   UNL     1      33.330 -22.984 -18.326  0.00  0.00    +0.036 C 
ATOM     16  C   UNL     1      35.428 -22.077 -17.543  0.00  0.00    +0.036 C 
ATOM     17  C   UNL     1      34.386 -22.083 -18.470  0.00  0.00    +0.134 C 
BRANCH  17  18
ATOM     18  O   UNL     1      34.399 -21.212 -19.515  0.00  0.00    -0.506 OA
ATOM     19  H   UNL     1      34.760 -20.353 -19.405  0.00  0.00    +0.292 HD
ENDBRANCH  17  18
ENDBRANCH   2  12
BRANCH   3  20
ATOM     20  C   UNL     1      32.017 -24.022 -14.430  0.00  0.00    -0.018 C 
ATOM     21  C   UNL     1      31.697 -22.667 -14.516  0.00  0.00    -0.001 C 
ATOM     22  C   UNL     1      31.062 -24.987 -14.752  0.00  0.00    -0.001 C 
ATOM     23  C   UNL     1      30.421 -22.277 -14.924  0.00  0.00    +0.036 C 
ATOM     24  C   UNL     1      29.787 -24.596 -15.160  0.00  0.00    +0.036 C 
ATOM     25  C   UNL     1      29.466 -23.241 -15.247  0.00  0.00    +0.134 C 
BRANCH  25  26
ATOM     26  O   UNL     1      28.221 -22.860 -15.645  0.00  0.00    -0.506 OA
ATOM     27  H   UNL     1      27.478 -23.384 -15.422  0.00  0.00    +0.292 HD
ENDBRANCH  25  26
ENDBRANCH   3  20
BRANCH   9  28
ATOM     28  O   UNL     1      39.546 -26.023 -13.177  0.00  0.00    -0.506 OA
ATOM     29  H   UNL     1      40.269 -25.467 -13.393  0.00  0.00    +0.292 HD
ENDBRANCH   9  28
TORSDOF 5
ENDMDL
MODEL 2
REMARK VINA RESULT:      -7.7     13.255     17.258
REMARK  Name = 68026984
REMARK  5 active torsions:
REMARK  status: ('A' for Active; 'I' for Inactive)
REMARK    1  A    between atoms: C_2  and  C_12
REMARK    2  A    between atoms: C_3  and  C_20
REMARK    3  A    between atoms: C_9  and  O_28
REMARK    4  A    between atoms: C_17  and  O_18
REMARK    5  A    between atoms: C_25  and  O_26
REMARK                            x       y       z     vdW  Elec       q    Type
REMARK                         _______ _______ _______ _____ _____    ______ ____
ROOT
ATOM      1  O   UNL     1      34.601  -8.587 -24.613  0.00  0.00    -0.476 OA
ATOM      2  C   UNL     1      32.167  -9.999 -23.676  0.00  0.00    +0.055 C 
ATOM      3  C   UNL     1      33.412 -10.714 -24.270  0.00  0.00    +0.074 C 
ATOM      4  C   UNL     1      32.227  -8.520 -24.014  0.00  0.00    +0.016 C 
ATOM      5  C   UNL     1      34.672  -9.880 -24.005  0.00  0.00    +0.210 C 
ATOM      6  C   UNL     1      33.418  -7.917 -24.443  0.00  0.00    +0.134 C 
ATOM      7  C   UNL     1      31.069  -7.732 -23.905  0.00  0.00    +0.002 C 
ATOM      8  C   UNL     1      33.441  -6.558 -24.771  0.00  0.00    +0.045 C 
ATOM      9  C   UNL     1      32.286  -5.786 -24.654  0.00  0.00    +0.133 C 
ATOM     10  C   UNL     1      31.100  -6.373 -24.220  0.00  0.00    +0.036 C 
ATOM     11  C   UNL     1      34.708  -5.915 -25.244  0.00  0.00    +0.037 C 
ENDROOT
BRANCH   2  12
ATOM     12  C   UNL     1      31.927 -10.261 -22.191  0.00  0.00    -0.018 C 
ATOM     13  C   UNL     1      31.231 -11.399 -21.787  0.00  0.00    -0.001 C 
ATOM     14  C   UNL     1      32.405  -9.360 -21.238  0.00  0.00    -0.001 C 
ATOM     15  C   UNL     1      31.012 -11.639 -20.431  0.00  0.00    +0.036 C 
ATOM     16  C   UNL     1      32.186  -9.599 -19.881  0.00  0.00    +0.036 C 
ATOM     17  C   UNL     1      31.490 -10.739 -19.477  0.00  0.00    +0.134 C 
BRANCH  17  18
ATOM     18  O   UNL     1      31.276 -10.972 -18.154  0.00  0.00    -0.506 OA
ATOM     19  H   UNL     1      30.404 -11.108 -17.837  0.00  0.00    +0.292 HD
ENDBRANCH  17  18
ENDBRANCH   2  12
BRANCH   3  20
ATOM     20  C   UNL     1      33.513 -12.182 -23.895  0.00  0.00    -0.018 C 
ATOM     21  C   UNL     1      34.093 -12.554 -22.682  0.00  0.00    -0.001 C 
ATOM     22  C   UNL     1      33.027 -13.159 -24.764  0.00  0.00    -0.001 C 
ATOM     23  C   UNL     1      34.187 -13.902 -22.338  0.00  0.00    +0.036 C 
ATOM     24  C   UNL     1      33.120 -14.508 -24.419  0.00  0.00    +0.036 C 
ATOM     25  C   UNL     1      33.700 -14.879 -23.206  0.00  0.00    +0.134 C 
BRANCH  25  26
ATOM     26  O   UNL     1      33.791 -16.195 -22.871  0.00  0.00    -0.506 OA
ATOM     27  H   UNL     1      33.696 -16.458 -21.977  0.00  0.00    +0.292 HD
ENDBRANCH  25  26
ENDBRANCH   3  20
BRANCH   9  28
ATOM     28  O   UNL     1      32.296  -4.460 -24.964  0.00  0.00    -0.506 OA
ATOM     29  H   UNL     1      32.216  -3.820 -24.284  0.00  0.00    +0.292 HD
ENDBRANCH   9  28
TORSDOF 5
ENDMDL
MODEL 3
REMARK VINA RESULT:      -7.2      1.397      6.351
REMARK  Name = 68026984
REMARK  5 active torsions:
REMARK  status: ('A' for Active; 'I' for Inactive)
REMARK    1  A    between atoms: C_2  and  C_12
REMARK    2  A    between atoms: C_3  and  C_20
REMARK    3  A    between atoms: C_9  and  O_28
REMARK    4  A    between atoms: C_17  and  O_18
REMARK    5  A    between atoms: C_25  and  O_26
REMARK                            x       y       z     vdW  Elec       q    Type
REMARK                         _______ _______ _______ _____ _____    ______ ____
ROOT
ATOM      1  O   UNL     1      31.457 -25.621 -14.217  0.00  0.00    -0.476 OA
ATOM      2  C   UNL     1      32.994 -23.112 -14.584  0.00  0.00    +0.055 C 
ATOM      3  C   UNL     1      33.477 -24.308 -13.716  0.00  0.00    +0.074 C 
ATOM      4  C   UNL     1      31.510 -23.260 -14.863  0.00  0.00    +0.016 C 
ATOM      5  C   UNL     1      32.888 -25.618 -14.255  0.00  0.00    +0.210 C 
ATOM      6  C   UNL     1      30.849 -24.483 -14.675  0.00  0.00    +0.134 C 
ATOM      7  C   UNL     1      30.771 -22.152 -15.313  0.00  0.00    +0.002 C 
ATOM      8  C   UNL     1      29.476 -24.586 -14.918  0.00  0.00    +0.045 C 
ATOM      9  C   UNL     1      28.756 -23.481 -15.367  0.00  0.00    +0.133 C 
ATOM     10  C   UNL     1      29.403 -22.264 -15.566  0.00  0.00    +0.036 C 
ATOM     11  C   UNL     1      28.766 -25.887 -14.703  0.00  0.00    +0.037 C 
ENDROOT
BRANCH   2  12
ATOM     12  C   UNL     1      33.817 -22.866 -15.847  0.00  0.00    -0.018 C 
ATOM     13  C   UNL     1      35.123 -22.389 -15.747  0.00  0.00    -0.001 C 
ATOM     14  C   UNL     1      33.259 -23.118 -17.101  0.00  0.00    -0.001 C 
ATOM     15  C   UNL     1      35.874 -22.165 -16.901  0.00  0.00    +0.036 C 
ATOM     16  C   UNL     1      34.010 -22.892 -18.255  0.00  0.00    +0.036 C 
ATOM     17  C   UNL     1      35.318 -22.417 -18.155  0.00  0.00    +0.134 C 
BRANCH  17  18
ATOM     18  O   UNL     1      36.049 -22.197 -19.280  0.00  0.00    -0.506 OA
ATOM     19  H   UNL     1      36.562 -21.416 -19.362  0.00  0.00    +0.292 HD
ENDBRANCH  17  18
ENDBRANCH   2  12
BRANCH   3  20
ATOM     20  C   UNL     1      34.975 -24.322 -13.470  0.00  0.00    -0.018 C 
ATOM     21  C   UNL     1      35.804 -25.123 -14.256  0.00  0.00    -0.001 C 
ATOM     22  C   UNL     1      35.523 -23.534 -12.458  0.00  0.00    -0.001 C 
ATOM     23  C   UNL     1      37.180 -25.137 -14.029  0.00  0.00    +0.036 C 
ATOM     24  C   UNL     1      36.900 -23.547 -12.232  0.00  0.00    +0.036 C 
ATOM     25  C   UNL     1      37.728 -24.348 -13.018  0.00  0.00    +0.134 C 
BRANCH  25  26
ATOM     26  O   UNL     1      39.071 -24.361 -12.796  0.00  0.00    -0.506 OA
ATOM     27  H   UNL     1      39.660 -24.553 -13.499  0.00  0.00    +0.292 HD
ENDBRANCH  25  26
ENDBRANCH   3  20
BRANCH   9  28
ATOM     28  O   UNL     1      27.419 -23.569 -15.613  0.00  0.00    -0.506 OA
ATOM     29  H   UNL     1      26.808 -23.156 -15.036  0.00  0.00    +0.292 HD
ENDBRANCH   9  28
TORSDOF 5
ENDMDL
MODEL 4
REMARK VINA RESULT:      -7.0      2.542      6.277
REMARK  Name = 68026984
REMARK  5 active torsions:
REMARK  status: ('A' for Active; 'I' for Inactive)
REMARK    1  A    between atoms: C_2  and  C_12
REMARK    2  A    between atoms: C_3  and  C_20
REMARK    3  A    between atoms: C_9  and  O_28
REMARK    4  A    between atoms: C_17  and  O_18
REMARK    5  A    between atoms: C_25  and  O_26
REMARK                            x       y       z     vdW  Elec       q    Type
REMARK                         _______ _______ _______ _____ _____    ______ ____
ROOT
ATOM      1  O   UNL     1      33.917 -23.129 -16.760  0.00  0.00    -0.476 OA
ATOM      2  C   UNL     1      36.532 -22.684 -15.433  0.00  0.00    +0.055 C 
ATOM      3  C   UNL     1      35.198 -22.916 -14.669  0.00  0.00    +0.074 C 
ATOM      4  C   UNL     1      36.229 -22.332 -16.878  0.00  0.00    +0.016 C 
ATOM      5  C   UNL     1      34.247 -23.766 -15.521  0.00  0.00    +0.210 C 
ATOM      6  C   UNL     1      34.970 -22.580 -17.442  0.00  0.00    +0.134 C 
ATOM      7  C   UNL     1      37.224 -21.737 -17.673  0.00  0.00    +0.002 C 
ATOM      8  C   UNL     1      34.710 -22.225 -18.769  0.00  0.00    +0.045 C 
ATOM      9  C   UNL     1      35.707 -21.639 -19.549  0.00  0.00    +0.133 C 
ATOM     10  C   UNL     1      36.964 -21.396 -19.001  0.00  0.00    +0.036 C 
ATOM     11  C   UNL     1      33.361 -22.475 -19.369  0.00  0.00    +0.037 C 
ENDROOT
BRANCH   2  12
ATOM     12  C   UNL     1      37.551 -23.813 -15.295  0.00  0.00    -0.018 C 
ATOM     13  C   UNL     1      37.119 -25.119 -15.068  0.00  0.00    -0.001 C 
ATOM     14  C   UNL     1      38.915 -23.536 -15.397  0.00  0.00    -0.001 C 
ATOM     15  C   UNL     1      38.050 -26.149 -14.942  0.00  0.00    +0.036 C 
ATOM     16  C   UNL     1      39.847 -24.566 -15.270  0.00  0.00    +0.036 C 
ATOM     17  C   UNL     1      39.414 -25.873 -15.044  0.00  0.00    +0.134 C 
BRANCH  17  18
ATOM     18  O   UNL     1      40.323 -26.878 -14.920  0.00  0.00    -0.506 OA
ATOM     19  H   UNL     1      40.904 -27.074 -15.629  0.00  0.00    +0.292 HD
ENDBRANCH  17  18
ENDBRANCH   2  12
BRANCH   3  20
ATOM     20  C   UNL     1      35.384 -23.386 -13.237  0.00  0.00    -0.018 C 
ATOM     21  C   UNL     1      34.450 -24.245 -12.658  0.00  0.00    -0.001 C 
ATOM     22  C   UNL     1      36.489 -22.958 -12.501  0.00  0.00    -0.001 C 
ATOM     23  C   UNL     1      34.621 -24.676 -11.342  0.00  0.00    +0.036 C 
ATOM     24  C   UNL     1      36.661 -23.390 -11.186  0.00  0.00    +0.036 C 
ATOM     25  C   UNL     1      35.726 -24.249 -10.606  0.00  0.00    +0.134 C 
BRANCH  25  26
ATOM     26  O   UNL     1      35.893 -24.669  -9.322  0.00  0.00    -0.506 OA
ATOM     27  H   UNL     1      35.541 -25.493  -9.050  0.00  0.00    +0.292 HD
ENDBRANCH  25  26
ENDBRANCH   3  20
BRANCH   9  28
ATOM     28  O   UNL     1      35.469 -21.294 -20.845  0.00  0.00    -0.506 OA
ATOM     29  H   UNL     1      35.457 -20.391 -21.094  0.00  0.00    +0.292 HD
ENDBRANCH   9  28
TORSDOF 5
ENDMDL
MODEL 5
REMARK VINA RESULT:      -6.6     16.621     19.973
REMARK  Name = 68026984
REMARK  5 active torsions:
REMARK  status: ('A' for Active; 'I' for Inactive)
REMARK    1  A    between atoms: C_2  and  C_12
REMARK    2  A    between atoms: C_3  and  C_20
REMARK    3  A    between atoms: C_9  and  O_28
REMARK    4  A    between atoms: C_17  and  O_18
REMARK    5  A    between atoms: C_25  and  O_26
REMARK                            x       y       z     vdW  Elec       q    Type
REMARK                         _______ _______ _______ _____ _____    ______ ____
ROOT
ATOM      1  O   UNL     1      31.721  -9.338 -23.343  0.00  0.00    -0.476 OA
ATOM      2  C   UNL     1      32.829  -6.694 -22.584  0.00  0.00    +0.055 C 
ATOM      3  C   UNL     1      32.967  -7.321 -24.000  0.00  0.00    +0.074 C 
ATOM      4  C   UNL     1      32.416  -7.770 -21.596  0.00  0.00    +0.016 C 
ATOM      5  C   UNL     1      31.784  -8.256 -24.278  0.00  0.00    +0.210 C 
ATOM      6  C   UNL     1      31.890  -8.996 -22.028  0.00  0.00    +0.134 C 
ATOM      7  C   UNL     1      32.569  -7.545 -20.217  0.00  0.00    +0.002 C 
ATOM      8  C   UNL     1      31.540  -9.979 -21.098  0.00  0.00    +0.045 C 
ATOM      9  C   UNL     1      31.693  -9.742 -19.732  0.00  0.00    +0.133 C 
ATOM     10  C   UNL     1      32.206  -8.524 -19.292  0.00  0.00    +0.036 C 
ATOM     11  C   UNL     1      30.993 -11.295 -21.557  0.00  0.00    +0.037 C 
ENDROOT
BRANCH   2  12
ATOM     12  C   UNL     1      31.940  -5.453 -22.520  0.00  0.00    -0.018 C 
ATOM     13  C   UNL     1      32.405  -4.236 -23.014  0.00  0.00    -0.001 C 
ATOM     14  C   UNL     1      30.663  -5.540 -21.965  0.00  0.00    -0.001 C 
ATOM     15  C   UNL     1      31.594  -3.103 -22.955  0.00  0.00    +0.036 C 
ATOM     16  C   UNL     1      29.851  -4.407 -21.905  0.00  0.00    +0.036 C 
ATOM     17  C   UNL     1      30.316  -3.188 -22.401  0.00  0.00    +0.134 C 
BRANCH  17  18
ATOM     18  O   UNL     1      29.525  -2.084 -22.342  0.00  0.00    -0.506 OA
ATOM     19  H   UNL     1      29.707  -1.409 -21.717  0.00  0.00    +0.292 HD
ENDBRANCH  17  18
ENDBRANCH   2  12
BRANCH   3  20
ATOM     20  C   UNL     1      33.267  -6.309 -25.092  0.00  0.00    -0.018 C 
ATOM     21  C   UNL     1      32.235  -5.543 -25.635  0.00  0.00    -0.001 C 
ATOM     22  C   UNL     1      34.574  -6.147 -25.553  0.00  0.00    -0.001 C 
ATOM     23  C   UNL     1      32.511  -4.615 -26.639  0.00  0.00    +0.036 C 
ATOM     24  C   UNL     1      34.849  -5.217 -26.557  0.00  0.00    +0.036 C 
ATOM     25  C   UNL     1      33.817  -4.451 -27.100  0.00  0.00    +0.134 C 
BRANCH  25  26
ATOM     26  O   UNL     1      34.086  -3.545 -28.079  0.00  0.00    -0.506 OA
ATOM     27  H   UNL     1      33.453  -2.890 -28.297  0.00  0.00    +0.292 HD
ENDBRANCH  25  26
ENDBRANCH   3  20
BRANCH   9  28
ATOM     28  O   UNL     1      31.350 -10.688 -18.815  0.00  0.00    -0.506 OA
ATOM     29  H   UNL     1      31.839 -10.769 -18.019  0.00  0.00    +0.292 HD
ENDBRANCH   9  28
TORSDOF 5
ENDMDL
MODEL 6
REMARK VINA RESULT:      -6.4     15.463     19.102
REMARK  Name = 68026984
REMARK  5 active torsions:
REMARK  status: ('A' for Active; 'I' for Inactive)
REMARK    1  A    between atoms: C_2  and  C_12
REMARK    2  A    between atoms: C_3  and  C_20
REMARK    3  A    between atoms: C_9  and  O_28
REMARK    4  A    between atoms: C_17  and  O_18
REMARK    5  A    between atoms: C_25  and  O_26
REMARK                            x       y       z     vdW  Elec       q    Type
REMARK                         _______ _______ _______ _____ _____    ______ ____
ROOT
ATOM      1  O   UNL     1      31.417  -5.641 -24.414  0.00  0.00    -0.476 OA
ATOM      2  C   UNL     1      33.670  -7.381 -23.580  0.00  0.00    +0.055 C 
ATOM      3  C   UNL     1      32.439  -7.063 -22.685  0.00  0.00    +0.074 C 
ATOM      4  C   UNL     1      33.729  -6.385 -24.725  0.00  0.00    +0.016 C 
ATOM      5  C   UNL     1      31.214  -6.772 -23.561  0.00  0.00    +0.210 C 
ATOM      6  C   UNL     1      32.619  -5.601 -25.069  0.00  0.00    +0.134 C 
ATOM      7  C   UNL     1      34.919  -6.235 -25.456  0.00  0.00    +0.002 C 
ATOM      8  C   UNL     1      32.707  -4.675 -26.113  0.00  0.00    +0.045 C 
ATOM      9  C   UNL     1      33.893  -4.538 -26.833  0.00  0.00    +0.133 C 
ATOM     10  C   UNL     1      34.999  -5.318 -26.505  0.00  0.00    +0.036 C 
ATOM     11  C   UNL     1      31.528  -3.825 -26.473  0.00  0.00    +0.037 C 
ENDROOT
BRANCH   2  12
ATOM     12  C   UNL     1      33.763  -8.832 -24.046  0.00  0.00    -0.018 C 
ATOM     13  C   UNL     1      32.607  -9.603 -24.162  0.00  0.00    -0.001 C 
ATOM     14  C   UNL     1      35.005  -9.385 -24.356  0.00  0.00    -0.001 C 
ATOM     15  C   UNL     1      32.692 -10.928 -24.588  0.00  0.00    +0.036 C 
ATOM     16  C   UNL     1      35.091 -10.711 -24.782  0.00  0.00    +0.036 C 
ATOM     17  C   UNL     1      33.934 -11.482 -24.899  0.00  0.00    +0.134 C 
BRANCH  17  18
ATOM     18  O   UNL     1      34.017 -12.775 -25.313  0.00  0.00    -0.506 OA
ATOM     19  H   UNL     1      33.393 -13.406 -25.010  0.00  0.00    +0.292 HD
ENDBRANCH  17  18
ENDBRANCH   2  12
BRANCH   3  20
ATOM     20  C   UNL     1      32.216  -8.068 -21.569  0.00  0.00    -0.018 C 
ATOM     21  C   UNL     1      31.487  -9.232 -21.814  0.00  0.00    -0.001 C 
ATOM     22  C   UNL     1      32.739  -7.828 -20.298  0.00  0.00    -0.001 C 
ATOM     23  C   UNL     1      31.282 -10.155 -20.789  0.00  0.00    +0.036 C 
ATOM     24  C   UNL     1      32.535  -8.752 -19.273  0.00  0.00    +0.036 C 
ATOM     25  C   UNL     1      31.806  -9.915 -19.518  0.00  0.00    +0.134 C 
BRANCH  25  26
ATOM     26  O   UNL     1      31.605 -10.816 -18.518  0.00  0.00    -0.506 OA
ATOM     27  H   UNL     1      32.274 -10.962 -17.879  0.00  0.00    +0.292 HD
ENDBRANCH  25  26
ENDBRANCH   3  20
BRANCH   9  28
ATOM     28  O   UNL     1      33.992  -3.645 -27.857  0.00  0.00    -0.506 OA
ATOM     29  H   UNL     1      34.608  -3.790 -28.548  0.00  0.00    +0.292 HD
ENDBRANCH   9  28
TORSDOF 5
ENDMDL
MODEL 7
REMARK VINA RESULT:      -6.4     10.313     14.282
REMARK  Name = 68026984
REMARK  5 active torsions:
REMARK  status: ('A' for Active; 'I' for Inactive)
REMARK    1  A    between atoms: C_2  and  C_12
REMARK    2  A    between atoms: C_3  and  C_20
REMARK    3  A    between atoms: C_9  and  O_28
REMARK    4  A    between atoms: C_17  and  O_18
REMARK    5  A    between atoms: C_25  and  O_26
REMARK                            x       y       z     vdW  Elec       q    Type
REMARK                         _______ _______ _______ _____ _____    ______ ____
ROOT
ATOM      1  O   UNL     1      32.026 -11.504 -21.530  0.00  0.00    -0.476 OA
ATOM      2  C   UNL     1      34.006 -13.107 -23.049  0.00  0.00    +0.055 C 
ATOM      3  C   UNL     1      33.420 -13.527 -21.672  0.00  0.00    +0.074 C 
ATOM      4  C   UNL     1      33.729 -11.633 -23.285  0.00  0.00    +0.016 C 
ATOM      5  C   UNL     1      32.016 -12.935 -21.496  0.00  0.00    +0.210 C 
ATOM      6  C   UNL     1      32.770 -10.940 -22.532  0.00  0.00    +0.134 C 
ATOM      7  C   UNL     1      34.451 -10.937 -24.270  0.00  0.00    +0.002 C 
ATOM      8  C   UNL     1      32.551  -9.577 -22.754  0.00  0.00    +0.045 C 
ATOM      9  C   UNL     1      33.271  -8.899 -23.737  0.00  0.00    +0.133 C 
ATOM     10  C   UNL     1      34.220  -9.580 -24.496  0.00  0.00    +0.036 C 
ATOM     11  C   UNL     1      31.538  -8.832 -21.941  0.00  0.00    +0.037 C 
ENDROOT
BRANCH   2  12
ATOM     12  C   UNL     1      33.578 -13.988 -24.221  0.00  0.00    -0.018 C 
ATOM     13  C   UNL     1      32.674 -13.503 -25.165  0.00  0.00    -0.001 C 
ATOM     14  C   UNL     1      34.094 -15.279 -24.347  0.00  0.00    -0.001 C 
ATOM     15  C   UNL     1      32.283 -14.307 -26.235  0.00  0.00    +0.036 C 
ATOM     16  C   UNL     1      33.702 -16.084 -25.416  0.00  0.00    +0.036 C 
ATOM     17  C   UNL     1      32.798 -15.598 -26.361  0.00  0.00    +0.134 C 
BRANCH  17  18
ATOM     18  O   UNL     1      32.417 -16.383 -27.404  0.00  0.00    -0.506 OA
ATOM     19  H   UNL     1      32.989 -16.499 -28.138  0.00  0.00    +0.292 HD
ENDBRANCH  17  18
ENDBRANCH   2  12
BRANCH   3  20
ATOM     20  C   UNL     1      33.540 -15.013 -21.382  0.00  0.00    -0.018 C 
ATOM     21  C   UNL     1      34.799 -15.605 -21.287  0.00  0.00    -0.001 C 
ATOM     22  C   UNL     1      32.391 -15.785 -21.211  0.00  0.00    -0.001 C 
ATOM     23  C   UNL     1      34.909 -16.970 -21.022  0.00  0.00    +0.036 C 
ATOM     24  C   UNL     1      32.501 -17.150 -20.945  0.00  0.00    +0.036 C 
ATOM     25  C   UNL     1      33.760 -17.743 -20.850  0.00  0.00    +0.134 C 
BRANCH  25  26
ATOM     26  O   UNL     1      33.868 -19.075 -20.591  0.00  0.00    -0.506 OA
ATOM     27  H   UNL     1      33.150 -19.647 -20.776  0.00  0.00    +0.292 HD
ENDBRANCH  25  26
ENDBRANCH   3  20
BRANCH   9  28
ATOM     28  O   UNL     1      33.063  -7.573 -23.967  0.00  0.00    -0.506 OA
ATOM     29  H   UNL     1      32.756  -7.286 -24.805  0.00  0.00    +0.292 HD
ENDBRANCH   9  28
TORSDOF 5
ENDMDL
MODEL 8
REMARK VINA RESULT:      -6.3     11.035     14.078
REMARK  Name = 68026984
REMARK  5 active torsions:
REMARK  status: ('A' for Active; 'I' for Inactive)
REMARK    1  A    between atoms: C_2  and  C_12
REMARK    2  A    between atoms: C_3  and  C_20
REMARK    3  A    between atoms: C_9  and  O_28
REMARK    4  A    between atoms: C_17  and  O_18
REMARK    5  A    between atoms: C_25  and  O_26
REMARK                            x       y       z     vdW  Elec       q    Type
REMARK                         _______ _______ _______ _____ _____    ______ ____
ROOT
ATOM      1  O   UNL     1      34.014 -15.403 -21.874  0.00  0.00    -0.476 OA
ATOM      2  C   UNL     1      32.492 -13.266 -23.257  0.00  0.00    +0.055 C 
ATOM      3  C   UNL     1      32.413 -13.539 -21.729  0.00  0.00    +0.074 C 
ATOM      4  C   UNL     1      33.119 -14.462 -23.950  0.00  0.00    +0.016 C 
ATOM      5  C   UNL     1      33.730 -14.153 -21.237  0.00  0.00    +0.210 C 
ATOM      6  C   UNL     1      33.834 -15.431 -23.231  0.00  0.00    +0.134 C 
ATOM      7  C   UNL     1      32.980 -14.614 -25.340  0.00  0.00    +0.002 C 
ATOM      8  C   UNL     1      34.382 -16.535 -23.891  0.00  0.00    +0.045 C 
ATOM      9  C   UNL     1      34.240 -16.672 -25.271  0.00  0.00    +0.133 C 
ATOM     10  C   UNL     1      33.539 -15.711 -25.996  0.00  0.00    +0.036 C 
ATOM     11  C   UNL     1      35.133 -17.579 -23.123  0.00  0.00    +0.037 C 
ENDROOT
BRANCH   2  12
ATOM     12  C   UNL     1      33.154 -11.943 -23.636  0.00  0.00    -0.018 C 
ATOM     13  C   UNL     1      32.669 -10.745 -23.112  0.00  0.00    -0.001 C 
ATOM     14  C   UNL     1      34.243 -11.934 -24.508  0.00  0.00    -0.001 C 
ATOM     15  C   UNL     1      33.274  -9.537 -23.459  0.00  0.00    +0.036 C 
ATOM     16  C   UNL     1      34.848 -10.725 -24.855  0.00  0.00    +0.036 C 
ATOM     17  C   UNL     1      34.363  -9.527 -24.330  0.00  0.00    +0.134 C 
BRANCH  17  18
ATOM     18  O   UNL     1      34.953  -8.348 -24.669  0.00  0.00    -0.506 OA
ATOM     19  H   UNL     1      35.115  -7.699 -24.012  0.00  0.00    +0.292 HD
ENDBRANCH  17  18
ENDBRANCH   2  12
BRANCH   3  20
ATOM     20  C   UNL     1      31.905 -12.359 -20.920  0.00  0.00    -0.018 C 
ATOM     21  C   UNL     1      30.692 -11.755 -21.254  0.00  0.00    -0.001 C 
ATOM     22  C   UNL     1      32.650 -11.878 -19.843  0.00  0.00    -0.001 C 
ATOM     23  C   UNL     1      30.225 -10.670 -20.512  0.00  0.00    +0.036 C 
ATOM     24  C   UNL     1      32.182 -10.793 -19.101  0.00  0.00    +0.036 C 
ATOM     25  C   UNL     1      30.970 -10.190 -19.435  0.00  0.00    +0.134 C 
BRANCH  25  26
ATOM     26  O   UNL     1      30.514  -9.131 -18.711  0.00  0.00    -0.506 OA
ATOM     27  H   UNL     1      30.129  -9.271 -17.869  0.00  0.00    +0.292 HD
ENDBRANCH  25  26
ENDBRANCH   3  20
BRANCH   9  28
ATOM     28  O   UNL     1      34.774 -17.740 -25.927  0.00  0.00    -0.506 OA
ATOM     29  H   UNL     1      34.211 -18.372 -26.329  0.00  0.00    +0.292 HD
ENDBRANCH   9  28
TORSDOF 5
ENDMDL
MODEL 9
REMARK VINA RESULT:      -6.3     11.211     15.112
REMARK  Name = 68026984
REMARK  5 active torsions:
REMARK  status: ('A' for Active; 'I' for Inactive)
REMARK    1  A    between atoms: C_2  and  C_12
REMARK    2  A    between atoms: C_3  and  C_20
REMARK    3  A    between atoms: C_9  and  O_28
REMARK    4  A    between atoms: C_17  and  O_18
REMARK    5  A    between atoms: C_25  and  O_26
REMARK                            x       y       z     vdW  Elec       q    Type
REMARK                         _______ _______ _______ _____ _____    ______ ____
ROOT
ATOM      1  O   UNL     1      31.870 -10.519 -21.801  0.00  0.00    -0.476 OA
ATOM      2  C   UNL     1      34.002 -12.105 -23.119  0.00  0.00    +0.055 C 
ATOM      3  C   UNL     1      33.272 -12.541 -21.817  0.00  0.00    +0.074 C 
ATOM      4  C   UNL     1      33.752 -10.627 -23.364  0.00  0.00    +0.016 C 
ATOM      5  C   UNL     1      31.857 -11.950 -21.786  0.00  0.00    +0.210 C 
ATOM      6  C   UNL     1      32.717  -9.943 -22.710  0.00  0.00    +0.134 C 
ATOM      7  C   UNL     1      34.574  -9.920 -24.257  0.00  0.00    +0.002 C 
ATOM      8  C   UNL     1      32.522  -8.577 -22.937  0.00  0.00    +0.045 C 
ATOM      9  C   UNL     1      33.343  -7.888 -23.829  0.00  0.00    +0.133 C 
ATOM     10  C   UNL     1      34.369  -8.560 -24.490  0.00  0.00    +0.036 C 
ATOM     11  C   UNL     1      31.428  -7.841 -22.229  0.00  0.00    +0.037 C 
ENDROOT
BRANCH   2  12
ATOM     12  C   UNL     1      33.703 -12.971 -24.340  0.00  0.00    -0.018 C 
ATOM     13  C   UNL     1      33.719 -14.360 -24.231  0.00  0.00    -0.001 C 
ATOM     14  C   UNL     1      33.415 -12.370 -25.566  0.00  0.00    -0.001 C 
ATOM     15  C   UNL     1      33.446 -15.151 -25.346  0.00  0.00    +0.036 C 
ATOM     16  C   UNL     1      33.142 -13.161 -26.683  0.00  0.00    +0.036 C 
ATOM     17  C   UNL     1      33.157 -14.552 -26.573  0.00  0.00    +0.134 C 
BRANCH  17  18
ATOM     18  O   UNL     1      32.891 -15.323 -27.661  0.00  0.00    -0.506 OA
ATOM     19  H   UNL     1      33.373 -16.114 -27.804  0.00  0.00    +0.292 HD
ENDBRANCH  17  18
ENDBRANCH   2  12
BRANCH   3  20
ATOM     20  C   UNL     1      33.361 -14.030 -21.535  0.00  0.00    -0.018 C 
ATOM     21  C   UNL     1      32.196 -14.780 -21.372  0.00  0.00    -0.001 C 
ATOM     22  C   UNL     1      34.608 -14.649 -21.437  0.00  0.00    -0.001 C 
ATOM     23  C   UNL     1      32.278 -16.148 -21.111  0.00  0.00    +0.036 C 
ATOM     24  C   UNL     1      34.689 -16.017 -21.177  0.00  0.00    +0.036 C 
ATOM     25  C   UNL     1      33.524 -16.767 -21.014  0.00  0.00    +0.134 C 
BRANCH  25  26
ATOM     26  O   UNL     1      33.604 -18.101 -20.760  0.00  0.00    -0.506 OA
ATOM     27  H   UNL     1      33.095 -18.477 -20.069  0.00  0.00    +0.292 HD
ENDBRANCH  25  26
ENDBRANCH   3  20
BRANCH   9  28
ATOM     28  O   UNL     1      33.161  -6.559 -24.064  0.00  0.00    -0.506 OA
ATOM     29  H   UNL     1      33.439  -6.185 -24.877  0.00  0.00    +0.292 HD
ENDBRANCH   9  28
TORSDOF 5
ENDMDL
