MODEL 1
REMARK VINA RESULT:      -7.0      0.000      0.000
REMARK  Name = 82315
REMARK  2 active torsions:
REMARK  status: ('A' for Active; 'I' for Inactive)
REMARK    1  A    between atoms: C_1  and  N_7
REMARK    2  A    between atoms: C_6  and  O_12
REMARK                            x       y       z     vdW  Elec       q    Type
REMARK                         _______ _______ _______ _____ _____    ______ ____
ROOT
ATOM      1  C   UNL     1      34.714 -19.896 -20.766  0.00  0.00    +0.057 C 
ATOM      2  C   UNL     1      33.435 -20.297 -20.380  0.00  0.00    +0.018 C 
ATOM      3  C   UNL     1      35.832 -20.584 -20.293  0.00  0.00    +0.018 C 
ATOM      4  C   UNL     1      33.273 -21.387 -19.525  0.00  0.00    +0.038 C 
ATOM      5  C   UNL     1      35.671 -21.674 -19.439  0.00  0.00    +0.038 C 
ATOM      6  C   UNL     1      34.391 -22.075 -19.053  0.00  0.00    +0.134 C 
ENDROOT
BRANCH   1   7
ATOM      7  N   UNL     1      34.874 -18.815 -21.614  0.00  0.00    -0.246 N 
ATOM      8  N   UNL     1      35.131 -16.705 -22.283  0.00  0.00    -0.224 NA
ATOM      9  C   UNL     1      34.953 -18.854 -22.982  0.00  0.00    +0.092 C 
ATOM     10  C   UNL     1      34.985 -17.498 -21.245  0.00  0.00    +0.172 C 
ATOM     11  C   UNL     1      35.110 -17.544 -23.369  0.00  0.00    +0.117 C 
ENDBRANCH   1   7
BRANCH   6  12
ATOM     12  O   UNL     1      34.234 -23.138 -18.218  0.00  0.00    -0.506 OA
ATOM     13  H   UNL     1      33.853 -23.932 -18.538  0.00  0.00    +0.292 HD
ENDBRANCH   6  12
TORSDOF 2
ENDMDL
MODEL 2
REMARK VINA RESULT:      -6.9      3.394      5.520
REMARK  Name = 82315
REMARK  2 active torsions:
REMARK  status: ('A' for Active; 'I' for Inactive)
REMARK    1  A    between atoms: C_1  and  N_7
REMARK    2  A    between atoms: C_6  and  O_12
REMARK                            x       y       z     vdW  Elec       q    Type
REMARK                         _______ _______ _______ _____ _____    ______ ____
ROOT
ATOM      1  C   UNL     1      35.101 -18.309 -22.825  0.00  0.00    +0.057 C 
ATOM      2  C   UNL     1      35.154 -16.918 -22.730  0.00  0.00    +0.018 C 
ATOM      3  C   UNL     1      34.719 -18.911 -24.024  0.00  0.00    +0.018 C 
ATOM      4  C   UNL     1      34.826 -16.131 -23.833  0.00  0.00    +0.038 C 
ATOM      5  C   UNL     1      34.391 -18.124 -25.127  0.00  0.00    +0.038 C 
ATOM      6  C   UNL     1      34.443 -16.733 -25.032  0.00  0.00    +0.134 C 
ENDROOT
BRANCH   1   7
ATOM      7  N   UNL     1      35.427 -19.090 -21.731  0.00  0.00    -0.246 N 
ATOM      8  N   UNL     1      36.608 -19.916 -20.031  0.00  0.00    -0.224 NA
ATOM      9  C   UNL     1      34.638 -20.047 -21.146  0.00  0.00    +0.092 C 
ATOM     10  C   UNL     1      36.601 -19.052 -21.021  0.00  0.00    +0.172 C 
ATOM     11  C   UNL     1      35.387 -20.541 -20.104  0.00  0.00    +0.117 C 
ENDBRANCH   1   7
BRANCH   6  12
ATOM     12  O   UNL     1      34.122 -15.965 -26.108  0.00  0.00    -0.506 OA
ATOM     13  H   UNL     1      33.310 -15.497 -26.124  0.00  0.00    +0.292 HD
ENDBRANCH   6  12
TORSDOF 2
ENDMDL
MODEL 3
REMARK VINA RESULT:      -6.9      3.047      5.095
REMARK  Name = 82315
REMARK  2 active torsions:
REMARK  status: ('A' for Active; 'I' for Inactive)
REMARK    1  A    between atoms: C_1  and  N_7
REMARK    2  A    between atoms: C_6  and  O_12
REMARK                            x       y       z     vdW  Elec       q    Type
REMARK                         _______ _______ _______ _____ _____    ______ ____
ROOT
ATOM      1  C   UNL     1      34.519 -19.076 -21.499  0.00  0.00    +0.057 C 
ATOM      2  C   UNL     1      34.563 -17.776 -20.995  0.00  0.00    +0.018 C 
ATOM      3  C   UNL     1      34.833 -19.316 -22.838  0.00  0.00    +0.018 C 
ATOM      4  C   UNL     1      34.921 -16.717 -21.828  0.00  0.00    +0.038 C 
ATOM      5  C   UNL     1      35.192 -18.256 -23.670  0.00  0.00    +0.038 C 
ATOM      6  C   UNL     1      35.235 -16.956 -23.166  0.00  0.00    +0.134 C 
ENDROOT
BRANCH   1   7
ATOM      7  N   UNL     1      34.164 -20.127 -20.673  0.00  0.00    -0.246 N 
ATOM      8  N   UNL     1      32.876 -21.564 -19.558  0.00  0.00    -0.224 NA
ATOM      9  C   UNL     1      35.017 -20.965 -20.002  0.00  0.00    +0.092 C 
ATOM     10  C   UNL     1      32.888 -20.531 -20.370  0.00  0.00    +0.172 C 
ATOM     11  C   UNL     1      34.201 -21.839 -19.323  0.00  0.00    +0.117 C 
ENDBRANCH   1   7
BRANCH   6  12
ATOM     12  O   UNL     1      35.584 -15.922 -23.980  0.00  0.00    -0.506 OA
ATOM     13  H   UNL     1      36.125 -15.231 -23.651  0.00  0.00    +0.292 HD
ENDBRANCH   6  12
TORSDOF 2
ENDMDL
MODEL 4
REMARK VINA RESULT:      -6.7      3.316      4.656
REMARK  Name = 82315
REMARK  2 active torsions:
REMARK  status: ('A' for Active; 'I' for Inactive)
REMARK    1  A    between atoms: C_1  and  N_7
REMARK    2  A    between atoms: C_6  and  O_12
REMARK                            x       y       z     vdW  Elec       q    Type
REMARK                         _______ _______ _______ _____ _____    ______ ____
ROOT
ATOM      1  C   UNL     1      34.499 -16.583 -23.405  0.00  0.00    +0.057 C 
ATOM      2  C   UNL     1      34.444 -16.126 -22.088  0.00  0.00    +0.018 C 
ATOM      3  C   UNL     1      35.101 -17.808 -23.693  0.00  0.00    +0.018 C 
ATOM      4  C   UNL     1      34.990 -16.894 -21.061  0.00  0.00    +0.038 C 
ATOM      5  C   UNL     1      35.647 -18.576 -22.666  0.00  0.00    +0.038 C 
ATOM      6  C   UNL     1      35.593 -18.118 -21.349  0.00  0.00    +0.134 C 
ENDROOT
BRANCH   1   7
ATOM      7  N   UNL     1      33.957 -15.821 -24.425  0.00  0.00    -0.246 N 
ATOM      8  N   UNL     1      33.298 -15.236 -26.472  0.00  0.00    -0.224 NA
ATOM      9  C   UNL     1      33.404 -14.572 -24.307  0.00  0.00    +0.092 C 
ATOM     10  C   UNL     1      33.868 -16.174 -25.748  0.00  0.00    +0.172 C 
ATOM     11  C   UNL     1      33.007 -14.234 -25.579  0.00  0.00    +0.117 C 
ENDBRANCH   1   7
BRANCH   6  12
ATOM     12  O   UNL     1      36.127 -18.868 -20.346  0.00  0.00    -0.506 OA
ATOM     13  H   UNL     1      36.879 -19.402 -20.511  0.00  0.00    +0.292 HD
ENDBRANCH   6  12
TORSDOF 2
ENDMDL
MODEL 5
REMARK VINA RESULT:      -6.6      3.069      5.113
REMARK  Name = 82315
REMARK  2 active torsions:
REMARK  status: ('A' for Active; 'I' for Inactive)
REMARK    1  A    between atoms: C_1  and  N_7
REMARK    2  A    between atoms: C_6  and  O_12
REMARK                            x       y       z     vdW  Elec       q    Type
REMARK                         _______ _______ _______ _____ _____    ______ ____
ROOT
ATOM      1  C   UNL     1      35.073 -20.280 -20.451  0.00  0.00    +0.057 C 
ATOM      2  C   UNL     1      36.383 -19.813 -20.551  0.00  0.00    +0.018 C 
ATOM      3  C   UNL     1      34.080 -19.756 -21.279  0.00  0.00    +0.018 C 
ATOM      4  C   UNL     1      36.701 -18.823 -21.480  0.00  0.00    +0.038 C 
ATOM      5  C   UNL     1      34.398 -18.766 -22.208  0.00  0.00    +0.038 C 
ATOM      6  C   UNL     1      35.709 -18.298 -22.308  0.00  0.00    +0.134 C 
ENDROOT
BRANCH   1   7
ATOM      7  N   UNL     1      34.758 -21.262 -19.529  0.00  0.00    -0.246 N 
ATOM      8  N   UNL     1      35.021 -22.762 -17.901  0.00  0.00    -0.224 NA
ATOM      9  C   UNL     1      33.521 -21.816 -19.314  0.00  0.00    +0.092 C 
ATOM     10  C   UNL     1      35.623 -21.868 -18.653  0.00  0.00    +0.172 C 
ATOM     11  C   UNL     1      33.710 -22.735 -18.310  0.00  0.00    +0.117 C 
ENDBRANCH   1   7
BRANCH   6  12
ATOM     12  O   UNL     1      36.019 -17.331 -23.214  0.00  0.00    -0.506 OA
ATOM     13  H   UNL     1      35.724 -17.408 -24.100  0.00  0.00    +0.292 HD
ENDBRANCH   6  12
TORSDOF 2
ENDMDL
MODEL 6
REMARK VINA RESULT:      -6.6      7.810      8.642
REMARK  Name = 82315
REMARK  2 active torsions:
REMARK  status: ('A' for Active; 'I' for Inactive)
REMARK    1  A    between atoms: C_1  and  N_7
REMARK    2  A    between atoms: C_6  and  O_12
REMARK                            x       y       z     vdW  Elec       q    Type
REMARK                         _______ _______ _______ _____ _____    ______ ____
ROOT
ATOM      1  C   UNL     1      30.153 -23.671 -15.194  0.00  0.00    +0.057 C 
ATOM      2  C   UNL     1      30.095 -24.744 -14.303  0.00  0.00    +0.018 C 
ATOM      3  C   UNL     1      31.345 -22.966 -15.359  0.00  0.00    +0.018 C 
ATOM      4  C   UNL     1      31.229 -25.112 -13.581  0.00  0.00    +0.038 C 
ATOM      5  C   UNL     1      32.479 -23.335 -14.637  0.00  0.00    +0.038 C 
ATOM      6  C   UNL     1      32.422 -24.407 -13.747  0.00  0.00    +0.134 C 
ENDROOT
BRANCH   1   7
ATOM      7  N   UNL     1      29.027 -23.305 -15.910  0.00  0.00    -0.246 N 
ATOM      8  N   UNL     1      27.447 -23.343 -17.481  0.00  0.00    -0.224 NA
ATOM      9  C   UNL     1      28.188 -22.256 -15.635  0.00  0.00    +0.092 C 
ATOM     10  C   UNL     1      28.537 -23.926 -17.031  0.00  0.00    +0.172 C 
ATOM     11  C   UNL     1      27.226 -22.301 -16.616  0.00  0.00    +0.117 C 
ENDBRANCH   1   7
BRANCH   6  12
ATOM     12  O   UNL     1      33.529 -24.766 -13.042  0.00  0.00    -0.506 OA
ATOM     13  H   UNL     1      33.965 -24.136 -12.503  0.00  0.00    +0.292 HD
ENDBRANCH   6  12
TORSDOF 2
ENDMDL
MODEL 7
REMARK VINA RESULT:      -6.6      3.594      5.675
REMARK  Name = 82315
REMARK  2 active torsions:
REMARK  status: ('A' for Active; 'I' for Inactive)
REMARK    1  A    between atoms: C_1  and  N_7
REMARK    2  A    between atoms: C_6  and  O_12
REMARK                            x       y       z     vdW  Elec       q    Type
REMARK                         _______ _______ _______ _____ _____    ______ ____
ROOT
ATOM      1  C   UNL     1      34.896 -17.144 -21.699  0.00  0.00    +0.057 C 
ATOM      2  C   UNL     1      34.605 -16.076 -20.850  0.00  0.00    +0.018 C 
ATOM      3  C   UNL     1      34.971 -16.939 -23.077  0.00  0.00    +0.018 C 
ATOM      4  C   UNL     1      34.392 -14.804 -21.378  0.00  0.00    +0.038 C 
ATOM      5  C   UNL     1      34.758 -15.666 -23.605  0.00  0.00    +0.038 C 
ATOM      6  C   UNL     1      34.467 -14.598 -22.756  0.00  0.00    +0.134 C 
ENDROOT
BRANCH   1   7
ATOM      7  N   UNL     1      35.108 -18.407 -21.175  0.00  0.00    -0.246 N 
ATOM      8  N   UNL     1      36.190 -20.169 -20.344  0.00  0.00    -0.224 NA
ATOM      9  C   UNL     1      34.152 -19.355 -20.915  0.00  0.00    +0.092 C 
ATOM     10  C   UNL     1      36.316 -18.948 -20.815  0.00  0.00    +0.172 C 
ATOM     11  C   UNL     1      34.843 -20.429 -20.405  0.00  0.00    +0.117 C 
ENDBRANCH   1   7
BRANCH   6  12
ATOM     12  O   UNL     1      34.257 -13.356 -23.272  0.00  0.00    -0.506 OA
ATOM     13  H   UNL     1      34.740 -12.624 -22.940  0.00  0.00    +0.292 HD
ENDBRANCH   6  12
TORSDOF 2
ENDMDL
MODEL 8
REMARK VINA RESULT:      -6.3      5.745      6.931
REMARK  Name = 82315
REMARK  2 active torsions:
REMARK  status: ('A' for Active; 'I' for Inactive)
REMARK    1  A    between atoms: C_1  and  N_7
REMARK    2  A    between atoms: C_6  and  O_12
REMARK                            x       y       z     vdW  Elec       q    Type
REMARK                         _______ _______ _______ _____ _____    ______ ____
ROOT
ATOM      1  C   UNL     1      33.206 -14.601 -23.003  0.00  0.00    +0.057 C 
ATOM      2  C   UNL     1      32.627 -13.376 -23.336  0.00  0.00    +0.018 C 
ATOM      3  C   UNL     1      33.293 -14.991 -21.666  0.00  0.00    +0.018 C 
ATOM      4  C   UNL     1      32.133 -12.543 -22.333  0.00  0.00    +0.038 C 
ATOM      5  C   UNL     1      32.798 -14.158 -20.663  0.00  0.00    +0.038 C 
ATOM      6  C   UNL     1      32.219 -12.933 -20.996  0.00  0.00    +0.134 C 
ENDROOT
BRANCH   1   7
ATOM      7  N   UNL     1      33.696 -15.427 -23.998  0.00  0.00    -0.246 N 
ATOM      8  N   UNL     1      34.064 -16.253 -26.035  0.00  0.00    -0.224 NA
ATOM      9  C   UNL     1      34.520 -16.510 -23.830  0.00  0.00    +0.092 C 
ATOM     10  C   UNL     1      33.452 -15.317 -25.344  0.00  0.00    +0.172 C 
ATOM     11  C   UNL     1      34.731 -17.001 -25.097  0.00  0.00    +0.117 C 
ENDBRANCH   1   7
BRANCH   6  12
ATOM     12  O   UNL     1      31.738 -12.120 -20.016  0.00  0.00    -0.506 OA
ATOM     13  H   UNL     1      32.331 -11.681 -19.439  0.00  0.00    +0.292 HD
ENDBRANCH   6  12
TORSDOF 2
ENDMDL
MODEL 9
REMARK VINA RESULT:      -6.2      4.468      6.555
REMARK  Name = 82315
REMARK  2 active torsions:
REMARK  status: ('A' for Active; 'I' for Inactive)
REMARK    1  A    between atoms: C_1  and  N_7
REMARK    2  A    between atoms: C_6  and  O_12
REMARK                            x       y       z     vdW  Elec       q    Type
REMARK                         _______ _______ _______ _____ _____    ______ ____
ROOT
ATOM      1  C   UNL     1      34.333 -16.295 -23.613  0.00  0.00    +0.057 C 
ATOM      2  C   UNL     1      33.796 -15.053 -23.272  0.00  0.00    +0.018 C 
ATOM      3  C   UNL     1      34.241 -16.757 -24.926  0.00  0.00    +0.018 C 
ATOM      4  C   UNL     1      33.170 -14.273 -24.243  0.00  0.00    +0.038 C 
ATOM      5  C   UNL     1      33.614 -15.977 -25.897  0.00  0.00    +0.038 C 
ATOM      6  C   UNL     1      33.077 -14.736 -25.556  0.00  0.00    +0.134 C 
ENDROOT
BRANCH   1   7
ATOM      7  N   UNL     1      34.955 -17.068 -22.649  0.00  0.00    -0.246 N 
ATOM      8  N   UNL     1      35.593 -17.785 -20.638  0.00  0.00    -0.224 NA
ATOM      9  C   UNL     1      35.745 -18.167 -22.867  0.00  0.00    +0.092 C 
ATOM     10  C   UNL     1      34.897 -16.881 -21.291  0.00  0.00    +0.172 C 
ATOM     11  C   UNL     1      36.125 -18.589 -21.615  0.00  0.00    +0.117 C 
ENDBRANCH   1   7
BRANCH   6  12
ATOM     12  O   UNL     1      32.464 -13.975 -26.504  0.00  0.00    -0.506 OA
ATOM     13  H   UNL     1      32.789 -13.118 -26.698  0.00  0.00    +0.292 HD
ENDBRANCH   6  12
TORSDOF 2
ENDMDL
