MODEL 1
REMARK VINA RESULT:     -11.7      0.000      0.000
REMARK  Name = 104758
REMARK  11 active torsions:
REMARK  status: ('A' for Active; 'I' for Inactive)
REMARK    1  A    between atoms: C_2  and  N_21
REMARK    2  A    between atoms: C_3  and  C_8
REMARK    3  A    between atoms: N_7  and  CA_10
REMARK    4  A    between atoms: CA_10  and  C_12
REMARK    5  A    between atoms: CA_10  and  CB_15
REMARK    6  A    between atoms: C_12  and  O_13
REMARK    7  A    between atoms: CB_15  and  CG_16
REMARK    8  A    between atoms: CG_16  and  CD_18
REMARK    9  A    between atoms: CD_18  and  OE1_19
REMARK   10  A    between atoms: N_21  and  C_23
REMARK   11  A    between atoms: C_23  and  C_27
REMARK                            x       y       z     vdW  Elec       q    Type
REMARK                         _______ _______ _______ _____ _____    ______ ____
ROOT
ATOM      1  S   UNL     1      36.353 -21.636 -18.107  0.00  0.00    -0.068 S 
ATOM      2  C   UNL     1      34.830 -21.611 -18.889  0.00  0.00    +0.079 C 
ATOM      3  C   UNL     1      35.772 -22.694 -16.893  0.00  0.00    +0.084 C 
ATOM      4  C   UNL     1      33.901 -22.392 -18.237  0.00  0.00    +0.022 C 
ATOM      5  C   UNL     1      34.447 -23.020 -17.081  0.00  0.00    +0.013 C 
ENDROOT
BRANCH   3   8
ATOM      6  O   UNL     1      37.606 -22.419 -15.419  0.00  0.00    -0.270 OA
ATOM      7  N   UNL     1      36.466 -24.411 -15.328  0.00  0.00    -0.293 N 
ATOM      8  C   ACE A   0      36.659 -23.116 -15.858  0.00  0.00    +0.252 C 
ATOM      9  H   UNL     1      35.721 -24.950 -15.679  0.00  0.00    +0.150 HD
BRANCH   7  10
ATOM     10  CA  UNL     1      37.301 -24.989 -14.299  0.00  0.00    +0.172 C 
BRANCH  10  12
ATOM     11  OXT UNL     1      39.025 -26.694 -14.516  0.00  0.00    -0.248 OA
ATOM     12  C   UNL     1      37.956 -26.225 -14.882  0.00  0.00    +0.332 C 
BRANCH  12  13
ATOM     13  O   UNL     1      37.193 -26.794 -15.851  0.00  0.00    -0.479 OA
ATOM     14  H   UNL     1      37.144 -26.401 -16.701  0.00  0.00    +0.295 HD
ENDBRANCH  12  13
ENDBRANCH  10  12
BRANCH  10  15
ATOM     15  CB  UNL     1      36.537 -25.250 -12.995  0.00  0.00    +0.043 C 
BRANCH  15  16
ATOM     16  CG  UNL     1      35.888 -24.022 -12.343  0.00  0.00    +0.112 C 
BRANCH  16  18
ATOM     17  OE2 UNL     1      37.556 -22.649 -11.215  0.00  0.00    -0.250 OA
ATOM     18  CD  UNL     1      36.660 -23.481 -11.160  0.00  0.00    +0.314 C 
BRANCH  18  19
ATOM     19  OE1 UNL     1      36.267 -24.065  -9.997  0.00  0.00    -0.480 OA
ATOM     20  HE1 UNL     1      36.909 -24.406  -9.404  0.00  0.00    +0.295 HD
ENDBRANCH  18  19
ENDBRANCH  16  18
ENDBRANCH  15  16
ENDBRANCH  10  15
ENDBRANCH   7  10
ENDBRANCH   3   8
BRANCH   2  21
ATOM     21  N   UNL     1      34.620 -20.868 -20.044  0.00  0.00    -0.297 N 
ATOM     22  C   UNL     1      33.266 -20.489 -20.455  0.00  0.00    +0.113 C 
BRANCH  21  23
ATOM     23  C   UNL     1      35.712 -20.430 -20.885  0.00  0.00    +0.118 C 
BRANCH  23  27
ATOM     24  O   UNL     1      34.908 -15.419 -19.991  0.00  0.00    -0.209 OA
ATOM     25  N   UNL     1      34.233 -15.852 -23.919  0.00  0.00    -0.290 N 
ATOM     26  N   UNL     1      34.334 -14.456 -21.989  0.00  0.00    -0.322 NA
ATOM     27  C   UNL     1      35.323 -19.233 -21.685  0.00  0.00    -0.002 C 
ATOM     28  C   UNL     1      34.837 -16.873 -21.821  0.00  0.00    +0.108 C 
ATOM     29  C   UNL     1      35.201 -17.989 -21.063  0.00  0.00    +0.011 C 
ATOM     30  C   UNL     1      34.594 -16.992 -23.197  0.00  0.00    +0.062 C 
ATOM     31  C   UNL     1      35.083 -19.358 -23.054  0.00  0.00    -0.001 C 
ATOM     32  C   UNL     1      34.719 -18.242 -23.809  0.00  0.00    +0.015 C 
ATOM     33  C   UNL     1      34.697 -15.529 -21.195  0.00  0.00    +0.207 C 
ATOM     34  C   UNL     1      34.125 -14.651 -23.259  0.00  0.00    +0.174 C 
ATOM     35  C   UNL     1      33.730 -13.457 -24.095  0.00  0.00    +0.085 C 
ATOM     36  H   UNL     1      34.058 -15.909 -24.886  0.00  0.00    +0.154 HD
ENDBRANCH  23  27
ENDBRANCH  21  23
ENDBRANCH   2  21
TORSDOF 11
ENDMDL
MODEL 2
REMARK VINA RESULT:     -11.6      4.153     12.001
REMARK  Name = 104758
REMARK  11 active torsions:
REMARK  status: ('A' for Active; 'I' for Inactive)
REMARK    1  A    between atoms: C_2  and  N_21
REMARK    2  A    between atoms: C_3  and  C_8
REMARK    3  A    between atoms: N_7  and  CA_10
REMARK    4  A    between atoms: CA_10  and  C_12
REMARK    5  A    between atoms: CA_10  and  CB_15
REMARK    6  A    between atoms: C_12  and  O_13
REMARK    7  A    between atoms: CB_15  and  CG_16
REMARK    8  A    between atoms: CG_16  and  CD_18
REMARK    9  A    between atoms: CD_18  and  OE1_19
REMARK   10  A    between atoms: N_21  and  C_23
REMARK   11  A    between atoms: C_23  and  C_27
REMARK                            x       y       z     vdW  Elec       q    Type
REMARK                         _______ _______ _______ _____ _____    ______ ____
ROOT
ATOM      1  S   UNL     1      34.335 -15.800 -24.516  0.00  0.00    -0.068 S 
ATOM      2  C   UNL     1      34.750 -16.714 -23.129  0.00  0.00    +0.079 C 
ATOM      3  C   UNL     1      34.071 -14.394 -23.576  0.00  0.00    +0.084 C 
ATOM      4  C   UNL     1      34.688 -15.962 -21.977  0.00  0.00    +0.022 C 
ATOM      5  C   UNL     1      34.296 -14.618 -22.236  0.00  0.00    +0.013 C 
ENDROOT
BRANCH   3   8
ATOM      6  O   UNL     1      33.227 -13.142 -25.402  0.00  0.00    -0.270 OA
ATOM      7  N   UNL     1      33.803 -11.985 -23.503  0.00  0.00    -0.293 N 
ATOM      8  C   ACE A   0      33.666 -13.190 -24.227  0.00  0.00    +0.252 C 
ATOM      9  H   UNL     1      34.149 -12.034 -22.582  0.00  0.00    +0.150 HD
BRANCH   7  10
ATOM     10  CA  UNL     1      33.465 -10.686 -24.037  0.00  0.00    +0.172 C 
BRANCH  10  12
ATOM     11  OXT UNL     1      35.354  -9.149 -24.048  0.00  0.00    -0.248 OA
ATOM     12  C   UNL     1      34.738 -10.066 -24.575  0.00  0.00    +0.332 C 
BRANCH  12  13
ATOM     13  O   UNL     1      35.157 -10.676 -25.715  0.00  0.00    -0.479 OA
ATOM     14  H   UNL     1      35.002 -10.273 -26.547  0.00  0.00    +0.295 HD
ENDBRANCH  12  13
ENDBRANCH  10  12
BRANCH  10  15
ATOM     15  CB  UNL     1      32.728  -9.803 -23.023  0.00  0.00    +0.043 C 
BRANCH  15  16
ATOM     16  CG  UNL     1      31.303 -10.242 -22.665  0.00  0.00    +0.112 C 
BRANCH  16  18
ATOM     17  OE2 UNL     1      31.126 -10.710 -20.280  0.00  0.00    -0.250 OA
ATOM     18  CD  UNL     1      31.226 -11.113 -21.430  0.00  0.00    +0.314 C 
BRANCH  18  19
ATOM     19  OE1 UNL     1      31.322 -12.433 -21.742  0.00  0.00    -0.480 OA
ATOM     20  HE1 UNL     1      30.842 -13.068 -21.247  0.00  0.00    +0.295 HD
ENDBRANCH  18  19
ENDBRANCH  16  18
ENDBRANCH  15  16
ENDBRANCH  10  15
ENDBRANCH   7  10
ENDBRANCH   3   8
BRANCH   2  21
ATOM     21  N   UNL     1      35.100 -18.055 -23.223  0.00  0.00    -0.297 N 
ATOM     22  C   UNL     1      34.655 -18.869 -24.356  0.00  0.00    +0.113 C 
BRANCH  21  23
ATOM     23  C   UNL     1      35.917 -18.708 -22.223  0.00  0.00    +0.118 C 
BRANCH  23  27
ATOM     24  O   UNL     1      36.743 -22.075 -18.410  0.00  0.00    -0.209 OA
ATOM     25  N   UNL     1      32.754 -21.953 -18.786  0.00  0.00    -0.290 N 
ATOM     26  N   UNL     1      34.693 -22.818 -17.703  0.00  0.00    -0.322 NA
ATOM     27  C   UNL     1      35.083 -19.558 -21.324  0.00  0.00    -0.002 C 
ATOM     28  C   UNL     1      34.905 -21.168 -19.536  0.00  0.00    +0.108 C 
ATOM     29  C   UNL     1      35.695 -20.376 -20.373  0.00  0.00    +0.011 C 
ATOM     30  C   UNL     1      33.507 -21.147 -19.642  0.00  0.00    +0.062 C 
ATOM     31  C   UNL     1      33.692 -19.532 -21.435  0.00  0.00    -0.001 C 
ATOM     32  C   UNL     1      32.905 -20.324 -20.597  0.00  0.00    +0.015 C 
ATOM     33  C   UNL     1      35.520 -22.054 -18.508  0.00  0.00    +0.207 C 
ATOM     34  C   UNL     1      33.405 -22.742 -17.868  0.00  0.00    +0.174 C 
ATOM     35  C   UNL     1      32.534 -23.590 -16.972  0.00  0.00    +0.085 C 
ATOM     36  H   UNL     1      31.771 -21.956 -18.839  0.00  0.00    +0.154 HD
ENDBRANCH  23  27
ENDBRANCH  21  23
ENDBRANCH   2  21
TORSDOF 11
ENDMDL
MODEL 3
REMARK VINA RESULT:     -11.2      1.771      3.205
REMARK  Name = 104758
REMARK  11 active torsions:
REMARK  status: ('A' for Active; 'I' for Inactive)
REMARK    1  A    between atoms: C_2  and  N_21
REMARK    2  A    between atoms: C_3  and  C_8
REMARK    3  A    between atoms: N_7  and  CA_10
REMARK    4  A    between atoms: CA_10  and  C_12
REMARK    5  A    between atoms: CA_10  and  CB_15
REMARK    6  A    between atoms: C_12  and  O_13
REMARK    7  A    between atoms: CB_15  and  CG_16
REMARK    8  A    between atoms: CG_16  and  CD_18
REMARK    9  A    between atoms: CD_18  and  OE1_19
REMARK   10  A    between atoms: N_21  and  C_23
REMARK   11  A    between atoms: C_23  and  C_27
REMARK                            x       y       z     vdW  Elec       q    Type
REMARK                         _______ _______ _______ _____ _____    ______ ____
ROOT
ATOM      1  S   UNL     1      34.402 -22.403 -18.063  0.00  0.00    -0.068 S 
ATOM      2  C   UNL     1      35.338 -21.375 -19.062  0.00  0.00    +0.079 C 
ATOM      3  C   UNL     1      35.704 -22.621 -16.974  0.00  0.00    +0.084 C 
ATOM      4  C   UNL     1      36.616 -21.205 -18.575  0.00  0.00    +0.022 C 
ATOM      5  C   UNL     1      36.827 -21.926 -17.365  0.00  0.00    +0.013 C 
ENDROOT
BRANCH   3   8
ATOM      6  O   UNL     1      34.438 -24.021 -15.542  0.00  0.00    -0.270 OA
ATOM      7  N   UNL     1      36.623 -23.616 -14.963  0.00  0.00    -0.293 N 
ATOM      8  C   ACE A   0      35.521 -23.455 -15.830  0.00  0.00    +0.252 C 
ATOM      9  H   UNL     1      37.468 -23.167 -15.197  0.00  0.00    +0.150 HD
BRANCH   7  10
ATOM     10  CA  UNL     1      36.582 -24.402 -13.751  0.00  0.00    +0.172 C 
BRANCH  10  12
ATOM     11  OXT UNL     1      36.915 -22.705 -12.036  0.00  0.00    -0.248 OA
ATOM     12  C   UNL     1      36.171 -23.481 -12.620  0.00  0.00    +0.332 C 
BRANCH  12  13
ATOM     13  O   UNL     1      34.845 -23.583 -12.342  0.00  0.00    -0.479 OA
ATOM     14  H   UNL     1      34.510 -24.352 -11.924  0.00  0.00    +0.295 HD
ENDBRANCH  12  13
ENDBRANCH  10  12
BRANCH  10  15
ATOM     15  CB  UNL     1      37.893 -25.154 -13.489  0.00  0.00    +0.043 C 
BRANCH  15  16
ATOM     16  CG  UNL     1      38.544 -25.810 -14.714  0.00  0.00    +0.112 C 
BRANCH  16  18
ATOM     17  OE2 UNL     1      40.667 -24.770 -14.124  0.00  0.00    -0.250 OA
ATOM     18  CD  UNL     1      40.009 -25.470 -14.881  0.00  0.00    +0.314 C 
BRANCH  18  19
ATOM     19  OE1 UNL     1      40.521 -26.010 -16.019  0.00  0.00    -0.480 OA
ATOM     20  HE1 UNL     1      39.960 -26.471 -16.612  0.00  0.00    +0.295 HD
ENDBRANCH  18  19
ENDBRANCH  16  18
ENDBRANCH  15  16
ENDBRANCH  10  15
ENDBRANCH   7  10
ENDBRANCH   3   8
BRANCH   2  21
ATOM     21  N   UNL     1      34.813 -20.811 -20.217  0.00  0.00    -0.297 N 
ATOM     22  C   UNL     1      33.366 -20.664 -20.388  0.00  0.00    +0.113 C 
BRANCH  21  23
ATOM     23  C   UNL     1      35.656 -20.340 -21.294  0.00  0.00    +0.118 C 
BRANCH  23  27
ATOM     24  O   UNL     1      34.343 -17.901 -25.639  0.00  0.00    -0.209 OA
ATOM     25  N   UNL     1      34.247 -15.047 -22.825  0.00  0.00    -0.290 N 
ATOM     26  N   UNL     1      33.972 -15.704 -25.100  0.00  0.00    -0.322 NA
ATOM     27  C   UNL     1      35.288 -18.950 -21.691  0.00  0.00    -0.002 C 
ATOM     28  C   UNL     1      34.639 -17.358 -23.384  0.00  0.00    +0.108 C 
ATOM     29  C   UNL     1      34.983 -18.663 -23.023  0.00  0.00    +0.011 C 
ATOM     30  C   UNL     1      34.596 -16.338 -22.423  0.00  0.00    +0.062 C 
ATOM     31  C   UNL     1      35.247 -17.939 -20.729  0.00  0.00    -0.001 C 
ATOM     32  C   UNL     1      34.903 -16.636 -21.093  0.00  0.00    +0.015 C 
ATOM     33  C   UNL     1      34.307 -17.011 -24.794  0.00  0.00    +0.207 C 
ATOM     34  C   UNL     1      33.958 -14.816 -24.149  0.00  0.00    +0.174 C 
ATOM     35  C   UNL     1      33.588 -13.400 -24.520  0.00  0.00    +0.085 C 
ATOM     36  H   UNL     1      34.209 -14.313 -22.170  0.00  0.00    +0.154 HD
ENDBRANCH  23  27
ENDBRANCH  21  23
ENDBRANCH   2  21
TORSDOF 11
ENDMDL
MODEL 4
REMARK VINA RESULT:     -11.2      1.395      2.008
REMARK  Name = 104758
REMARK  11 active torsions:
REMARK  status: ('A' for Active; 'I' for Inactive)
REMARK    1  A    between atoms: C_2  and  N_21
REMARK    2  A    between atoms: C_3  and  C_8
REMARK    3  A    between atoms: N_7  and  CA_10
REMARK    4  A    between atoms: CA_10  and  C_12
REMARK    5  A    between atoms: CA_10  and  CB_15
REMARK    6  A    between atoms: C_12  and  O_13
REMARK    7  A    between atoms: CB_15  and  CG_16
REMARK    8  A    between atoms: CG_16  and  CD_18
REMARK    9  A    between atoms: CD_18  and  OE1_19
REMARK   10  A    between atoms: N_21  and  C_23
REMARK   11  A    between atoms: C_23  and  C_27
REMARK                            x       y       z     vdW  Elec       q    Type
REMARK                         _______ _______ _______ _____ _____    ______ ____
ROOT
ATOM      1  S   UNL     1      36.423 -21.590 -18.158  0.00  0.00    -0.068 S 
ATOM      2  C   UNL     1      34.886 -21.566 -18.912  0.00  0.00    +0.079 C 
ATOM      3  C   UNL     1      35.873 -22.671 -16.950  0.00  0.00    +0.084 C 
ATOM      4  C   UNL     1      33.975 -22.364 -18.255  0.00  0.00    +0.022 C 
ATOM      5  C   UNL     1      34.548 -23.005 -17.119  0.00  0.00    +0.013 C 
ENDROOT
BRANCH   3   8
ATOM      6  O   UNL     1      37.782 -22.439 -15.566  0.00  0.00    -0.270 OA
ATOM      7  N   UNL     1      36.549 -24.364 -15.351  0.00  0.00    -0.293 N 
ATOM      8  C   ACE A   0      36.783 -23.101 -15.938  0.00  0.00    +0.252 C 
ATOM      9  H   UNL     1      35.763 -24.876 -15.650  0.00  0.00    +0.150 HD
BRANCH   7  10
ATOM     10  CA  UNL     1      37.398 -24.948 -14.338  0.00  0.00    +0.172 C 
BRANCH  10  12
ATOM     11  OXT UNL     1      39.028 -26.742 -14.555  0.00  0.00    -0.248 OA
ATOM     12  C   UNL     1      37.975 -26.229 -14.905  0.00  0.00    +0.332 C 
BRANCH  12  13
ATOM     13  O   UNL     1      37.159 -26.782 -15.840  0.00  0.00    -0.479 OA
ATOM     14  H   UNL     1      37.068 -26.379 -16.681  0.00  0.00    +0.295 HD
ENDBRANCH  12  13
ENDBRANCH  10  12
BRANCH  10  15
ATOM     15  CB  UNL     1      36.676 -25.134 -12.998  0.00  0.00    +0.043 C 
BRANCH  15  16
ATOM     16  CG  UNL     1      36.022 -23.877 -12.409  0.00  0.00    +0.112 C 
BRANCH  16  18
ATOM     17  OE2 UNL     1      37.011 -22.914 -10.401  0.00  0.00    -0.250 OA
ATOM     18  CD  UNL     1      36.976 -23.006 -11.621  0.00  0.00    +0.314 C 
BRANCH  18  19
ATOM     19  OE1 UNL     1      37.787 -22.285 -12.439  0.00  0.00    -0.480 OA
ATOM     20  HE1 UNL     1      38.499 -22.705 -12.881  0.00  0.00    +0.295 HD
ENDBRANCH  18  19
ENDBRANCH  16  18
ENDBRANCH  15  16
ENDBRANCH  10  15
ENDBRANCH   7  10
ENDBRANCH   3   8
BRANCH   2  21
ATOM     21  N   UNL     1      34.648 -20.808 -20.052  0.00  0.00    -0.297 N 
ATOM     22  C   UNL     1      33.281 -20.506 -20.479  0.00  0.00    +0.113 C 
BRANCH  21  23
ATOM     23  C   UNL     1      35.724 -20.279 -20.860  0.00  0.00    +0.118 C 
BRANCH  23  27
ATOM     24  O   UNL     1      34.424 -18.961 -25.670  0.00  0.00    -0.209 OA
ATOM     25  N   UNL     1      34.096 -15.556 -23.579  0.00  0.00    -0.290 N 
ATOM     26  N   UNL     1      33.926 -16.724 -25.651  0.00  0.00    -0.322 NA
ATOM     27  C   UNL     1      35.298 -19.037 -21.569  0.00  0.00    -0.002 C 
ATOM     28  C   UNL     1      34.623 -17.908 -23.591  0.00  0.00    +0.108 C 
ATOM     29  C   UNL     1      35.021 -19.076 -22.937  0.00  0.00    +0.011 C 
ATOM     30  C   UNL     1      34.498 -16.701 -22.888  0.00  0.00    +0.062 C 
ATOM     31  C   UNL     1      35.176 -17.840 -20.863  0.00  0.00    -0.001 C 
ATOM     32  C   UNL     1      34.777 -16.674 -21.519  0.00  0.00    +0.015 C 
ATOM     33  C   UNL     1      34.318 -17.908 -25.049  0.00  0.00    +0.207 C 
ATOM     34  C   UNL     1      33.837 -15.646 -24.926  0.00  0.00    +0.174 C 
ATOM     35  C   UNL     1      33.407 -14.374 -25.616  0.00  0.00    +0.085 C 
ATOM     36  H   UNL     1      34.000 -14.697 -23.108  0.00  0.00    +0.154 HD
ENDBRANCH  23  27
ENDBRANCH  21  23
ENDBRANCH   2  21
TORSDOF 11
ENDMDL
MODEL 5
REMARK VINA RESULT:     -11.1      3.250      4.512
REMARK  Name = 104758
REMARK  11 active torsions:
REMARK  status: ('A' for Active; 'I' for Inactive)
REMARK    1  A    between atoms: C_2  and  N_21
REMARK    2  A    between atoms: C_3  and  C_8
REMARK    3  A    between atoms: N_7  and  CA_10
REMARK    4  A    between atoms: CA_10  and  C_12
REMARK    5  A    between atoms: CA_10  and  CB_15
REMARK    6  A    between atoms: C_12  and  O_13
REMARK    7  A    between atoms: CB_15  and  CG_16
REMARK    8  A    between atoms: CG_16  and  CD_18
REMARK    9  A    between atoms: CD_18  and  OE1_19
REMARK   10  A    between atoms: N_21  and  C_23
REMARK   11  A    between atoms: C_23  and  C_27
REMARK                            x       y       z     vdW  Elec       q    Type
REMARK                         _______ _______ _______ _____ _____    ______ ____
ROOT
ATOM      1  S   UNL     1      35.028 -21.532 -19.504  0.00  0.00    -0.068 S 
ATOM      2  C   UNL     1      34.606 -20.270 -20.582  0.00  0.00    +0.079 C 
ATOM      3  C   UNL     1      33.402 -21.720 -19.003  0.00  0.00    +0.084 C 
ATOM      4  C   UNL     1      33.256 -20.000 -20.558  0.00  0.00    +0.022 C 
ATOM      5  C   UNL     1      32.558 -20.841 -19.644  0.00  0.00    +0.013 C 
ENDROOT
BRANCH   3   8
ATOM      6  O   UNL     1      33.780 -23.737 -17.819  0.00  0.00    -0.270 OA
ATOM      7  N   UNL     1      31.907 -22.525 -17.272  0.00  0.00    -0.293 N 
ATOM      8  C   ACE A   0      33.088 -22.710 -18.024  0.00  0.00    +0.252 C 
ATOM      9  H   UNL     1      31.372 -21.716 -17.441  0.00  0.00    +0.150 HD
BRANCH   7  10
ATOM     10  CA  UNL     1      31.441 -23.455 -16.269  0.00  0.00    +0.172 C 
BRANCH  10  12
ATOM     11  OXT UNL     1      29.263 -24.518 -16.036  0.00  0.00    -0.248 OA
ATOM     12  C   UNL     1      29.938 -23.569 -16.412  0.00  0.00    +0.332 C 
BRANCH  12  13
ATOM     13  O   UNL     1      29.398 -22.460 -16.982  0.00  0.00    -0.479 OA
ATOM     14  H   UNL     1      29.031 -22.506 -17.843  0.00  0.00    +0.295 HD
ENDBRANCH  12  13
ENDBRANCH  10  12
BRANCH  10  15
ATOM     15  CB  UNL     1      31.901 -23.079 -14.855  0.00  0.00    +0.043 C 
BRANCH  15  16
ATOM     16  CG  UNL     1      32.419 -24.236 -13.990  0.00  0.00    +0.112 C 
BRANCH  16  18
ATOM     17  OE2 UNL     1      34.742 -23.921 -14.653  0.00  0.00    -0.250 OA
ATOM     18  CD  UNL     1      33.920 -24.233 -13.803  0.00  0.00    +0.314 C 
BRANCH  18  19
ATOM     19  OE1 UNL     1      34.271 -24.666 -12.563  0.00  0.00    -0.480 OA
ATOM     20  HE1 UNL     1      33.780 -25.349 -12.149  0.00  0.00    +0.295 HD
ENDBRANCH  18  19
ENDBRANCH  16  18
ENDBRANCH  15  16
ENDBRANCH  10  15
ENDBRANCH   7  10
ENDBRANCH   3   8
BRANCH   2  21
ATOM     21  N   UNL     1      35.562 -19.633 -21.363  0.00  0.00    -0.297 N 
ATOM     22  C   UNL     1      36.908 -19.382 -20.843  0.00  0.00    +0.113 C 
BRANCH  21  23
ATOM     23  C   UNL     1      35.285 -19.195 -22.713  0.00  0.00    +0.118 C 
BRANCH  23  27
ATOM     24  O   UNL     1      33.696 -15.780 -26.229  0.00  0.00    -0.209 OA
ATOM     25  N   UNL     1      34.110 -13.633 -22.869  0.00  0.00    -0.290 N 
ATOM     26  N   UNL     1      33.547 -13.746 -25.183  0.00  0.00    -0.322 NA
ATOM     27  C   UNL     1      34.979 -17.736 -22.749  0.00  0.00    -0.002 C 
ATOM     28  C   UNL     1      34.271 -15.774 -23.963  0.00  0.00    +0.108 C 
ATOM     29  C   UNL     1      34.555 -17.142 -23.939  0.00  0.00    +0.011 C 
ATOM     30  C   UNL     1      34.406 -14.996 -22.804  0.00  0.00    +0.062 C 
ATOM     31  C   UNL     1      35.115 -16.967 -21.592  0.00  0.00    -0.001 C 
ATOM     32  C   UNL     1      34.830 -15.601 -21.618  0.00  0.00    +0.015 C 
ATOM     33  C   UNL     1      33.816 -15.103 -25.212  0.00  0.00    +0.207 C 
ATOM     34  C   UNL     1      33.699 -13.095 -24.066  0.00  0.00    +0.174 C 
ATOM     35  C   UNL     1      33.397 -11.616 -24.071  0.00  0.00    +0.085 C 
ATOM     36  H   UNL     1      34.196 -13.065 -22.070  0.00  0.00    +0.154 HD
ENDBRANCH  23  27
ENDBRANCH  21  23
ENDBRANCH   2  21
TORSDOF 11
ENDMDL
MODEL 6
REMARK VINA RESULT:     -11.1      4.340     12.843
REMARK  Name = 104758
REMARK  11 active torsions:
REMARK  status: ('A' for Active; 'I' for Inactive)
REMARK    1  A    between atoms: C_2  and  N_21
REMARK    2  A    between atoms: C_3  and  C_8
REMARK    3  A    between atoms: N_7  and  CA_10
REMARK    4  A    between atoms: CA_10  and  C_12
REMARK    5  A    between atoms: CA_10  and  CB_15
REMARK    6  A    between atoms: C_12  and  O_13
REMARK    7  A    between atoms: CB_15  and  CG_16
REMARK    8  A    between atoms: CG_16  and  CD_18
REMARK    9  A    between atoms: CD_18  and  OE1_19
REMARK   10  A    between atoms: N_21  and  C_23
REMARK   11  A    between atoms: C_23  and  C_27
REMARK                            x       y       z     vdW  Elec       q    Type
REMARK                         _______ _______ _______ _____ _____    ______ ____
ROOT
ATOM      1  S   UNL     1      34.397 -14.367 -22.777  0.00  0.00    -0.068 S 
ATOM      2  C   UNL     1      34.509 -16.048 -23.082  0.00  0.00    +0.079 C 
ATOM      3  C   UNL     1      33.872 -14.057 -24.377  0.00  0.00    +0.084 C 
ATOM      4  C   UNL     1      34.154 -16.364 -24.375  0.00  0.00    +0.022 C 
ATOM      5  C   UNL     1      33.784 -15.210 -25.124  0.00  0.00    +0.013 C 
ENDROOT
BRANCH   3   8
ATOM      6  O   UNL     1      33.389 -12.356 -25.954  0.00  0.00    -0.270 OA
ATOM      7  N   UNL     1      33.573 -11.734 -23.750  0.00  0.00    -0.293 N 
ATOM      8  C   ACE A   0      33.591 -12.713 -24.767  0.00  0.00    +0.252 C 
ATOM      9  H   UNL     1      33.733 -12.025 -22.823  0.00  0.00    +0.150 HD
BRANCH   7  10
ATOM     10  CA  UNL     1      33.334 -10.330 -23.993  0.00  0.00    +0.172 C 
BRANCH  10  12
ATOM     11  OXT UNL     1      35.007  -8.597 -23.634  0.00  0.00    -0.248 OA
ATOM     12  C   UNL     1      34.682  -9.656 -24.154  0.00  0.00    +0.332 C 
BRANCH  12  13
ATOM     13  O   UNL     1      35.526 -10.390 -24.925  0.00  0.00    -0.479 OA
ATOM     14  H   UNL     1      35.960  -9.993 -25.654  0.00  0.00    +0.295 HD
ENDBRANCH  12  13
ENDBRANCH  10  12
BRANCH  10  15
ATOM     15  CB  UNL     1      32.445  -9.687 -22.922  0.00  0.00    +0.043 C 
BRANCH  15  16
ATOM     16  CG  UNL     1      31.531  -8.552 -23.403  0.00  0.00    +0.112 C 
BRANCH  16  18
ATOM     17  OE2 UNL     1      32.700  -7.002 -21.931  0.00  0.00    -0.250 OA
ATOM     18  CD  UNL     1      31.800  -7.225 -22.728  0.00  0.00    +0.314 C 
BRANCH  18  19
ATOM     19  OE1 UNL     1      30.881  -6.288 -23.083  0.00  0.00    -0.480 OA
ATOM     20  HE1 UNL     1      30.783  -5.510 -22.569  0.00  0.00    +0.295 HD
ENDBRANCH  18  19
ENDBRANCH  16  18
ENDBRANCH  15  16
ENDBRANCH  10  15
ENDBRANCH   7  10
ENDBRANCH   3   8
BRANCH   2  21
ATOM     21  N   UNL     1      34.918 -16.938 -22.097  0.00  0.00    -0.297 N 
ATOM     22  C   UNL     1      34.952 -16.535 -20.690  0.00  0.00    +0.113 C 
BRANCH  21  23
ATOM     23  C   UNL     1      35.319 -18.293 -22.405  0.00  0.00    +0.118 C 
BRANCH  23  27
ATOM     24  O   UNL     1      36.885 -21.685 -18.855  0.00  0.00    -0.209 OA
ATOM     25  N   UNL     1      32.889 -22.000 -18.841  0.00  0.00    -0.290 N 
ATOM     26  N   UNL     1      35.010 -22.680 -17.991  0.00  0.00    -0.322 NA
ATOM     27  C   UNL     1      34.677 -19.265 -21.472  0.00  0.00    -0.002 C 
ATOM     28  C   UNL     1      34.856 -20.950 -19.755  0.00  0.00    +0.108 C 
ATOM     29  C   UNL     1      35.467 -20.043 -20.625  0.00  0.00    +0.011 C 
ATOM     30  C   UNL     1      33.460 -21.083 -19.726  0.00  0.00    +0.062 C 
ATOM     31  C   UNL     1      33.287 -19.392 -21.448  0.00  0.00    -0.001 C 
ATOM     32  C   UNL     1      32.679 -20.299 -20.578  0.00  0.00    +0.015 C 
ATOM     33  C   UNL     1      35.663 -21.798 -18.834  0.00  0.00    +0.207 C 
ATOM     34  C   UNL     1      33.711 -22.744 -18.028  0.00  0.00    +0.174 C 
ATOM     35  C   UNL     1      33.032 -23.718 -17.095  0.00  0.00    +0.085 C 
ATOM     36  H   UNL     1      31.912 -22.112 -18.800  0.00  0.00    +0.154 HD
ENDBRANCH  23  27
ENDBRANCH  21  23
ENDBRANCH   2  21
TORSDOF 11
ENDMDL
MODEL 7
REMARK VINA RESULT:     -11.1      2.810      4.477
REMARK  Name = 104758
REMARK  11 active torsions:
REMARK  status: ('A' for Active; 'I' for Inactive)
REMARK    1  A    between atoms: C_2  and  N_21
REMARK    2  A    between atoms: C_3  and  C_8
REMARK    3  A    between atoms: N_7  and  CA_10
REMARK    4  A    between atoms: CA_10  and  C_12
REMARK    5  A    between atoms: CA_10  and  CB_15
REMARK    6  A    between atoms: C_12  and  O_13
REMARK    7  A    between atoms: CB_15  and  CG_16
REMARK    8  A    between atoms: CG_16  and  CD_18
REMARK    9  A    between atoms: CD_18  and  OE1_19
REMARK   10  A    between atoms: N_21  and  C_23
REMARK   11  A    between atoms: C_23  and  C_27
REMARK                            x       y       z     vdW  Elec       q    Type
REMARK                         _______ _______ _______ _____ _____    ______ ____
ROOT
ATOM      1  S   UNL     1      35.327 -20.580 -19.929  0.00  0.00    -0.068 S 
ATOM      2  C   UNL     1      34.621 -19.310 -20.835  0.00  0.00    +0.079 C 
ATOM      3  C   UNL     1      33.811 -21.346 -19.719  0.00  0.00    +0.084 C 
ATOM      4  C   UNL     1      33.259 -19.469 -20.971  0.00  0.00    +0.022 C 
ATOM      5  C   UNL     1      32.790 -20.648 -20.326  0.00  0.00    +0.013 C 
ENDROOT
BRANCH   3   8
ATOM      6  O   UNL     1      33.930 -23.700 -19.478  0.00  0.00    -0.270 OA
ATOM      7  N   UNL     1      33.420 -22.470 -17.606  0.00  0.00    -0.293 N 
ATOM      8  C   ACE A   0      33.745 -22.564 -18.977  0.00  0.00    +0.252 C 
ATOM      9  H   UNL     1      33.276 -21.575 -17.224  0.00  0.00    +0.150 HD
BRANCH   7  10
ATOM     10  CA  UNL     1      33.286 -23.615 -16.734  0.00  0.00    +0.172 C 
BRANCH  10  12
ATOM     11  OXT UNL     1      31.493 -24.236 -15.208  0.00  0.00    -0.248 OA
ATOM     12  C   UNL     1      31.871 -23.616 -16.193  0.00  0.00    +0.332 C 
BRANCH  12  13
ATOM     13  O   UNL     1      31.052 -22.806 -16.914  0.00  0.00    -0.479 OA
ATOM     14  H   UNL     1      31.293 -22.547 -17.782  0.00  0.00    +0.295 HD
ENDBRANCH  12  13
ENDBRANCH  10  12
BRANCH  10  15
ATOM     15  CB  UNL     1      34.364 -23.657 -15.644  0.00  0.00    +0.043 C 
BRANCH  15  16
ATOM     16  CG  UNL     1      35.710 -23.019 -16.010  0.00  0.00    +0.112 C 
BRANCH  16  18
ATOM     17  OE2 UNL     1      37.693 -23.053 -14.593  0.00  0.00    -0.250 OA
ATOM     18  CD  UNL     1      36.894 -23.645 -15.305  0.00  0.00    +0.314 C 
BRANCH  18  19
ATOM     19  OE1 UNL     1      37.000 -24.970 -15.588  0.00  0.00    -0.480 OA
ATOM     20  HE1 UNL     1      37.841 -25.384 -15.584  0.00  0.00    +0.295 HD
ENDBRANCH  18  19
ENDBRANCH  16  18
ENDBRANCH  15  16
ENDBRANCH  10  15
ENDBRANCH   7  10
ENDBRANCH   3   8
BRANCH   2  21
ATOM     21  N   UNL     1      35.387 -18.270 -21.344  0.00  0.00    -0.297 N 
ATOM     22  C   UNL     1      36.380 -18.514 -22.392  0.00  0.00    +0.113 C 
BRANCH  21  23
ATOM     23  C   UNL     1      35.241 -16.908 -20.878  0.00  0.00    +0.118 C 
BRANCH  23  27
ATOM     24  O   UNL     1      34.090 -17.387 -25.878  0.00  0.00    -0.209 OA
ATOM     25  N   UNL     1      33.297 -13.549 -25.035  0.00  0.00    -0.290 N 
ATOM     26  N   UNL     1      33.366 -15.339 -26.608  0.00  0.00    -0.322 NA
ATOM     27  C   UNL     1      34.731 -16.023 -21.965  0.00  0.00    -0.002 C 
ATOM     28  C   UNL     1      34.061 -15.699 -24.260  0.00  0.00    +0.108 C 
ATOM     29  C   UNL     1      34.538 -16.536 -23.248  0.00  0.00    +0.011 C 
ATOM     30  C   UNL     1      33.774 -14.352 -23.996  0.00  0.00    +0.062 C 
ATOM     31  C   UNL     1      34.448 -14.683 -21.696  0.00  0.00    -0.001 C 
ATOM     32  C   UNL     1      33.970 -13.849 -22.708  0.00  0.00    +0.015 C 
ATOM     33  C   UNL     1      33.841 -16.209 -25.642  0.00  0.00    +0.207 C 
ATOM     34  C   UNL     1      33.126 -14.102 -26.282  0.00  0.00    +0.174 C 
ATOM     35  C   UNL     1      32.609 -13.181 -27.361  0.00  0.00    +0.085 C 
ATOM     36  H   UNL     1      33.087 -12.600 -24.876  0.00  0.00    +0.154 HD
ENDBRANCH  23  27
ENDBRANCH  21  23
ENDBRANCH   2  21
TORSDOF 11
ENDMDL
MODEL 8
REMARK VINA RESULT:     -11.0      2.486      3.952
REMARK  Name = 104758
REMARK  11 active torsions:
REMARK  status: ('A' for Active; 'I' for Inactive)
REMARK    1  A    between atoms: C_2  and  N_21
REMARK    2  A    between atoms: C_3  and  C_8
REMARK    3  A    between atoms: N_7  and  CA_10
REMARK    4  A    between atoms: CA_10  and  C_12
REMARK    5  A    between atoms: CA_10  and  CB_15
REMARK    6  A    between atoms: C_12  and  O_13
REMARK    7  A    between atoms: CB_15  and  CG_16
REMARK    8  A    between atoms: CG_16  and  CD_18
REMARK    9  A    between atoms: CD_18  and  OE1_19
REMARK   10  A    between atoms: N_21  and  C_23
REMARK   11  A    between atoms: C_23  and  C_27
REMARK                            x       y       z     vdW  Elec       q    Type
REMARK                         _______ _______ _______ _____ _____    ______ ____
ROOT
ATOM      1  S   UNL     1      35.428 -21.561 -19.671  0.00  0.00    -0.068 S 
ATOM      2  C   UNL     1      34.726 -20.306 -20.600  0.00  0.00    +0.079 C 
ATOM      3  C   UNL     1      33.911 -21.985 -18.999  0.00  0.00    +0.084 C 
ATOM      4  C   UNL     1      33.366 -20.213 -20.400  0.00  0.00    +0.022 C 
ATOM      5  C   UNL     1      32.894 -21.186 -19.473  0.00  0.00    +0.013 C 
ENDROOT
BRANCH   3   8
ATOM      6  O   UNL     1      33.537 -24.239 -18.372  0.00  0.00    -0.270 OA
ATOM      7  N   UNL     1      34.105 -22.759 -16.710  0.00  0.00    -0.293 N 
ATOM      8  C   ACE A   0      33.843 -23.061 -18.064  0.00  0.00    +0.252 C 
ATOM      9  H   UNL     1      34.343 -21.832 -16.478  0.00  0.00    +0.150 HD
BRANCH   7  10
ATOM     10  CA  UNL     1      34.045 -23.734 -15.644  0.00  0.00    +0.172 C 
BRANCH  10  12
ATOM     11  OXT UNL     1      31.656 -24.106 -15.357  0.00  0.00    -0.248 OA
ATOM     12  C   UNL     1      32.696 -23.592 -14.969  0.00  0.00    +0.332 C 
BRANCH  12  13
ATOM     13  O   UNL     1      32.773 -22.846 -13.836  0.00  0.00    -0.479 OA
ATOM     14  H   UNL     1      32.172 -22.998 -13.133  0.00  0.00    +0.295 HD
ENDBRANCH  12  13
ENDBRANCH  10  12
BRANCH  10  15
ATOM     15  CB  UNL     1      35.233 -23.632 -14.680  0.00  0.00    +0.043 C 
BRANCH  15  16
ATOM     16  CG  UNL     1      36.570 -24.170 -15.207  0.00  0.00    +0.112 C 
BRANCH  16  18
ATOM     17  OE2 UNL     1      37.109 -22.020 -16.220  0.00  0.00    -0.250 OA
ATOM     18  CD  UNL     1      37.475 -23.100 -15.777  0.00  0.00    +0.314 C 
BRANCH  18  19
ATOM     19  OE1 UNL     1      38.775 -23.497 -15.783  0.00  0.00    -0.480 OA
ATOM     20  HE1 UNL     1      39.115 -24.000 -15.068  0.00  0.00    +0.295 HD
ENDBRANCH  18  19
ENDBRANCH  16  18
ENDBRANCH  15  16
ENDBRANCH  10  15
ENDBRANCH   7  10
ENDBRANCH   3   8
BRANCH   2  21
ATOM     21  N   UNL     1      35.493 -19.508 -21.439  0.00  0.00    -0.297 N 
ATOM     22  C   UNL     1      36.821 -19.047 -21.027  0.00  0.00    +0.113 C 
BRANCH  21  23
ATOM     23  C   UNL     1      35.031 -19.101 -22.748  0.00  0.00    +0.118 C 
BRANCH  23  27
ATOM     24  O   UNL     1      33.604 -15.645 -26.294  0.00  0.00    -0.209 OA
ATOM     25  N   UNL     1      34.103 -13.494 -22.948  0.00  0.00    -0.290 N 
ATOM     26  N   UNL     1      33.542 -13.599 -25.262  0.00  0.00    -0.322 NA
ATOM     27  C   UNL     1      34.790 -17.630 -22.796  0.00  0.00    -0.002 C 
ATOM     28  C   UNL     1      34.172 -15.648 -24.025  0.00  0.00    +0.108 C 
ATOM     29  C   UNL     1      34.396 -17.027 -23.991  0.00  0.00    +0.011 C 
ATOM     30  C   UNL     1      34.338 -14.869 -22.872  0.00  0.00    +0.062 C 
ATOM     31  C   UNL     1      34.956 -16.860 -21.643  0.00  0.00    -0.001 C 
ATOM     32  C   UNL     1      34.731 -15.483 -21.680  0.00  0.00    +0.015 C 
ATOM     33  C   UNL     1      33.751 -14.967 -25.281  0.00  0.00    +0.207 C 
ATOM     34  C   UNL     1      33.719 -12.948 -24.150  0.00  0.00    +0.174 C 
ATOM     35  C   UNL     1      33.482 -11.457 -24.167  0.00  0.00    +0.085 C 
ATOM     36  H   UNL     1      34.211 -12.924 -22.152  0.00  0.00    +0.154 HD
ENDBRANCH  23  27
ENDBRANCH  21  23
ENDBRANCH   2  21
TORSDOF 11
ENDMDL
MODEL 9
REMARK VINA RESULT:     -10.9      1.273      2.146
REMARK  Name = 104758
REMARK  11 active torsions:
REMARK  status: ('A' for Active; 'I' for Inactive)
REMARK    1  A    between atoms: C_2  and  N_21
REMARK    2  A    between atoms: C_3  and  C_8
REMARK    3  A    between atoms: N_7  and  CA_10
REMARK    4  A    between atoms: CA_10  and  C_12
REMARK    5  A    between atoms: CA_10  and  CB_15
REMARK    6  A    between atoms: C_12  and  O_13
REMARK    7  A    between atoms: CB_15  and  CG_16
REMARK    8  A    between atoms: CG_16  and  CD_18
REMARK    9  A    between atoms: CD_18  and  OE1_19
REMARK   10  A    between atoms: N_21  and  C_23
REMARK   11  A    between atoms: C_23  and  C_27
REMARK                            x       y       z     vdW  Elec       q    Type
REMARK                         _______ _______ _______ _____ _____    ______ ____
ROOT
ATOM      1  S   UNL     1      35.845 -21.886 -17.939  0.00  0.00    -0.068 S 
ATOM      2  C   UNL     1      34.395 -21.728 -18.835  0.00  0.00    +0.079 C 
ATOM      3  C   UNL     1      35.105 -22.957 -16.827  0.00  0.00    +0.084 C 
ATOM      4  C   UNL     1      33.371 -22.476 -18.296  0.00  0.00    +0.022 C 
ATOM      5  C   UNL     1      33.783 -23.188 -17.133  0.00  0.00    +0.013 C 
ENDROOT
BRANCH   3   8
ATOM      6  O   UNL     1      37.069 -23.862 -15.859  0.00  0.00    -0.270 OA
ATOM      7  N   UNL     1      35.242 -23.599 -14.493  0.00  0.00    -0.293 N 
ATOM      8  C   ACE A   0      35.879 -23.480 -15.747  0.00  0.00    +0.252 C 
ATOM      9  H   UNL     1      34.308 -23.297 -14.416  0.00  0.00    +0.150 HD
BRANCH   7  10
ATOM     10  CA  UNL     1      35.884 -24.139 -13.316  0.00  0.00    +0.172 C 
BRANCH  10  12
ATOM     11  OXT UNL     1      34.946 -24.887 -11.197  0.00  0.00    -0.248 OA
ATOM     12  C   UNL     1      34.795 -24.628 -12.383  0.00  0.00    +0.332 C 
BRANCH  12  13
ATOM     13  O   UNL     1      33.593 -24.716 -13.010  0.00  0.00    -0.479 OA
ATOM     14  H   UNL     1      32.925 -25.278 -12.669  0.00  0.00    +0.295 HD
ENDBRANCH  12  13
ENDBRANCH  10  12
BRANCH  10  15
ATOM     15  CB  UNL     1      36.855 -23.147 -12.665  0.00  0.00    +0.043 C 
BRANCH  15  16
ATOM     16  CG  UNL     1      38.175 -23.740 -12.154  0.00  0.00    +0.112 C 
BRANCH  16  18
ATOM     17  OE2 UNL     1      38.467 -26.118 -12.601  0.00  0.00    -0.250 OA
ATOM     18  CD  UNL     1      38.639 -24.952 -12.931  0.00  0.00    +0.314 C 
BRANCH  18  19
ATOM     19  OE1 UNL     1      39.325 -24.596 -14.050  0.00  0.00    -0.480 OA
ATOM     20  HE1 UNL     1      40.056 -24.014 -13.985  0.00  0.00    +0.295 HD
ENDBRANCH  18  19
ENDBRANCH  16  18
ENDBRANCH  15  16
ENDBRANCH  10  15
ENDBRANCH   7  10
ENDBRANCH   3   8
BRANCH   2  21
ATOM     21  N   UNL     1      34.324 -20.924 -19.965  0.00  0.00    -0.297 N 
ATOM     22  C   UNL     1      33.030 -20.507 -20.508  0.00  0.00    +0.113 C 
BRANCH  21  23
ATOM     23  C   UNL     1      35.509 -20.455 -20.650  0.00  0.00    +0.118 C 
BRANCH  23  27
ATOM     24  O   UNL     1      34.895 -15.377 -20.027  0.00  0.00    -0.209 OA
ATOM     25  N   UNL     1      34.317 -15.978 -23.948  0.00  0.00    -0.290 N 
ATOM     26  N   UNL     1      34.421 -14.492 -22.088  0.00  0.00    -0.322 NA
ATOM     27  C   UNL     1      35.195 -19.284 -21.519  0.00  0.00    -0.002 C 
ATOM     28  C   UNL     1      34.814 -16.917 -21.785  0.00  0.00    +0.108 C 
ATOM     29  C   UNL     1      35.108 -18.007 -20.963  0.00  0.00    +0.011 C 
ATOM     30  C   UNL     1      34.607 -17.094 -23.161  0.00  0.00    +0.062 C 
ATOM     31  C   UNL     1      34.990 -19.468 -22.887  0.00  0.00    -0.001 C 
ATOM     32  C   UNL     1      34.697 -18.377 -23.707  0.00  0.00    +0.015 C 
ATOM     33  C   UNL     1      34.714 -15.538 -21.230  0.00  0.00    +0.207 C 
ATOM     34  C   UNL     1      34.241 -14.742 -23.352  0.00  0.00    +0.174 C 
ATOM     35  C   UNL     1      33.922 -13.576 -24.257  0.00  0.00    +0.085 C 
ATOM     36  H   UNL     1      34.168 -16.076 -24.917  0.00  0.00    +0.154 HD
ENDBRANCH  23  27
ENDBRANCH  21  23
ENDBRANCH   2  21
TORSDOF 11
ENDMDL
