MODEL 1
REMARK VINA RESULT:      -6.7      0.000      0.000
REMARK  Name = 31513
REMARK  7 active torsions:
REMARK  status: ('A' for Active; 'I' for Inactive)
REMARK    1  A    between atoms: C_1  and  C_13
REMARK    2  A    between atoms: C_4  and  O_7
REMARK    3  A    between atoms: C_5  and  O_9
REMARK    4  A    between atoms: C_6  and  O_11
REMARK    5  A    between atoms: C_13  and  O_14
REMARK    6  A    between atoms: C_13  and  C_16
REMARK    7  A    between atoms: C_16  and  N_17
REMARK                            x       y       z     vdW  Elec       q    Type
REMARK                         _______ _______ _______ _____ _____    ______ ____
ROOT
ATOM      1  C   UNL     1      34.268 -15.556 -22.585  0.00  0.00    +0.008 C 
ATOM      2  C   UNL     1      33.958 -15.168 -23.889  0.00  0.00    +0.038 C 
ATOM      3  C   UNL     1      34.710 -16.854 -22.330  0.00  0.00    +0.038 C 
ATOM      4  C   UNL     1      34.841 -17.765 -23.379  0.00  0.00    +0.175 C 
ATOM      5  C   UNL     1      34.090 -16.079 -24.937  0.00  0.00    +0.175 C 
ATOM      6  C   UNL     1      34.531 -17.377 -24.682  0.00  0.00    +0.202 C 
ENDROOT
BRANCH   4   7
ATOM      7  O   UNL     1      35.275 -19.029 -23.117  0.00  0.00    -0.468 OA
ATOM      8  C   UNL     1      34.954 -19.573 -21.838  0.00  0.00    +0.253 C 
ENDBRANCH   4   7
BRANCH   5   9
ATOM      9  O   UNL     1      33.783 -15.687 -26.206  0.00  0.00    -0.468 OA
ATOM     10  C   UNL     1      32.945 -14.541 -26.344  0.00  0.00    +0.253 C 
ENDBRANCH   5   9
BRANCH   6  11
ATOM     11  O   UNL     1      34.660 -18.267 -25.708  0.00  0.00    -0.501 OA
ATOM     12  H   UNL     1      35.437 -18.271 -26.229  0.00  0.00    +0.292 HD
ENDBRANCH   6  11
BRANCH   1  13
ATOM     13  C   UNL     1      34.129 -14.582 -21.464  0.00  0.00    +0.112 C 
BRANCH  13  14
ATOM     14  O   UNL     1      34.896 -15.044 -20.345  0.00  0.00    -0.382 OA
ATOM     15  H   UNL     1      35.091 -14.299 -19.756  0.00  0.00    +0.211 HD
ENDBRANCH  13  14
BRANCH  13  16
ATOM     16  C   UNL     1      32.660 -14.396 -21.033  0.00  0.00    -0.047 C 
BRANCH  16  17
ATOM     17  N   UNL     1      32.306 -12.983 -20.926  0.00  0.00    +0.384 N 
ATOM     18  C   UNL     1      32.014 -12.422 -22.236  0.00  0.00    -0.106 C 
ATOM     19  H   UNL     1      33.086 -12.473 -20.509  0.00  0.00    -0.085 HD
ATOM     20  H   UNL     1      31.475 -12.897 -20.341  0.00  0.00    -0.085 HD
ENDBRANCH  16  17
ENDBRANCH  13  16
ENDBRANCH   1  13
TORSDOF 7
ENDMDL
MODEL 2
REMARK VINA RESULT:      -6.7      0.024      3.244
REMARK  Name = 31513
REMARK  7 active torsions:
REMARK  status: ('A' for Active; 'I' for Inactive)
REMARK    1  A    between atoms: C_1  and  C_13
REMARK    2  A    between atoms: C_4  and  O_7
REMARK    3  A    between atoms: C_5  and  O_9
REMARK    4  A    between atoms: C_6  and  O_11
REMARK    5  A    between atoms: C_13  and  O_14
REMARK    6  A    between atoms: C_13  and  C_16
REMARK    7  A    between atoms: C_16  and  N_17
REMARK                            x       y       z     vdW  Elec       q    Type
REMARK                         _______ _______ _______ _____ _____    ______ ____
ROOT
ATOM      1  C   UNL     1      34.259 -15.564 -22.586  0.00  0.00    +0.008 C 
ATOM      2  C   UNL     1      34.706 -16.862 -22.338  0.00  0.00    +0.038 C 
ATOM      3  C   UNL     1      33.941 -15.173 -23.886  0.00  0.00    +0.038 C 
ATOM      4  C   UNL     1      34.069 -16.079 -24.939  0.00  0.00    +0.175 C 
ATOM      5  C   UNL     1      34.834 -17.769 -23.391  0.00  0.00    +0.175 C 
ATOM      6  C   UNL     1      34.516 -17.377 -24.691  0.00  0.00    +0.202 C 
ENDROOT
BRANCH   4   7
ATOM      7  O   UNL     1      33.754 -15.685 -26.204  0.00  0.00    -0.468 OA
ATOM      8  C   UNL     1      32.898 -14.552 -26.336  0.00  0.00    +0.253 C 
ENDBRANCH   4   7
BRANCH   5   9
ATOM      9  O   UNL     1      35.272 -19.033 -23.135  0.00  0.00    -0.468 OA
ATOM     10  C   UNL     1      34.925 -19.595 -21.870  0.00  0.00    +0.253 C 
ENDBRANCH   5   9
BRANCH   6  11
ATOM     11  O   UNL     1      34.642 -18.264 -25.720  0.00  0.00    -0.501 OA
ATOM     12  H   UNL     1      34.027 -18.964 -25.811  0.00  0.00    +0.292 HD
ENDBRANCH   6  11
BRANCH   1  13
ATOM     13  C   UNL     1      34.121 -14.595 -21.461  0.00  0.00    +0.112 C 
BRANCH  13  14
ATOM     14  O   UNL     1      34.881 -15.067 -20.340  0.00  0.00    -0.382 OA
ATOM     15  H   UNL     1      34.298 -15.552 -19.736  0.00  0.00    +0.211 HD
ENDBRANCH  13  14
BRANCH  13  16
ATOM     16  C   UNL     1      32.652 -14.400 -21.036  0.00  0.00    -0.047 C 
BRANCH  16  17
ATOM     17  N   UNL     1      32.308 -12.984 -20.924  0.00  0.00    +0.384 N 
ATOM     18  C   UNL     1      32.012 -12.419 -22.232  0.00  0.00    -0.106 C 
ATOM     19  H   UNL     1      33.094 -12.481 -20.511  0.00  0.00    -0.085 HD
ATOM     20  H   UNL     1      31.480 -12.894 -20.335  0.00  0.00    -0.085 HD
ENDBRANCH  16  17
ENDBRANCH  13  16
ENDBRANCH   1  13
TORSDOF 7
ENDMDL
MODEL 3
REMARK VINA RESULT:      -6.6      8.773     11.785
REMARK  Name = 31513
REMARK  7 active torsions:
REMARK  status: ('A' for Active; 'I' for Inactive)
REMARK    1  A    between atoms: C_1  and  C_13
REMARK    2  A    between atoms: C_4  and  O_7
REMARK    3  A    between atoms: C_5  and  O_9
REMARK    4  A    between atoms: C_6  and  O_11
REMARK    5  A    between atoms: C_13  and  O_14
REMARK    6  A    between atoms: C_13  and  C_16
REMARK    7  A    between atoms: C_16  and  N_17
REMARK                            x       y       z     vdW  Elec       q    Type
REMARK                         _______ _______ _______ _____ _____    ______ ____
ROOT
ATOM      1  C   UNL     1      34.354 -23.591 -15.694  0.00  0.00    +0.008 C 
ATOM      2  C   UNL     1      33.276 -23.731 -14.820  0.00  0.00    +0.038 C 
ATOM      3  C   UNL     1      34.140 -23.150 -17.000  0.00  0.00    +0.038 C 
ATOM      4  C   UNL     1      32.848 -22.848 -17.431  0.00  0.00    +0.175 C 
ATOM      5  C   UNL     1      31.984 -23.429 -15.251  0.00  0.00    +0.175 C 
ATOM      6  C   UNL     1      31.770 -22.987 -16.557  0.00  0.00    +0.202 C 
ENDROOT
BRANCH   4   7
ATOM      7  O   UNL     1      32.652 -22.416 -18.708  0.00  0.00    -0.468 OA
ATOM      8  C   UNL     1      33.744 -21.753 -19.343  0.00  0.00    +0.253 C 
ENDBRANCH   4   7
BRANCH   5   9
ATOM      9  O   UNL     1      30.941 -23.570 -14.387  0.00  0.00    -0.468 OA
ATOM     10  C   UNL     1      30.818 -24.824 -13.719  0.00  0.00    +0.253 C 
ENDBRANCH   5   9
BRANCH   6  11
ATOM     11  O   UNL     1      30.507 -22.692 -16.978  0.00  0.00    -0.501 OA
ATOM     12  H   UNL     1      30.375 -22.281 -17.808  0.00  0.00    +0.292 HD
ENDBRANCH   6  11
BRANCH   1  13
ATOM     13  C   UNL     1      35.736 -23.913 -15.234  0.00  0.00    +0.112 C 
BRANCH  13  14
ATOM     14  O   UNL     1      36.673 -23.490 -16.233  0.00  0.00    -0.382 OA
ATOM     15  H   UNL     1      36.823 -22.536 -16.152  0.00  0.00    +0.211 HD
ENDBRANCH  13  14
BRANCH  13  16
ATOM     16  C   UNL     1      35.923 -25.419 -14.962  0.00  0.00    -0.047 C 
BRANCH  16  17
ATOM     17  N   UNL     1      36.118 -25.689 -13.540  0.00  0.00    +0.384 N 
ATOM     18  C   UNL     1      37.429 -26.271 -13.299  0.00  0.00    -0.106 C 
ATOM     19  H   UNL     1      35.399 -26.339 -13.221  0.00  0.00    -0.085 HD
ATOM     20  H   UNL     1      36.053 -24.809 -13.027  0.00  0.00    -0.085 HD
ENDBRANCH  16  17
ENDBRANCH  13  16
ENDBRANCH   1  13
TORSDOF 7
ENDMDL
MODEL 4
REMARK VINA RESULT:      -6.5      8.768     11.480
REMARK  Name = 31513
REMARK  7 active torsions:
REMARK  status: ('A' for Active; 'I' for Inactive)
REMARK    1  A    between atoms: C_1  and  C_13
REMARK    2  A    between atoms: C_4  and  O_7
REMARK    3  A    between atoms: C_5  and  O_9
REMARK    4  A    between atoms: C_6  and  O_11
REMARK    5  A    between atoms: C_13  and  O_14
REMARK    6  A    between atoms: C_13  and  C_16
REMARK    7  A    between atoms: C_16  and  N_17
REMARK                            x       y       z     vdW  Elec       q    Type
REMARK                         _______ _______ _______ _____ _____    ______ ____
ROOT
ATOM      1  C   UNL     1      34.361 -23.623 -15.697  0.00  0.00    +0.008 C 
ATOM      2  C   UNL     1      34.155 -23.134 -16.987  0.00  0.00    +0.038 C 
ATOM      3  C   UNL     1      33.276 -23.819 -14.844  0.00  0.00    +0.038 C 
ATOM      4  C   UNL     1      31.983 -23.525 -15.280  0.00  0.00    +0.175 C 
ATOM      5  C   UNL     1      32.863 -22.839 -17.423  0.00  0.00    +0.175 C 
ATOM      6  C   UNL     1      31.777 -23.035 -16.570  0.00  0.00    +0.202 C 
ENDROOT
BRANCH   4   7
ATOM      7  O   UNL     1      30.932 -23.721 -14.438  0.00  0.00    -0.468 OA
ATOM      8  C   UNL     1      30.469 -25.061 -14.280  0.00  0.00    +0.253 C 
ENDBRANCH   4   7
BRANCH   5   9
ATOM      9  O   UNL     1      32.676 -22.362 -18.685  0.00  0.00    -0.468 OA
ATOM     10  C   UNL     1      33.824 -21.852 -19.362  0.00  0.00    +0.253 C 
ENDBRANCH   5   9
BRANCH   6  11
ATOM     11  O   UNL     1      30.514 -22.748 -16.997  0.00  0.00    -0.501 OA
ATOM     12  H   UNL     1      29.813 -23.339 -16.813  0.00  0.00    +0.292 HD
ENDBRANCH   6  11
BRANCH   1  13
ATOM     13  C   UNL     1      35.743 -23.938 -15.231  0.00  0.00    +0.112 C 
BRANCH  13  14
ATOM     14  O   UNL     1      36.683 -23.493 -16.217  0.00  0.00    -0.382 OA
ATOM     15  H   UNL     1      37.355 -22.937 -15.795  0.00  0.00    +0.211 HD
ENDBRANCH  13  14
BRANCH  13  16
ATOM     16  C   UNL     1      35.943 -25.446 -14.978  0.00  0.00    -0.047 C 
BRANCH  16  17
ATOM     17  N   UNL     1      36.134 -25.733 -13.559  0.00  0.00    +0.384 N 
ATOM     18  C   UNL     1      37.501 -26.154 -13.296  0.00  0.00    -0.106 C 
ATOM     19  H   UNL     1      35.494 -26.477 -13.279  0.00  0.00    -0.085 HD
ATOM     20  H   UNL     1      35.945 -24.885 -13.025  0.00  0.00    -0.085 HD
ENDBRANCH  16  17
ENDBRANCH  13  16
ENDBRANCH   1  13
TORSDOF 7
ENDMDL
MODEL 5
REMARK VINA RESULT:      -6.5      9.178     11.349
REMARK  Name = 31513
REMARK  7 active torsions:
REMARK  status: ('A' for Active; 'I' for Inactive)
REMARK    1  A    between atoms: C_1  and  C_13
REMARK    2  A    between atoms: C_4  and  O_7
REMARK    3  A    between atoms: C_5  and  O_9
REMARK    4  A    between atoms: C_6  and  O_11
REMARK    5  A    between atoms: C_13  and  O_14
REMARK    6  A    between atoms: C_13  and  C_16
REMARK    7  A    between atoms: C_16  and  N_17
REMARK                            x       y       z     vdW  Elec       q    Type
REMARK                         _______ _______ _______ _____ _____    ______ ____
ROOT
ATOM      1  C   UNL     1      33.645 -23.732 -15.101  0.00  0.00    +0.008 C 
ATOM      2  C   UNL     1      34.637 -23.473 -16.047  0.00  0.00    +0.038 C 
ATOM      3  C   UNL     1      32.307 -23.487 -15.410  0.00  0.00    +0.038 C 
ATOM      4  C   UNL     1      31.960 -22.984 -16.664  0.00  0.00    +0.175 C 
ATOM      5  C   UNL     1      34.290 -22.970 -17.302  0.00  0.00    +0.175 C 
ATOM      6  C   UNL     1      32.952 -22.726 -17.610  0.00  0.00    +0.202 C 
ENDROOT
BRANCH   4   7
ATOM      7  O   UNL     1      30.650 -22.751 -16.953  0.00  0.00    -0.468 OA
ATOM      8  C   UNL     1      29.685 -23.225 -16.016  0.00  0.00    +0.253 C 
ENDBRANCH   4   7
BRANCH   5   9
ATOM      9  O   UNL     1      35.269 -22.722 -18.216  0.00  0.00    -0.468 OA
ATOM     10  C   UNL     1      36.349 -21.887 -17.799  0.00  0.00    +0.253 C 
ENDBRANCH   5   9
BRANCH   6  11
ATOM     11  O   UNL     1      32.614 -22.234 -18.836  0.00  0.00    -0.501 OA
ATOM     12  H   UNL     1      33.279 -21.908 -19.409  0.00  0.00    +0.292 HD
ENDBRANCH   6  11
BRANCH   1  13
ATOM     13  C   UNL     1      34.015 -24.270 -13.760  0.00  0.00    +0.112 C 
BRANCH  13  14
ATOM     14  O   UNL     1      33.399 -23.465 -12.747  0.00  0.00    -0.382 OA
ATOM     15  H   UNL     1      33.067 -22.644 -13.143  0.00  0.00    +0.211 HD
ENDBRANCH  13  14
BRANCH  13  16
ATOM     16  C   UNL     1      35.540 -24.289 -13.540  0.00  0.00    -0.047 C 
BRANCH  16  17
ATOM     17  N   UNL     1      36.060 -25.654 -13.492  0.00  0.00    +0.384 N 
ATOM     18  C   UNL     1      37.275 -25.717 -12.696  0.00  0.00    -0.106 C 
ATOM     19  H   UNL     1      36.265 -25.967 -14.442  0.00  0.00    -0.085 HD
ATOM     20  H   UNL     1      35.357 -26.257 -13.065  0.00  0.00    -0.085 HD
ENDBRANCH  16  17
ENDBRANCH  13  16
ENDBRANCH   1  13
TORSDOF 7
ENDMDL
MODEL 6
REMARK VINA RESULT:      -6.5      9.169     11.206
REMARK  Name = 31513
REMARK  7 active torsions:
REMARK  status: ('A' for Active; 'I' for Inactive)
REMARK    1  A    between atoms: C_1  and  C_13
REMARK    2  A    between atoms: C_4  and  O_7
REMARK    3  A    between atoms: C_5  and  O_9
REMARK    4  A    between atoms: C_6  and  O_11
REMARK    5  A    between atoms: C_13  and  O_14
REMARK    6  A    between atoms: C_13  and  C_16
REMARK    7  A    between atoms: C_16  and  N_17
REMARK                            x       y       z     vdW  Elec       q    Type
REMARK                         _______ _______ _______ _____ _____    ______ ____
ROOT
ATOM      1  C   UNL     1      33.574 -23.613 -15.124  0.00  0.00    +0.008 C 
ATOM      2  C   UNL     1      32.246 -23.380 -15.484  0.00  0.00    +0.038 C 
ATOM      3  C   UNL     1      34.597 -23.383 -16.043  0.00  0.00    +0.038 C 
ATOM      4  C   UNL     1      34.293 -22.919 -17.324  0.00  0.00    +0.175 C 
ATOM      5  C   UNL     1      31.943 -22.916 -16.764  0.00  0.00    +0.175 C 
ATOM      6  C   UNL     1      32.965 -22.686 -17.684  0.00  0.00    +0.202 C 
ENDROOT
BRANCH   4   7
ATOM      7  O   UNL     1      35.301 -22.696 -18.212  0.00  0.00    -0.468 OA
ATOM      8  C   UNL     1      36.386 -21.882 -17.771  0.00  0.00    +0.253 C 
ENDBRANCH   4   7
BRANCH   5   9
ATOM      9  O   UNL     1      30.642 -22.693 -17.104  0.00  0.00    -0.468 OA
ATOM     10  C   UNL     1      29.650 -23.075 -16.152  0.00  0.00    +0.253 C 
ENDBRANCH   5   9
BRANCH   6  11
ATOM     11  O   UNL     1      32.668 -22.232 -18.935  0.00  0.00    -0.501 OA
ATOM     12  H   UNL     1      31.814 -21.896 -19.120  0.00  0.00    +0.292 HD
ENDBRANCH   6  11
BRANCH   1  13
ATOM     13  C   UNL     1      33.899 -24.109 -13.755  0.00  0.00    +0.112 C 
BRANCH  13  14
ATOM     14  O   UNL     1      33.204 -23.308 -12.790  0.00  0.00    -0.382 OA
ATOM     15  H   UNL     1      33.416 -22.373 -12.933  0.00  0.00    +0.211 HD
ENDBRANCH  13  14
BRANCH  13  16
ATOM     16  C   UNL     1      35.412 -24.062 -13.463  0.00  0.00    -0.047 C 
BRANCH  16  17
ATOM     17  N   UNL     1      35.878 -25.299 -12.840  0.00  0.00    +0.384 N 
ATOM     18  C   UNL     1      37.118 -25.750 -13.453  0.00  0.00    -0.106 C 
ATOM     19  H   UNL     1      35.165 -26.020 -12.956  0.00  0.00    -0.085 HD
ATOM     20  H   UNL     1      36.047 -25.124 -11.850  0.00  0.00    -0.085 HD
ENDBRANCH  16  17
ENDBRANCH  13  16
ENDBRANCH   1  13
TORSDOF 7
ENDMDL
MODEL 7
REMARK VINA RESULT:      -6.5      7.498     10.168
REMARK  Name = 31513
REMARK  7 active torsions:
REMARK  status: ('A' for Active; 'I' for Inactive)
REMARK    1  A    between atoms: C_1  and  C_13
REMARK    2  A    between atoms: C_4  and  O_7
REMARK    3  A    between atoms: C_5  and  O_9
REMARK    4  A    between atoms: C_6  and  O_11
REMARK    5  A    between atoms: C_13  and  O_14
REMARK    6  A    between atoms: C_13  and  C_16
REMARK    7  A    between atoms: C_16  and  N_17
REMARK                            x       y       z     vdW  Elec       q    Type
REMARK                         _______ _______ _______ _____ _____    ______ ____
ROOT
ATOM      1  C   UNL     1      35.937 -22.717 -16.543  0.00  0.00    +0.008 C 
ATOM      2  C   UNL     1      36.215 -22.111 -17.768  0.00  0.00    +0.038 C 
ATOM      3  C   UNL     1      34.652 -23.189 -16.274  0.00  0.00    +0.038 C 
ATOM      4  C   UNL     1      33.645 -23.055 -17.231  0.00  0.00    +0.175 C 
ATOM      5  C   UNL     1      35.209 -21.978 -18.725  0.00  0.00    +0.175 C 
ATOM      6  C   UNL     1      33.924 -22.449 -18.456  0.00  0.00    +0.202 C 
ENDROOT
BRANCH   4   7
ATOM      7  O   UNL     1      32.396 -23.521 -16.957  0.00  0.00    -0.468 OA
ATOM      8  C   UNL     1      31.881 -23.268 -15.651  0.00  0.00    +0.253 C 
ENDBRANCH   4   7
BRANCH   5   9
ATOM      9  O   UNL     1      35.494 -21.384 -19.917  0.00  0.00    -0.468 OA
ATOM     10  C   UNL     1      36.652 -20.552 -19.966  0.00  0.00    +0.253 C 
ENDBRANCH   5   9
BRANCH   6  11
ATOM     11  O   UNL     1      32.940 -22.319 -19.392  0.00  0.00    -0.501 OA
ATOM     12  H   UNL     1      32.596 -23.078 -19.817  0.00  0.00    +0.292 HD
ENDBRANCH   6  11
BRANCH   1  13
ATOM     13  C   UNL     1      37.013 -22.861 -15.520  0.00  0.00    +0.112 C 
BRANCH  13  14
ATOM     14  O   UNL     1      38.284 -22.904 -16.181  0.00  0.00    -0.382 OA
ATOM     15  H   UNL     1      38.170 -22.677 -17.116  0.00  0.00    +0.211 HD
ENDBRANCH  13  14
BRANCH  13  16
ATOM     16  C   UNL     1      36.839 -24.132 -14.665  0.00  0.00    -0.047 C 
BRANCH  16  17
ATOM     17  N   UNL     1      37.596 -25.256 -15.211  0.00  0.00    +0.384 N 
ATOM     18  C   UNL     1      36.801 -26.474 -15.189  0.00  0.00    -0.106 C 
ATOM     19  H   UNL     1      38.438 -25.395 -14.651  0.00  0.00    -0.085 HD
ATOM     20  H   UNL     1      37.844 -25.045 -16.177  0.00  0.00    -0.085 HD
ENDBRANCH  16  17
ENDBRANCH  13  16
ENDBRANCH   1  13
TORSDOF 7
ENDMDL
MODEL 8
REMARK VINA RESULT:      -6.5      1.250      3.513
REMARK  Name = 31513
REMARK  7 active torsions:
REMARK  status: ('A' for Active; 'I' for Inactive)
REMARK    1  A    between atoms: C_1  and  C_13
REMARK    2  A    between atoms: C_4  and  O_7
REMARK    3  A    between atoms: C_5  and  O_9
REMARK    4  A    between atoms: C_6  and  O_11
REMARK    5  A    between atoms: C_13  and  O_14
REMARK    6  A    between atoms: C_13  and  C_16
REMARK    7  A    between atoms: C_16  and  N_17
REMARK                            x       y       z     vdW  Elec       q    Type
REMARK                         _______ _______ _______ _____ _____    ______ ____
ROOT
ATOM      1  C   UNL     1      33.596 -14.753 -23.093  0.00  0.00    +0.008 C 
ATOM      2  C   UNL     1      34.319 -15.884 -22.712  0.00  0.00    +0.038 C 
ATOM      3  C   UNL     1      33.294 -14.539 -24.437  0.00  0.00    +0.038 C 
ATOM      4  C   UNL     1      33.715 -15.455 -25.402  0.00  0.00    +0.175 C 
ATOM      5  C   UNL     1      34.740 -16.800 -23.676  0.00  0.00    +0.175 C 
ATOM      6  C   UNL     1      34.438 -16.585 -25.021  0.00  0.00    +0.202 C 
ENDROOT
BRANCH   4   7
ATOM      7  O   UNL     1      33.413 -15.235 -26.711  0.00  0.00    -0.468 OA
ATOM      8  C   UNL     1      33.180 -13.884 -27.105  0.00  0.00    +0.253 C 
ENDBRANCH   4   7
BRANCH   5   9
ATOM      9  O   UNL     1      35.446 -17.900 -23.291  0.00  0.00    -0.468 OA
ATOM     10  C   UNL     1      34.702 -18.988 -22.747  0.00  0.00    +0.253 C 
ENDBRANCH   5   9
BRANCH   6  11
ATOM     11  O   UNL     1      34.850 -17.481 -25.963  0.00  0.00    -0.501 OA
ATOM     12  H   UNL     1      35.347 -18.233 -25.709  0.00  0.00    +0.292 HD
ENDBRANCH   6  11
BRANCH   1  13
ATOM     13  C   UNL     1      33.145 -13.774 -22.062  0.00  0.00    +0.112 C 
BRANCH  13  14
ATOM     14  O   UNL     1      32.341 -14.454 -21.090  0.00  0.00    -0.382 OA
ATOM     15  H   UNL     1      32.735 -14.348 -20.211  0.00  0.00    +0.211 HD
ENDBRANCH  13  14
BRANCH  13  16
ATOM     16  C   UNL     1      32.335 -12.614 -22.674  0.00  0.00    -0.047 C 
BRANCH  16  17
ATOM     17  N   UNL     1      31.272 -12.168 -21.777  0.00  0.00    +0.384 N 
ATOM     18  C   UNL     1      31.315 -10.725 -21.602  0.00  0.00    -0.106 C 
ATOM     19  H   UNL     1      31.389 -12.619 -20.870  0.00  0.00    -0.085 HD
ATOM     20  H   UNL     1      30.372 -12.421 -22.185  0.00  0.00    -0.085 HD
ENDBRANCH  16  17
ENDBRANCH  13  16
ENDBRANCH   1  13
TORSDOF 7
ENDMDL
MODEL 9
REMARK VINA RESULT:      -6.4      9.388     12.265
REMARK  Name = 31513
REMARK  7 active torsions:
REMARK  status: ('A' for Active; 'I' for Inactive)
REMARK    1  A    between atoms: C_1  and  C_13
REMARK    2  A    between atoms: C_4  and  O_7
REMARK    3  A    between atoms: C_5  and  O_9
REMARK    4  A    between atoms: C_6  and  O_11
REMARK    5  A    between atoms: C_13  and  O_14
REMARK    6  A    between atoms: C_13  and  C_16
REMARK    7  A    between atoms: C_16  and  N_17
REMARK                            x       y       z     vdW  Elec       q    Type
REMARK                         _______ _______ _______ _____ _____    ______ ____
ROOT
ATOM      1  C   UNL     1      33.436 -23.650 -14.434  0.00  0.00    +0.008 C 
ATOM      2  C   UNL     1      34.524 -24.044 -13.655  0.00  0.00    +0.038 C 
ATOM      3  C   UNL     1      33.636 -23.227 -15.748  0.00  0.00    +0.038 C 
ATOM      4  C   UNL     1      34.924 -23.198 -16.284  0.00  0.00    +0.175 C 
ATOM      5  C   UNL     1      35.812 -24.015 -14.190  0.00  0.00    +0.175 C 
ATOM      6  C   UNL     1      36.012 -23.592 -15.504  0.00  0.00    +0.202 C 
ENDROOT
BRANCH   4   7
ATOM      7  O   UNL     1      35.106 -22.785 -17.568  0.00  0.00    -0.468 OA
ATOM      8  C   UNL     1      33.937 -22.630 -18.371  0.00  0.00    +0.253 C 
ENDBRANCH   4   7
BRANCH   5   9
ATOM      9  O   UNL     1      36.865 -24.402 -13.418  0.00  0.00    -0.468 OA
ATOM     10  C   UNL     1      37.036 -25.803 -13.210  0.00  0.00    +0.253 C 
ENDBRANCH   5   9
BRANCH   6  11
ATOM     11  O   UNL     1      37.271 -23.565 -16.027  0.00  0.00    -0.501 OA
ATOM     12  H   UNL     1      37.438 -23.098 -16.822  0.00  0.00    +0.292 HD
ENDBRANCH   6  11
BRANCH   1  13
ATOM     13  C   UNL     1      32.058 -23.681 -13.863  0.00  0.00    +0.112 C 
BRANCH  13  14
ATOM     14  O   UNL     1      32.047 -22.949 -12.630  0.00  0.00    -0.382 OA
ATOM     15  H   UNL     1      32.308 -22.031 -12.797  0.00  0.00    +0.211 HD
ENDBRANCH  13  14
BRANCH  13  16
ATOM     16  C   UNL     1      31.565 -25.119 -13.608  0.00  0.00    -0.047 C 
BRANCH  16  17
ATOM     17  N   UNL     1      30.134 -25.252 -13.872  0.00  0.00    +0.384 N 
ATOM     18  C   UNL     1      29.806 -24.762 -15.201  0.00  0.00    -0.106 C 
ATOM     19  H   UNL     1      29.615 -24.713 -13.178  0.00  0.00    -0.085 HD
ATOM     20  H   UNL     1      29.882 -26.238 -13.815  0.00  0.00    -0.085 HD
ENDBRANCH  16  17
ENDBRANCH  13  16
ENDBRANCH   1  13
TORSDOF 7
ENDMDL
