MODEL 1
REMARK VINA RESULT:      -5.5      0.000      0.000
REMARK  Name = 15942827
REMARK  5 active torsions:
REMARK  status: ('A' for Active; 'I' for Inactive)
REMARK    1  A    between atoms: C_1  and  C_3
REMARK    2  A    between atoms: C_1  and  O_5
REMARK    3  A    between atoms: C_1  and  C_7
REMARK    4  A    between atoms: C_7  and  C_9
REMARK    5  A    between atoms: C_7  and  O_11
REMARK                            x       y       z     vdW  Elec       q    Type
REMARK                         _______ _______ _______ _____ _____    ______ ____
ROOT
ATOM      1  C   UNL     1      37.935 -25.874 -14.042  0.00  0.00    +0.169 C 
ENDROOT
BRANCH   1   3
ATOM      2  O   UNL     1      40.181 -26.639 -14.620  0.00  0.00    -0.348 OA
ATOM      3  C   UNL     1      39.416 -25.716 -13.847  0.00  0.00    +0.174 C 
ATOM      4  C   UNL     1      40.263 -25.255 -14.984  0.00  0.00    +0.174 C 
ENDBRANCH   1   3
BRANCH   1   5
ATOM      5  O   UNL     1      37.638 -27.245 -14.307  0.00  0.00    -0.379 OA
ATOM      6  H   UNL     1      38.154 -27.546 -15.072  0.00  0.00    +0.211 HD
ENDBRANCH   1   5
BRANCH   1   7
ATOM      7  C   UNL     1      37.140 -25.408 -12.813  0.00  0.00    +0.169 C 
BRANCH   7   9
ATOM      8  O   UNL     1      37.240 -24.026 -10.789  0.00  0.00    -0.348 OA
ATOM      9  C   UNL     1      37.874 -24.366 -12.019  0.00  0.00    +0.174 C 
ATOM     10  C   UNL     1      37.278 -23.017 -11.806  0.00  0.00    +0.174 C 
ENDBRANCH   7   9
BRANCH   7  11
ATOM     11  O   UNL     1      36.840 -26.517 -11.967  0.00  0.00    -0.379 OA
ATOM     12  H   UNL     1      36.132 -27.046 -12.367  0.00  0.00    +0.211 HD
ENDBRANCH   7  11
ENDBRANCH   1   7
TORSDOF 5
ENDMDL
MODEL 2
REMARK VINA RESULT:      -5.2      1.573      4.325
REMARK  Name = 15942827
REMARK  5 active torsions:
REMARK  status: ('A' for Active; 'I' for Inactive)
REMARK    1  A    between atoms: C_1  and  C_3
REMARK    2  A    between atoms: C_1  and  O_5
REMARK    3  A    between atoms: C_1  and  C_7
REMARK    4  A    between atoms: C_7  and  C_9
REMARK    5  A    between atoms: C_7  and  O_11
REMARK                            x       y       z     vdW  Elec       q    Type
REMARK                         _______ _______ _______ _____ _____    ______ ____
ROOT
ATOM      1  C   UNL     1      37.742 -23.910 -12.551  0.00  0.00    +0.169 C 
ENDROOT
BRANCH   1   3
ATOM      2  O   UNL     1      36.510 -24.089 -10.450  0.00  0.00    -0.348 OA
ATOM      3  C   UNL     1      36.822 -24.725 -11.687  0.00  0.00    +0.174 C 
ATOM      4  C   UNL     1      35.447 -24.226 -11.402  0.00  0.00    +0.174 C 
ENDBRANCH   1   3
BRANCH   1   5
ATOM      5  O   UNL     1      38.799 -23.384 -11.747  0.00  0.00    -0.379 OA
ATOM      6  H   UNL     1      39.508 -23.053 -12.321  0.00  0.00    +0.211 HD
ENDBRANCH   1   5
BRANCH   1   7
ATOM      7  C   UNL     1      38.338 -24.737 -13.700  0.00  0.00    +0.169 C 
BRANCH   7   9
ATOM      8  O   UNL     1      38.463 -26.992 -14.656  0.00  0.00    -0.348 OA
ATOM      9  C   UNL     1      37.783 -26.132 -13.746  0.00  0.00    +0.174 C 
ATOM     10  C   UNL     1      37.112 -26.638 -14.976  0.00  0.00    +0.174 C 
ENDBRANCH   7   9
BRANCH   7  11
ATOM     11  O   UNL     1      39.758 -24.802 -13.579  0.00  0.00    -0.379 OA
ATOM     12  H   UNL     1      40.167 -24.448 -14.384  0.00  0.00    +0.211 HD
ENDBRANCH   7  11
ENDBRANCH   1   7
TORSDOF 5
ENDMDL
MODEL 3
REMARK VINA RESULT:      -5.1      2.591      4.161
REMARK  Name = 15942827
REMARK  5 active torsions:
REMARK  status: ('A' for Active; 'I' for Inactive)
REMARK    1  A    between atoms: C_1  and  C_3
REMARK    2  A    between atoms: C_1  and  O_5
REMARK    3  A    between atoms: C_1  and  C_7
REMARK    4  A    between atoms: C_7  and  C_9
REMARK    5  A    between atoms: C_7  and  O_11
REMARK                            x       y       z     vdW  Elec       q    Type
REMARK                         _______ _______ _______ _____ _____    ______ ____
ROOT
ATOM      1  C   UNL     1      36.738 -25.462 -13.389  0.00  0.00    +0.169 C 
ENDROOT
BRANCH   1   3
ATOM      2  O   UNL     1      35.882 -25.269 -11.111  0.00  0.00    -0.348 OA
ATOM      3  C   UNL     1      35.778 -24.790 -12.449  0.00  0.00    +0.174 C 
ATOM      4  C   UNL     1      36.302 -23.921 -11.357  0.00  0.00    +0.174 C 
ENDBRANCH   1   3
BRANCH   1   5
ATOM      5  O   UNL     1      36.791 -26.857 -13.091  0.00  0.00    -0.379 OA
ATOM      6  H   UNL     1      36.232 -27.343 -13.717  0.00  0.00    +0.211 HD
ENDBRANCH   1   5
BRANCH   1   7
ATOM      7  C   UNL     1      36.336 -25.268 -14.859  0.00  0.00    +0.169 C 
BRANCH   7   9
ATOM      8  O   UNL     1      34.813 -24.081 -16.371  0.00  0.00    -0.348 OA
ATOM      9  C   UNL     1      35.241 -24.254 -15.023  0.00  0.00    +0.174 C 
ATOM     10  C   UNL     1      35.493 -22.980 -15.755  0.00  0.00    +0.174 C 
ENDBRANCH   7   9
BRANCH   7  11
ATOM     11  O   UNL     1      35.913 -26.509 -15.423  0.00  0.00    -0.379 OA
ATOM     12  H   UNL     1      35.156 -26.355 -16.011  0.00  0.00    +0.211 HD
ENDBRANCH   7  11
ENDBRANCH   1   7
TORSDOF 5
ENDMDL
MODEL 4
REMARK VINA RESULT:      -5.0      1.656      4.067
REMARK  Name = 15942827
REMARK  5 active torsions:
REMARK  status: ('A' for Active; 'I' for Inactive)
REMARK    1  A    between atoms: C_1  and  C_3
REMARK    2  A    between atoms: C_1  and  O_5
REMARK    3  A    between atoms: C_1  and  C_7
REMARK    4  A    between atoms: C_7  and  C_9
REMARK    5  A    between atoms: C_7  and  O_11
REMARK                            x       y       z     vdW  Elec       q    Type
REMARK                         _______ _______ _______ _____ _____    ______ ____
ROOT
ATOM      1  C   UNL     1      37.294 -25.538 -12.671  0.00  0.00    +0.169 C 
ENDROOT
BRANCH   1   3
ATOM      2  O   UNL     1      35.255 -25.084 -11.407  0.00  0.00    -0.348 OA
ATOM      3  C   UNL     1      36.156 -24.596 -12.398  0.00  0.00    +0.174 C 
ATOM      4  C   UNL     1      36.048 -23.940 -11.063  0.00  0.00    +0.174 C 
ENDBRANCH   1   3
BRANCH   1   5
ATOM      5  O   UNL     1      36.770 -26.820 -13.019  0.00  0.00    -0.379 OA
ATOM      6  H   UNL     1      35.824 -26.739 -13.220  0.00  0.00    +0.211 HD
ENDBRANCH   1   5
BRANCH   1   7
ATOM      7  C   UNL     1      38.200 -25.033 -13.804  0.00  0.00    +0.169 C 
BRANCH   7   9
ATOM      8  O   UNL     1      40.554 -24.663 -14.383  0.00  0.00    -0.348 OA
ATOM      9  C   UNL     1      39.636 -25.423 -13.604  0.00  0.00    +0.174 C 
ATOM     10  C   UNL     1      40.411 -26.051 -14.711  0.00  0.00    +0.174 C 
ENDBRANCH   7   9
BRANCH   7  11
ATOM     11  O   UNL     1      38.112 -23.613 -13.912  0.00  0.00    -0.379 OA
ATOM     12  H   UNL     1      37.957 -23.231 -13.033  0.00  0.00    +0.211 HD
ENDBRANCH   7  11
ENDBRANCH   1   7
TORSDOF 5
ENDMDL
MODEL 5
REMARK VINA RESULT:      -5.0      1.705      2.665
REMARK  Name = 15942827
REMARK  5 active torsions:
REMARK  status: ('A' for Active; 'I' for Inactive)
REMARK    1  A    between atoms: C_1  and  C_3
REMARK    2  A    between atoms: C_1  and  O_5
REMARK    3  A    between atoms: C_1  and  C_7
REMARK    4  A    between atoms: C_7  and  C_9
REMARK    5  A    between atoms: C_7  and  O_11
REMARK                            x       y       z     vdW  Elec       q    Type
REMARK                         _______ _______ _______ _____ _____    ______ ____
ROOT
ATOM      1  C   UNL     1      37.533 -25.923 -13.827  0.00  0.00    +0.169 C 
ENDROOT
BRANCH   1   3
ATOM      2  O   UNL     1      36.080 -25.986 -15.789  0.00  0.00    -0.348 OA
ATOM      3  C   UNL     1      36.844 -25.154 -14.919  0.00  0.00    +0.174 C 
ATOM      4  C   UNL     1      35.355 -25.084 -14.943  0.00  0.00    +0.174 C 
ENDBRANCH   1   3
BRANCH   1   5
ATOM      5  O   UNL     1      38.379 -26.913 -14.411  0.00  0.00    -0.379 OA
ATOM      6  H   UNL     1      39.090 -26.478 -14.908  0.00  0.00    +0.211 HD
ENDBRANCH   1   5
BRANCH   1   7
ATOM      7  C   UNL     1      38.368 -25.009 -12.918  0.00  0.00    +0.169 C 
BRANCH   7   9
ATOM      8  O   UNL     1      38.313 -22.905 -11.658  0.00  0.00    -0.348 OA
ATOM      9  C   UNL     1      37.721 -23.670 -12.704  0.00  0.00    +0.174 C 
ATOM     10  C   UNL     1      36.978 -23.382 -11.444  0.00  0.00    +0.174 C 
ENDBRANCH   7   9
BRANCH   7  11
ATOM     11  O   UNL     1      39.669 -24.816 -13.470  0.00  0.00    -0.379 OA
ATOM     12  H   UNL     1      39.810 -25.449 -14.193  0.00  0.00    +0.211 HD
ENDBRANCH   7  11
ENDBRANCH   1   7
TORSDOF 5
ENDMDL
MODEL 6
REMARK VINA RESULT:      -4.9      2.431      3.797
REMARK  Name = 15942827
REMARK  5 active torsions:
REMARK  status: ('A' for Active; 'I' for Inactive)
REMARK    1  A    between atoms: C_1  and  C_3
REMARK    2  A    between atoms: C_1  and  O_5
REMARK    3  A    between atoms: C_1  and  C_7
REMARK    4  A    between atoms: C_7  and  C_9
REMARK    5  A    between atoms: C_7  and  O_11
REMARK                            x       y       z     vdW  Elec       q    Type
REMARK                         _______ _______ _______ _____ _____    ______ ____
ROOT
ATOM      1  C   UNL     1      36.037 -25.439 -14.724  0.00  0.00    +0.169 C 
ENDROOT
BRANCH   1   3
ATOM      2  O   UNL     1      35.068 -23.884 -16.338  0.00  0.00    -0.348 OA
ATOM      3  C   UNL     1      36.067 -24.068 -15.337  0.00  0.00    +0.174 C 
ATOM      4  C   UNL     1      34.920 -23.140 -15.121  0.00  0.00    +0.174 C 
ENDBRANCH   1   3
BRANCH   1   5
ATOM      5  O   UNL     1      36.069 -26.419 -15.761  0.00  0.00    -0.379 OA
ATOM      6  H   UNL     1      35.229 -26.403 -16.246  0.00  0.00    +0.211 HD
ENDBRANCH   1   5
BRANCH   1   7
ATOM      7  C   UNL     1      37.218 -25.668 -13.769  0.00  0.00    +0.169 C 
BRANCH   7   9
ATOM      8  O   UNL     1      39.599 -26.247 -13.654  0.00  0.00    -0.348 OA
ATOM      9  C   UNL     1      38.443 -26.163 -14.483  0.00  0.00    +0.174 C 
ATOM     10  C   UNL     1      39.611 -25.262 -14.696  0.00  0.00    +0.174 C 
ENDBRANCH   7   9
BRANCH   7  11
ATOM     11  O   UNL     1      36.859 -26.602 -12.752  0.00  0.00    -0.379 OA
ATOM     12  H   UNL     1      36.138 -27.167 -13.073  0.00  0.00    +0.211 HD
ENDBRANCH   7  11
ENDBRANCH   1   7
TORSDOF 5
ENDMDL
MODEL 7
REMARK VINA RESULT:      -4.8     13.194     13.643
REMARK  Name = 15942827
REMARK  5 active torsions:
REMARK  status: ('A' for Active; 'I' for Inactive)
REMARK    1  A    between atoms: C_1  and  C_3
REMARK    2  A    between atoms: C_1  and  O_5
REMARK    3  A    between atoms: C_1  and  C_7
REMARK    4  A    between atoms: C_7  and  C_9
REMARK    5  A    between atoms: C_7  and  O_11
REMARK                            x       y       z     vdW  Elec       q    Type
REMARK                         _______ _______ _______ _____ _____    ______ ____
ROOT
ATOM      1  C   UNL     1      34.685 -16.690 -21.429  0.00  0.00    +0.169 C 
ENDROOT
BRANCH   1   3
ATOM      2  O   UNL     1      35.791 -18.693 -20.575  0.00  0.00    -0.348 OA
ATOM      3  C   UNL     1      35.565 -17.873 -21.719  0.00  0.00    +0.174 C 
ATOM      4  C   UNL     1      35.000 -19.250 -21.632  0.00  0.00    +0.174 C 
ENDBRANCH   1   3
BRANCH   1   5
ATOM      5  O   UNL     1      35.061 -16.121 -20.175  0.00  0.00    -0.379 OA
ATOM      6  H   UNL     1      34.468 -16.449 -19.480  0.00  0.00    +0.211 HD
ENDBRANCH   1   5
BRANCH   1   7
ATOM      7  C   UNL     1      34.781 -15.619 -22.526  0.00  0.00    +0.169 C 
BRANCH   7   9
ATOM      8  O   UNL     1      33.499 -14.420 -24.239  0.00  0.00    -0.348 OA
ATOM      9  C   UNL     1      33.436 -15.249 -23.082  0.00  0.00    +0.174 C 
ATOM     10  C   UNL     1      32.965 -13.836 -23.044  0.00  0.00    +0.174 C 
ENDBRANCH   7   9
BRANCH   7  11
ATOM     11  O   UNL     1      35.618 -16.072 -23.589  0.00  0.00    -0.379 OA
ATOM     12  H   UNL     1      35.120 -16.056 -24.421  0.00  0.00    +0.211 HD
ENDBRANCH   7  11
ENDBRANCH   1   7
TORSDOF 5
ENDMDL
MODEL 8
REMARK VINA RESULT:      -4.8     12.986     13.531
REMARK  Name = 15942827
REMARK  5 active torsions:
REMARK  status: ('A' for Active; 'I' for Inactive)
REMARK    1  A    between atoms: C_1  and  C_3
REMARK    2  A    between atoms: C_1  and  O_5
REMARK    3  A    between atoms: C_1  and  C_7
REMARK    4  A    between atoms: C_7  and  C_9
REMARK    5  A    between atoms: C_7  and  O_11
REMARK                            x       y       z     vdW  Elec       q    Type
REMARK                         _______ _______ _______ _____ _____    ______ ____
ROOT
ATOM      1  C   UNL     1      34.649 -16.102 -22.624  0.00  0.00    +0.169 C 
ENDROOT
BRANCH   1   3
ATOM      2  O   UNL     1      34.178 -13.806 -23.307  0.00  0.00    -0.348 OA
ATOM      3  C   UNL     1      34.354 -14.691 -22.203  0.00  0.00    +0.174 C 
ATOM      4  C   UNL     1      33.022 -14.095 -22.510  0.00  0.00    +0.174 C 
ENDBRANCH   1   3
BRANCH   1   5
ATOM      5  O   UNL     1      35.657 -16.091 -23.635  0.00  0.00    -0.379 OA
ATOM      6  H   UNL     1      35.458 -16.771 -24.297  0.00  0.00    +0.211 HD
ENDBRANCH   1   5
BRANCH   1   7
ATOM      7  C   UNL     1      35.119 -16.968 -21.445  0.00  0.00    +0.169 C 
BRANCH   7   9
ATOM      8  O   UNL     1      34.970 -19.249 -20.556  0.00  0.00    -0.348 OA
ATOM      9  C   UNL     1      34.318 -18.231 -21.310  0.00  0.00    +0.174 C 
ATOM     10  C   UNL     1      34.780 -19.493 -21.955  0.00  0.00    +0.174 C 
ENDBRANCH   7   9
BRANCH   7  11
ATOM     11  O   UNL     1      35.038 -16.230 -20.226  0.00  0.00    -0.379 OA
ATOM     12  H   UNL     1      34.996 -15.281 -20.426  0.00  0.00    +0.211 HD
ENDBRANCH   7  11
ENDBRANCH   1   7
TORSDOF 5
ENDMDL
MODEL 9
REMARK VINA RESULT:      -4.8     13.256     13.578
REMARK  Name = 15942827
REMARK  5 active torsions:
REMARK  status: ('A' for Active; 'I' for Inactive)
REMARK    1  A    between atoms: C_1  and  C_3
REMARK    2  A    between atoms: C_1  and  O_5
REMARK    3  A    between atoms: C_1  and  C_7
REMARK    4  A    between atoms: C_7  and  C_9
REMARK    5  A    between atoms: C_7  and  O_11
REMARK                            x       y       z     vdW  Elec       q    Type
REMARK                         _______ _______ _______ _____ _____    ______ ____
ROOT
ATOM      1  C   UNL     1      34.859 -17.544 -23.279  0.00  0.00    +0.169 C 
ENDROOT
BRANCH   1   3
ATOM      2  O   UNL     1      35.048 -16.745 -25.579  0.00  0.00    -0.348 OA
ATOM      3  C   UNL     1      34.868 -16.369 -24.215  0.00  0.00    +0.174 C 
ATOM      4  C   UNL     1      33.769 -16.213 -25.211  0.00  0.00    +0.174 C 
ENDBRANCH   1   3
BRANCH   1   5
ATOM      5  O   UNL     1      36.137 -18.179 -23.308  0.00  0.00    -0.379 OA
ATOM      6  H   UNL     1      36.593 -17.951 -24.133  0.00  0.00    +0.211 HD
ENDBRANCH   1   5
BRANCH   1   7
ATOM      7  C   UNL     1      34.527 -17.130 -21.838  0.00  0.00    +0.169 C 
BRANCH   7   9
ATOM      8  O   UNL     1      34.887 -15.288 -20.258  0.00  0.00    -0.348 OA
ATOM      9  C   UNL     1      34.677 -15.651 -21.620  0.00  0.00    +0.174 C 
ATOM     10  C   UNL     1      33.647 -14.891 -20.857  0.00  0.00    +0.174 C 
ENDBRANCH   7   9
BRANCH   7  11
ATOM     11  O   UNL     1      35.365 -17.826 -20.917  0.00  0.00    -0.379 OA
ATOM     12  H   UNL     1      34.861 -18.544 -20.501  0.00  0.00    +0.211 HD
ENDBRANCH   7  11
ENDBRANCH   1   7
TORSDOF 5
ENDMDL
