MODEL 1
REMARK VINA RESULT:      -7.2      0.000      0.000
REMARK  Name = 182137
REMARK  2 active torsions:
REMARK  status: ('A' for Active; 'I' for Inactive)
REMARK    1  A    between atoms: C_2  and  C_9
REMARK    2  A    between atoms: C_2  and  N_15
REMARK                            x       y       z     vdW  Elec       q    Type
REMARK                         _______ _______ _______ _____ _____    ______ ____
ROOT
ATOM      1  O   UNL     1      37.949 -23.168 -13.046  0.00  0.00    -0.298 OA
ATOM      2  C   UNL     1      36.121 -23.864 -14.509  0.00  0.00    +0.028 C 
ATOM      3  C   UNL     1      35.639 -25.339 -14.520  0.00  0.00    -0.009 C 
ATOM      4  C   UNL     1      36.571 -26.271 -15.303  0.00  0.00    -0.001 C 
ATOM      5  C   UNL     1      37.982 -26.234 -14.723  0.00  0.00    +0.008 C 
ATOM      6  C   UNL     1      37.561 -23.893 -13.963  0.00  0.00    +0.136 C 
ATOM      7  C   UNL     1      38.533 -24.819 -14.672  0.00  0.00    +0.063 C 
ENDROOT
BRANCH   2   9
ATOM      8 CL   UNL     1      33.413 -23.801 -16.021  0.00  0.00    -0.083 Cl
ATOM      9  C   UNL     1      36.046 -23.116 -15.846  0.00  0.00    -0.023 C 
ATOM     10  C   UNL     1      34.862 -23.047 -16.580  0.00  0.00    +0.052 C 
ATOM     11  C   UNL     1      37.200 -22.496 -16.324  0.00  0.00    -0.005 C 
ATOM     12  C   UNL     1      34.833 -22.357 -17.792  0.00  0.00    +0.011 C 
ATOM     13  C   UNL     1      37.171 -21.807 -17.536  0.00  0.00    -0.000 C 
ATOM     14  C   UNL     1      35.987 -21.737 -18.270  0.00  0.00    +0.001 C 
ENDBRANCH   2   9
BRANCH   2  15
ATOM     15  N   UNL     1      35.292 -23.167 -13.509  0.00  0.00    +0.391 N 
ATOM     16  C   UNL     1      34.661 -24.121 -12.610  0.00  0.00    -0.104 C 
ATOM     17  H   UNL     1      34.569 -22.630 -13.988  0.00  0.00    -0.083 HD
ATOM     18  H   UNL     1      35.889 -22.548 -12.962  0.00  0.00    -0.083 HD
ENDBRANCH   2  15
TORSDOF 2
ENDMDL
MODEL 2
REMARK VINA RESULT:      -6.7      1.688      2.570
REMARK  Name = 182137
REMARK  2 active torsions:
REMARK  status: ('A' for Active; 'I' for Inactive)
REMARK    1  A    between atoms: C_2  and  C_9
REMARK    2  A    between atoms: C_2  and  N_15
REMARK                            x       y       z     vdW  Elec       q    Type
REMARK                         _______ _______ _______ _____ _____    ______ ____
ROOT
ATOM      1  O   UNL     1      34.568 -24.564 -12.540  0.00  0.00    -0.298 OA
ATOM      2  C   UNL     1      36.459 -24.807 -14.068  0.00  0.00    +0.028 C 
ATOM      3  C   UNL     1      37.815 -25.363 -13.560  0.00  0.00    -0.009 C 
ATOM      4  C   UNL     1      38.631 -24.332 -12.773  0.00  0.00    -0.001 C 
ATOM      5  C   UNL     1      37.843 -23.826 -11.568  0.00  0.00    +0.008 C 
ATOM      6  C   UNL     1      35.729 -24.267 -12.823  0.00  0.00    +0.136 C 
ATOM      7  C   UNL     1      36.491 -23.263 -11.977  0.00  0.00    +0.063 C 
ENDROOT
BRANCH   2   9
ATOM      8 CL   UNL     1      33.824 -23.915 -15.440  0.00  0.00    -0.083 Cl
ATOM      9  C   UNL     1      36.531 -23.748 -15.175  0.00  0.00    -0.023 C 
ATOM     10  C   UNL     1      35.388 -23.300 -15.835  0.00  0.00    +0.052 C 
ATOM     11  C   UNL     1      37.781 -23.230 -15.517  0.00  0.00    -0.005 C 
ATOM     12  C   UNL     1      35.493 -22.335 -16.837  0.00  0.00    +0.011 C 
ATOM     13  C   UNL     1      37.886 -22.266 -16.518  0.00  0.00    -0.000 C 
ATOM     14  C   UNL     1      36.742 -21.818 -17.178  0.00  0.00    +0.001 C 
ENDBRANCH   2   9
BRANCH   2  15
ATOM     15  N   UNL     1      35.691 -25.969 -14.550  0.00  0.00    +0.391 N 
ATOM     16  C   UNL     1      36.549 -26.878 -15.296  0.00  0.00    -0.104 C 
ATOM     17  H   UNL     1      34.938 -25.645 -15.158  0.00  0.00    -0.083 HD
ATOM     18  H   UNL     1      35.308 -26.466 -13.746  0.00  0.00    -0.083 HD
ENDBRANCH   2  15
TORSDOF 2
ENDMDL
MODEL 3
REMARK VINA RESULT:      -6.5      2.208      3.565
REMARK  Name = 182137
REMARK  2 active torsions:
REMARK  status: ('A' for Active; 'I' for Inactive)
REMARK    1  A    between atoms: C_2  and  C_9
REMARK    2  A    between atoms: C_2  and  N_15
REMARK                            x       y       z     vdW  Elec       q    Type
REMARK                         _______ _______ _______ _____ _____    ______ ____
ROOT
ATOM      1  O   UNL     1      36.850 -26.824 -13.048  0.00  0.00    -0.298 OA
ATOM      2  C   UNL     1      37.199 -24.641 -14.087  0.00  0.00    +0.028 C 
ATOM      3  C   UNL     1      38.077 -23.568 -13.391  0.00  0.00    -0.009 C 
ATOM      4  C   UNL     1      37.361 -22.862 -12.234  0.00  0.00    -0.001 C 
ATOM      5  C   UNL     1      36.915 -23.871 -11.180  0.00  0.00    +0.008 C 
ATOM      6  C   UNL     1      36.738 -25.600 -12.973  0.00  0.00    +0.136 C 
ATOM      7  C   UNL     1      36.047 -24.965 -11.780  0.00  0.00    +0.063 C 
ENDROOT
BRANCH   2   9
ATOM      8 CL   UNL     1      37.728 -22.527 -16.294  0.00  0.00    -0.083 Cl
ATOM      9  C   UNL     1      36.009 -24.119 -14.902  0.00  0.00    -0.023 C 
ATOM     10  C   UNL     1      36.172 -23.168 -15.909  0.00  0.00    +0.052 C 
ATOM     11  C   UNL     1      34.739 -24.618 -14.614  0.00  0.00    -0.005 C 
ATOM     12  C   UNL     1      35.065 -22.717 -16.628  0.00  0.00    +0.011 C 
ATOM     13  C   UNL     1      33.633 -24.167 -15.332  0.00  0.00    -0.000 C 
ATOM     14  C   UNL     1      33.796 -23.216 -16.340  0.00  0.00    +0.001 C 
ENDBRANCH   2   9
BRANCH   2  15
ATOM     15  N   UNL     1      38.101 -25.403 -14.969  0.00  0.00    +0.391 N 
ATOM     16  C   UNL     1      39.487 -25.232 -14.559  0.00  0.00    -0.104 C 
ATOM     17  H   UNL     1      37.992 -25.071 -15.928  0.00  0.00    -0.083 HD
ATOM     18  H   UNL     1      37.862 -26.393 -14.907  0.00  0.00    -0.083 HD
ENDBRANCH   2  15
TORSDOF 2
ENDMDL
MODEL 4
REMARK VINA RESULT:      -6.5     17.531     19.495
REMARK  Name = 182137
REMARK  2 active torsions:
REMARK  status: ('A' for Active; 'I' for Inactive)
REMARK    1  A    between atoms: C_2  and  C_9
REMARK    2  A    between atoms: C_2  and  N_15
REMARK                            x       y       z     vdW  Elec       q    Type
REMARK                         _______ _______ _______ _____ _____    ______ ____
ROOT
ATOM      1  O   UNL     1      33.448  -7.296 -21.015  0.00  0.00    -0.298 OA
ATOM      2  C   UNL     1      32.092  -6.514 -22.891  0.00  0.00    +0.028 C 
ATOM      3  C   UNL     1      30.669  -7.086 -23.126  0.00  0.00    -0.009 C 
ATOM      4  C   UNL     1      30.678  -8.480 -23.762  0.00  0.00    -0.001 C 
ATOM      5  C   UNL     1      31.449  -9.466 -22.889  0.00  0.00    +0.008 C 
ATOM      6  C   UNL     1      32.838  -7.568 -22.051  0.00  0.00    +0.136 C 
ATOM      7  C   UNL     1      32.862  -8.980 -22.605  0.00  0.00    +0.063 C 
ENDROOT
BRANCH   2   9
ATOM      8 CL   UNL     1      30.839  -4.498 -24.888  0.00  0.00    -0.083 Cl
ATOM      9  C   UNL     1      32.887  -6.137 -24.147  0.00  0.00    -0.023 C 
ATOM     10  C   UNL     1      32.386  -5.238 -25.088  0.00  0.00    +0.052 C 
ATOM     11  C   UNL     1      34.141  -6.717 -24.336  0.00  0.00    -0.005 C 
ATOM     12  C   UNL     1      33.139  -4.919 -26.218  0.00  0.00    +0.011 C 
ATOM     13  C   UNL     1      34.893  -6.399 -25.466  0.00  0.00    -0.000 C 
ATOM     14  C   UNL     1      34.392  -5.499 -26.407  0.00  0.00    +0.001 C 
ENDBRANCH   2   9
BRANCH   2  15
ATOM     15  N   UNL     1      31.922  -5.322 -22.041  0.00  0.00    +0.391 N 
ATOM     16  C   UNL     1      30.578  -5.275 -21.484  0.00  0.00    -0.104 C 
ATOM     17  H   UNL     1      32.082  -4.485 -22.601  0.00  0.00    -0.083 HD
ATOM     18  H   UNL     1      32.592  -5.368 -21.273  0.00  0.00    -0.083 HD
ENDBRANCH   2  15
TORSDOF 2
ENDMDL
MODEL 5
REMARK VINA RESULT:      -6.3     15.331     17.611
REMARK  Name = 182137
REMARK  2 active torsions:
REMARK  status: ('A' for Active; 'I' for Inactive)
REMARK    1  A    between atoms: C_2  and  C_9
REMARK    2  A    between atoms: C_2  and  N_15
REMARK                            x       y       z     vdW  Elec       q    Type
REMARK                         _______ _______ _______ _____ _____    ______ ____
ROOT
ATOM      1  O   UNL     1      30.950  -8.275 -24.621  0.00  0.00    -0.298 OA
ATOM      2  C   UNL     1      32.020  -7.837 -22.468  0.00  0.00    +0.028 C 
ATOM      3  C   UNL     1      33.334  -7.016 -22.395  0.00  0.00    -0.009 C 
ATOM      4  C   UNL     1      34.571  -7.822 -22.804  0.00  0.00    -0.001 C 
ATOM      5  C   UNL     1      34.422  -8.356 -24.225  0.00  0.00    +0.008 C 
ATOM      6  C   UNL     1      31.946  -8.390 -23.904  0.00  0.00    +0.136 C 
ATOM      7  C   UNL     1      33.152  -9.175 -24.388  0.00  0.00    +0.063 C 
ENDROOT
BRANCH   2   9
ATOM      8 CL   UNL     1      32.696  -7.216 -19.506  0.00  0.00    -0.083 Cl
ATOM      9  C   UNL     1      31.859  -8.955 -21.431  0.00  0.00    -0.023 C 
ATOM     10  C   UNL     1      32.145  -8.748 -20.082  0.00  0.00    +0.052 C 
ATOM     11  C   UNL     1      31.415 -10.204 -21.866  0.00  0.00    -0.005 C 
ATOM     12  C   UNL     1      31.988  -9.790 -19.168  0.00  0.00    +0.011 C 
ATOM     13  C   UNL     1      31.259 -11.245 -20.952  0.00  0.00    -0.000 C 
ATOM     14  C   UNL     1      31.544 -11.038 -19.603  0.00  0.00    +0.001 C 
ENDBRANCH   2   9
BRANCH   2  15
ATOM     15  N   UNL     1      30.919  -6.868 -22.320  0.00  0.00    +0.391 N 
ATOM     16  C   UNL     1      31.407  -5.506 -22.484  0.00  0.00    -0.104 C 
ATOM     17  H   UNL     1      30.508  -6.967 -21.392  0.00  0.00    -0.083 HD
ATOM     18  H   UNL     1      30.220  -7.053 -23.039  0.00  0.00    -0.083 HD
ENDBRANCH   2  15
TORSDOF 2
ENDMDL
MODEL 6
REMARK VINA RESULT:      -6.3     14.760     17.060
REMARK  Name = 182137
REMARK  2 active torsions:
REMARK  status: ('A' for Active; 'I' for Inactive)
REMARK    1  A    between atoms: C_2  and  C_9
REMARK    2  A    between atoms: C_2  and  N_15
REMARK                            x       y       z     vdW  Elec       q    Type
REMARK                         _______ _______ _______ _____ _____    ______ ____
ROOT
ATOM      1  O   UNL     1      34.780  -7.703 -22.700  0.00  0.00    -0.298 OA
ATOM      2  C   UNL     1      32.826  -9.161 -22.865  0.00  0.00    +0.028 C 
ATOM      3  C   UNL     1      31.784  -8.956 -23.996  0.00  0.00    -0.009 C 
ATOM      4  C   UNL     1      30.838  -7.779 -23.737  0.00  0.00    -0.001 C 
ATOM      5  C   UNL     1      31.624  -6.481 -23.572  0.00  0.00    +0.008 C 
ATOM      6  C   UNL     1      33.553  -7.812 -22.709  0.00  0.00    +0.136 C 
ATOM      7  C   UNL     1      32.675  -6.595 -22.480  0.00  0.00    +0.063 C 
ENDROOT
BRANCH   2   9
ATOM      8 CL   UNL     1      31.751 -12.065 -22.688  0.00  0.00    -0.083 Cl
ATOM      9  C   UNL     1      32.280  -9.659 -21.522  0.00  0.00    -0.023 C 
ATOM     10  C   UNL     1      31.780 -10.951 -21.369  0.00  0.00    +0.052 C 
ATOM     11  C   UNL     1      32.290  -8.783 -20.436  0.00  0.00    -0.005 C 
ATOM     12  C   UNL     1      31.291 -11.368 -20.130  0.00  0.00    +0.011 C 
ATOM     13  C   UNL     1      31.801  -9.199 -19.199  0.00  0.00    -0.000 C 
ATOM     14  C   UNL     1      31.302 -10.493 -19.046  0.00  0.00    +0.001 C 
ENDBRANCH   2   9
BRANCH   2  15
ATOM     15  N   UNL     1      33.812 -10.127 -23.383  0.00  0.00    +0.391 N 
ATOM     16  C   UNL     1      33.700 -10.252 -24.828  0.00  0.00    -0.104 C 
ATOM     17  H   UNL     1      33.646 -11.037 -22.954  0.00  0.00    -0.083 HD
ATOM     18  H   UNL     1      34.749  -9.793 -23.156  0.00  0.00    -0.083 HD
ENDBRANCH   2  15
TORSDOF 2
ENDMDL
MODEL 7
REMARK VINA RESULT:      -6.2     15.148     17.341
REMARK  Name = 182137
REMARK  2 active torsions:
REMARK  status: ('A' for Active; 'I' for Inactive)
REMARK    1  A    between atoms: C_2  and  C_9
REMARK    2  A    between atoms: C_2  and  N_15
REMARK                            x       y       z     vdW  Elec       q    Type
REMARK                         _______ _______ _______ _____ _____    ______ ____
ROOT
ATOM      1  O   UNL     1      30.554  -7.759 -22.867  0.00  0.00    -0.298 OA
ATOM      2  C   UNL     1      32.863  -8.524 -22.629  0.00  0.00    +0.028 C 
ATOM      3  C   UNL     1      34.032  -7.504 -22.609  0.00  0.00    -0.009 C 
ATOM      4  C   UNL     1      34.390  -6.971 -24.000  0.00  0.00    -0.001 C 
ATOM      5  C   UNL     1      33.183  -6.299 -24.648  0.00  0.00    +0.008 C 
ATOM      6  C   UNL     1      31.692  -7.812 -23.335  0.00  0.00    +0.136 C 
ATOM      7  C   UNL     1      31.984  -7.232 -24.707  0.00  0.00    +0.063 C 
ENDROOT
BRANCH   2   9
ATOM      8 CL   UNL     1      31.174 -10.976 -21.761  0.00  0.00    -0.083 Cl
ATOM      9  C   UNL     1      33.160  -9.883 -23.274  0.00  0.00    -0.023 C 
ATOM     10  C   UNL     1      32.441 -11.028 -22.932  0.00  0.00    +0.052 C 
ATOM     11  C   UNL     1      34.178  -9.957 -24.225  0.00  0.00    -0.005 C 
ATOM     12  C   UNL     1      32.740 -12.247 -23.540  0.00  0.00    +0.011 C 
ATOM     13  C   UNL     1      34.477 -11.176 -24.832  0.00  0.00    -0.000 C 
ATOM     14  C   UNL     1      33.758 -12.321 -24.490  0.00  0.00    +0.001 C 
ENDBRANCH   2   9
BRANCH   2  15
ATOM     15  N   UNL     1      32.464  -8.723 -21.224  0.00  0.00    +0.391 N 
ATOM     16  C   UNL     1      32.879  -7.593 -20.407  0.00  0.00    -0.104 C 
ATOM     17  H   UNL     1      32.904  -9.572 -20.869  0.00  0.00    -0.083 HD
ATOM     18  H   UNL     1      31.449  -8.804 -21.179  0.00  0.00    -0.083 HD
ENDBRANCH   2  15
TORSDOF 2
ENDMDL
MODEL 8
REMARK VINA RESULT:      -6.1     15.175     17.718
REMARK  Name = 182137
REMARK  2 active torsions:
REMARK  status: ('A' for Active; 'I' for Inactive)
REMARK    1  A    between atoms: C_2  and  C_9
REMARK    2  A    between atoms: C_2  and  N_15
REMARK                            x       y       z     vdW  Elec       q    Type
REMARK                         _______ _______ _______ _____ _____    ______ ____
ROOT
ATOM      1  O   UNL     1      33.085  -6.095 -20.268  0.00  0.00    -0.298 OA
ATOM      2  C   UNL     1      32.773  -7.749 -22.040  0.00  0.00    +0.028 C 
ATOM      3  C   UNL     1      32.376  -7.303 -23.472  0.00  0.00    -0.009 C 
ATOM      4  C   UNL     1      30.893  -6.940 -23.600  0.00  0.00    -0.001 C 
ATOM      5  C   UNL     1      30.527  -5.818 -22.633  0.00  0.00    +0.008 C 
ATOM      6  C   UNL     1      32.338  -6.605 -21.104  0.00  0.00    +0.136 C 
ATOM      7  C   UNL     1      30.886  -6.172 -21.199  0.00  0.00    +0.063 C 
ENDROOT
BRANCH   2   9
ATOM      8 CL   UNL     1      32.728 -10.113 -24.047  0.00  0.00    -0.083 Cl
ATOM      9  C   UNL     1      32.214  -9.097 -21.570  0.00  0.00    -0.023 C 
ATOM     10  C   UNL     1      32.163 -10.203 -22.418  0.00  0.00    +0.052 C 
ATOM     11  C   UNL     1      31.751  -9.202 -20.259  0.00  0.00    -0.005 C 
ATOM     12  C   UNL     1      31.647 -11.414 -21.954  0.00  0.00    +0.011 C 
ATOM     13  C   UNL     1      31.235 -10.412 -19.796  0.00  0.00    -0.000 C 
ATOM     14  C   UNL     1      31.184 -11.518 -20.644  0.00  0.00    +0.001 C 
ENDBRANCH   2   9
BRANCH   2  15
ATOM     15  N   UNL     1      34.246  -7.792 -22.015  0.00  0.00    +0.391 N 
ATOM     16  C   UNL     1      34.792  -7.502 -23.332  0.00  0.00    -0.104 C 
ATOM     17  H   UNL     1      34.550  -8.721 -21.724  0.00  0.00    -0.083 HD
ATOM     18  H   UNL     1      34.584  -7.087 -21.359  0.00  0.00    -0.083 HD
ENDBRANCH   2  15
TORSDOF 2
ENDMDL
MODEL 9
REMARK VINA RESULT:      -6.1     15.414     16.675
REMARK  Name = 182137
REMARK  2 active torsions:
REMARK  status: ('A' for Active; 'I' for Inactive)
REMARK    1  A    between atoms: C_2  and  C_9
REMARK    2  A    between atoms: C_2  and  N_15
REMARK                            x       y       z     vdW  Elec       q    Type
REMARK                         _______ _______ _______ _____ _____    ______ ____
ROOT
ATOM      1  O   UNL     1      32.641  -7.843 -20.366  0.00  0.00    -0.298 OA
ATOM      2  C   UNL     1      31.866  -9.066 -22.334  0.00  0.00    +0.028 C 
ATOM      3  C   UNL     1      30.551  -9.887 -22.284  0.00  0.00    -0.009 C 
ATOM      4  C   UNL     1      30.705 -11.227 -21.558  0.00  0.00    -0.001 C 
ATOM      5  C   UNL     1      31.188 -11.013 -20.126  0.00  0.00    +0.008 C 
ATOM      6  C   UNL     1      32.332  -8.923 -20.873  0.00  0.00    +0.136 C 
ATOM      7  C   UNL     1      32.478 -10.210 -20.082  0.00  0.00    +0.063 C 
ENDROOT
BRANCH   2   9
ATOM      8 CL   UNL     1      34.215  -7.198 -23.119  0.00  0.00    -0.083 Cl
ATOM      9  C   UNL     1      32.983  -9.627 -23.223  0.00  0.00    -0.023 C 
ATOM     10  C   UNL     1      34.068  -8.845 -23.616  0.00  0.00    +0.052 C 
ATOM     11  C   UNL     1      32.894 -10.956 -23.640  0.00  0.00    -0.005 C 
ATOM     12  C   UNL     1      35.065  -9.392 -24.425  0.00  0.00    +0.011 C 
ATOM     13  C   UNL     1      33.889 -11.501 -24.450  0.00  0.00    -0.000 C 
ATOM     14  C   UNL     1      34.975 -10.719 -24.841  0.00  0.00    +0.001 C 
ENDBRANCH   2   9
BRANCH   2  15
ATOM     15  N   UNL     1      31.494  -7.719 -22.805  0.00  0.00    +0.391 N 
ATOM     16  C   UNL     1      30.697  -7.801 -24.019  0.00  0.00    -0.104 C 
ATOM     17  H   UNL     1      32.342  -7.185 -22.996  0.00  0.00    -0.083 HD
ATOM     18  H   UNL     1      30.941  -7.260 -22.081  0.00  0.00    -0.083 HD
ENDBRANCH   2  15
TORSDOF 2
ENDMDL
