MODEL 1
REMARK VINA RESULT:     -10.6      0.000      0.000
REMARK  Name = 1415427
REMARK  3 active torsions:
REMARK  status: ('A' for Active; 'I' for Inactive)
REMARK    1  A    between atoms: C_3  and  C_16
REMARK    2  A    between atoms: C_8  and  C_9
REMARK    3  A    between atoms: C_16  and  C_17
REMARK                            x       y       z     vdW  Elec       q    Type
REMARK                         _______ _______ _______ _____ _____    ______ ____
ROOT
ATOM      1  O   UNL     1      33.662 -14.883 -25.741  0.00  0.00    -0.270 OA
ATOM      2  N   UNL     1      34.403 -15.797 -23.721  0.00  0.00    -0.276 N 
ATOM      3  C   UNL     1      34.487 -18.212 -22.124  0.00  0.00    +0.008 C 
ATOM      4  C   UNL     1      34.264 -18.250 -23.645  0.00  0.00    +0.022 C 
ATOM      5  C   UNL     1      33.999 -16.874 -21.545  0.00  0.00    +0.022 C 
ATOM      6  C   UNL     1      34.887 -17.035 -24.330  0.00  0.00    +0.094 C 
ATOM      7  C   UNL     1      34.636 -15.693 -22.275  0.00  0.00    +0.094 C 
ATOM      8  C   UNL     1      33.819 -14.814 -24.524  0.00  0.00    +0.249 C 
ENDROOT
BRANCH   8   9
ATOM      9  C   UNL     1      33.333 -13.589 -23.876  0.00  0.00    +0.054 C 
ATOM     10  C   UNL     1      33.806 -12.348 -24.295  0.00  0.00    +0.004 C 
ATOM     11  C   UNL     1      32.398 -13.674 -22.846  0.00  0.00    +0.004 C 
ATOM     12  C   UNL     1      33.343 -11.185 -23.680  0.00  0.00    -0.004 C 
ATOM     13  C   UNL     1      31.935 -12.511 -22.232  0.00  0.00    -0.004 C 
ATOM     14  C   UNL     1      32.406 -11.266 -22.649  0.00  0.00    -0.022 C 
ATOM     15  C   UNL     1      31.912 -10.022 -21.992  0.00  0.00    +0.031 C 
ENDBRANCH   8   9
BRANCH   3  16
ATOM     16  C   UNL     1      33.788 -19.385 -21.444  0.00  0.00    +0.026 C 
BRANCH  16  17
ATOM     17  C   UNL     1      34.735 -20.164 -20.572  0.00  0.00    -0.022 C 
ATOM     18  C   UNL     1      36.091 -19.864 -20.594  0.00  0.00    -0.004 C 
ATOM     19  C   UNL     1      34.242 -21.174 -19.756  0.00  0.00    -0.004 C 
ATOM     20  C   UNL     1      36.969 -20.586 -19.787  0.00  0.00    -0.000 C 
ATOM     21  C   UNL     1      35.119 -21.896 -18.948  0.00  0.00    -0.000 C 
ATOM     22  C   UNL     1      36.483 -21.603 -18.964  0.00  0.00    -0.000 C 
ENDBRANCH  16  17
ENDBRANCH   3  16
TORSDOF 3
ENDMDL
MODEL 2
REMARK VINA RESULT:     -10.5      3.137      5.000
REMARK  Name = 1415427
REMARK  3 active torsions:
REMARK  status: ('A' for Active; 'I' for Inactive)
REMARK    1  A    between atoms: C_3  and  C_16
REMARK    2  A    between atoms: C_8  and  C_9
REMARK    3  A    between atoms: C_16  and  C_17
REMARK                            x       y       z     vdW  Elec       q    Type
REMARK                         _______ _______ _______ _____ _____    ______ ____
ROOT
ATOM      1  O   UNL     1      37.515 -18.632 -22.464  0.00  0.00    -0.270 OA
ATOM      2  N   UNL     1      35.675 -19.059 -21.087  0.00  0.00    -0.276 N 
ATOM      3  C   UNL     1      34.346 -21.087 -19.503  0.00  0.00    +0.008 C 
ATOM      4  C   UNL     1      35.836 -21.188 -19.869  0.00  0.00    +0.022 C 
ATOM      5  C   UNL     1      33.592 -20.257 -20.554  0.00  0.00    +0.022 C 
ATOM      6  C   UNL     1      36.448 -19.808 -20.097  0.00  0.00    +0.094 C 
ATOM      7  C   UNL     1      34.254 -18.896 -20.758  0.00  0.00    +0.094 C 
ATOM      8  C   UNL     1      36.317 -18.530 -22.209  0.00  0.00    +0.249 C 
ENDROOT
BRANCH   8   9
ATOM      9  C   UNL     1      35.507 -17.795 -23.189  0.00  0.00    +0.054 C 
ATOM     10  C   UNL     1      35.250 -16.440 -23.000  0.00  0.00    +0.004 C 
ATOM     11  C   UNL     1      34.999 -18.458 -24.305  0.00  0.00    +0.004 C 
ATOM     12  C   UNL     1      34.481 -15.742 -23.932  0.00  0.00    -0.004 C 
ATOM     13  C   UNL     1      34.231 -17.760 -25.236  0.00  0.00    -0.004 C 
ATOM     14  C   UNL     1      33.972 -16.402 -25.050  0.00  0.00    -0.022 C 
ATOM     15  C   UNL     1      33.150 -15.656 -26.045  0.00  0.00    +0.031 C 
ENDBRANCH   8   9
BRANCH   3  16
ATOM     16  C   UNL     1      33.727 -22.474 -19.361  0.00  0.00    +0.026 C 
BRANCH  16  17
ATOM     17  C   UNL     1      33.454 -22.815 -17.921  0.00  0.00    -0.022 C 
ATOM     18  C   UNL     1      34.516 -23.070 -17.064  0.00  0.00    -0.004 C 
ATOM     19  C   UNL     1      32.143 -22.869 -17.465  0.00  0.00    -0.004 C 
ATOM     20  C   UNL     1      34.264 -23.386 -15.729  0.00  0.00    -0.000 C 
ATOM     21  C   UNL     1      31.890 -23.184 -16.131  0.00  0.00    -0.000 C 
ATOM     22  C   UNL     1      32.951 -23.444 -15.263  0.00  0.00    -0.000 C 
ENDBRANCH  16  17
ENDBRANCH   3  16
TORSDOF 3
ENDMDL
MODEL 3
REMARK VINA RESULT:     -10.2      4.346      9.307
REMARK  Name = 1415427
REMARK  3 active torsions:
REMARK  status: ('A' for Active; 'I' for Inactive)
REMARK    1  A    between atoms: C_3  and  C_16
REMARK    2  A    between atoms: C_8  and  C_9
REMARK    3  A    between atoms: C_16  and  C_17
REMARK                            x       y       z     vdW  Elec       q    Type
REMARK                         _______ _______ _______ _____ _____    ______ ____
ROOT
ATOM      1  O   UNL     1      36.276 -22.842 -17.178  0.00  0.00    -0.270 OA
ATOM      2  N   UNL     1      34.999 -21.997 -18.944  0.00  0.00    -0.276 N 
ATOM      3  C   UNL     1      34.770 -19.830 -20.852  0.00  0.00    +0.008 C 
ATOM      4  C   UNL     1      36.103 -20.172 -20.167  0.00  0.00    +0.022 C 
ATOM      5  C   UNL     1      33.588 -20.259 -19.968  0.00  0.00    +0.022 C 
ATOM      6  C   UNL     1      36.159 -21.643 -19.761  0.00  0.00    +0.094 C 
ATOM      7  C   UNL     1      33.701 -21.731 -19.576  0.00  0.00    +0.094 C 
ATOM      8  C   UNL     1      35.190 -22.581 -17.690  0.00  0.00    +0.249 C 
ENDROOT
BRANCH   8   9
ATOM      9  C   UNL     1      34.002 -22.911 -16.891  0.00  0.00    +0.054 C 
ATOM     10  C   UNL     1      32.742 -22.898 -17.484  0.00  0.00    +0.004 C 
ATOM     11  C   UNL     1      34.142 -23.236 -15.544  0.00  0.00    +0.004 C 
ATOM     12  C   UNL     1      31.614 -23.212 -16.724  0.00  0.00    -0.004 C 
ATOM     13  C   UNL     1      33.015 -23.551 -14.785  0.00  0.00    -0.004 C 
ATOM     14  C   UNL     1      31.751 -23.539 -15.375  0.00  0.00    -0.022 C 
ATOM     15  C   UNL     1      30.546 -23.874 -14.563  0.00  0.00    +0.031 C 
ENDBRANCH   8   9
BRANCH   3  16
ATOM     16  C   UNL     1      34.693 -18.341 -21.176  0.00  0.00    +0.026 C 
BRANCH  16  17
ATOM     17  C   UNL     1      34.666 -18.097 -22.660  0.00  0.00    -0.022 C 
ATOM     18  C   UNL     1      34.700 -16.794 -23.141  0.00  0.00    -0.004 C 
ATOM     19  C   UNL     1      34.609 -19.176 -23.531  0.00  0.00    -0.004 C 
ATOM     20  C   UNL     1      34.675 -16.567 -24.517  0.00  0.00    -0.000 C 
ATOM     21  C   UNL     1      34.585 -18.951 -24.907  0.00  0.00    -0.000 C 
ATOM     22  C   UNL     1      34.617 -17.646 -25.400  0.00  0.00    -0.000 C 
ENDBRANCH  16  17
ENDBRANCH   3  16
TORSDOF 3
ENDMDL
MODEL 4
REMARK VINA RESULT:     -10.2      4.340      9.334
REMARK  Name = 1415427
REMARK  3 active torsions:
REMARK  status: ('A' for Active; 'I' for Inactive)
REMARK    1  A    between atoms: C_3  and  C_16
REMARK    2  A    between atoms: C_8  and  C_9
REMARK    3  A    between atoms: C_16  and  C_17
REMARK                            x       y       z     vdW  Elec       q    Type
REMARK                         _______ _______ _______ _____ _____    ______ ____
ROOT
ATOM      1  O   UNL     1      36.464 -22.750 -17.182  0.00  0.00    -0.270 OA
ATOM      2  N   UNL     1      35.170 -21.941 -18.953  0.00  0.00    -0.276 N 
ATOM      3  C   UNL     1      34.891 -19.785 -20.866  0.00  0.00    +0.008 C 
ATOM      4  C   UNL     1      36.230 -20.091 -20.176  0.00  0.00    +0.022 C 
ATOM      5  C   UNL     1      33.718 -20.243 -19.985  0.00  0.00    +0.022 C 
ATOM      6  C   UNL     1      36.323 -21.560 -19.767  0.00  0.00    +0.094 C 
ATOM      7  C   UNL     1      33.867 -21.710 -19.589  0.00  0.00    +0.094 C 
ATOM      8  C   UNL     1      35.372 -22.518 -17.697  0.00  0.00    +0.249 C 
ENDROOT
BRANCH   8   9
ATOM      9  C   UNL     1      34.191 -22.877 -16.901  0.00  0.00    +0.054 C 
ATOM     10  C   UNL     1      32.934 -22.905 -17.499  0.00  0.00    +0.004 C 
ATOM     11  C   UNL     1      34.334 -23.188 -15.551  0.00  0.00    +0.004 C 
ATOM     12  C   UNL     1      31.813 -23.247 -16.742  0.00  0.00    -0.004 C 
ATOM     13  C   UNL     1      33.214 -23.530 -14.794  0.00  0.00    -0.004 C 
ATOM     14  C   UNL     1      31.953 -23.560 -15.390  0.00  0.00    -0.022 C 
ATOM     15  C   UNL     1      30.754 -23.924 -14.582  0.00  0.00    +0.031 C 
ENDBRANCH   8   9
BRANCH   3  16
ATOM     16  C   UNL     1      34.776 -18.298 -21.192  0.00  0.00    +0.026 C 
BRANCH  16  17
ATOM     17  C   UNL     1      34.711 -18.061 -22.676  0.00  0.00    -0.022 C 
ATOM     18  C   UNL     1      34.596 -19.143 -23.539  0.00  0.00    -0.004 C 
ATOM     19  C   UNL     1      34.765 -16.762 -23.166  0.00  0.00    -0.004 C 
ATOM     20  C   UNL     1      34.536 -18.923 -24.915  0.00  0.00    -0.000 C 
ATOM     21  C   UNL     1      34.704 -16.541 -24.541  0.00  0.00    -0.000 C 
ATOM     22  C   UNL     1      34.591 -17.622 -25.416  0.00  0.00    -0.000 C 
ENDBRANCH  16  17
ENDBRANCH   3  16
TORSDOF 3
ENDMDL
MODEL 5
REMARK VINA RESULT:     -10.1      0.887      1.731
REMARK  Name = 1415427
REMARK  3 active torsions:
REMARK  status: ('A' for Active; 'I' for Inactive)
REMARK    1  A    between atoms: C_3  and  C_16
REMARK    2  A    between atoms: C_8  and  C_9
REMARK    3  A    between atoms: C_16  and  C_17
REMARK                            x       y       z     vdW  Elec       q    Type
REMARK                         _______ _______ _______ _____ _____    ______ ____
ROOT
ATOM      1  O   UNL     1      33.742 -14.615 -24.857  0.00  0.00    -0.270 OA
ATOM      2  N   UNL     1      34.382 -15.845 -22.975  0.00  0.00    -0.276 N 
ATOM      3  C   UNL     1      34.592 -18.514 -21.872  0.00  0.00    +0.008 C 
ATOM      4  C   UNL     1      34.527 -18.264 -23.387  0.00  0.00    +0.022 C 
ATOM      5  C   UNL     1      33.895 -17.376 -21.111  0.00  0.00    +0.022 C 
ATOM      6  C   UNL     1      35.067 -16.881 -23.746  0.00  0.00    +0.094 C 
ATOM      7  C   UNL     1      34.457 -16.016 -21.518  0.00  0.00    +0.094 C 
ATOM      8  C   UNL     1      33.768 -14.780 -23.639  0.00  0.00    +0.249 C 
ENDROOT
BRANCH   8   9
ATOM      9  C   UNL     1      33.079 -13.765 -22.832  0.00  0.00    +0.054 C 
ATOM     10  C   UNL     1      32.536 -14.111 -21.597  0.00  0.00    +0.004 C 
ATOM     11  C   UNL     1      32.972 -12.459 -23.306  0.00  0.00    +0.004 C 
ATOM     12  C   UNL     1      31.882 -13.145 -20.832  0.00  0.00    -0.004 C 
ATOM     13  C   UNL     1      32.319 -11.494 -22.541  0.00  0.00    -0.004 C 
ATOM     14  C   UNL     1      31.774 -11.837 -21.303  0.00  0.00    -0.022 C 
ATOM     15  C   UNL     1      31.074 -10.805 -20.484  0.00  0.00    +0.031 C 
ENDBRANCH   8   9
BRANCH   3  16
ATOM     16  C   UNL     1      33.973 -19.863 -21.518  0.00  0.00    +0.026 C 
BRANCH  16  17
ATOM     17  C   UNL     1      34.752 -20.564 -20.438  0.00  0.00    -0.022 C 
ATOM     18  C   UNL     1      34.102 -21.454 -19.592  0.00  0.00    -0.004 C 
ATOM     19  C   UNL     1      36.111 -20.313 -20.299  0.00  0.00    -0.004 C 
ATOM     20  C   UNL     1      34.823 -22.104 -18.591  0.00  0.00    -0.000 C 
ATOM     21  C   UNL     1      36.833 -20.963 -19.299  0.00  0.00    -0.000 C 
ATOM     22  C   UNL     1      36.189 -21.857 -18.444  0.00  0.00    -0.000 C 
ENDBRANCH  16  17
ENDBRANCH   3  16
TORSDOF 3
ENDMDL
MODEL 6
REMARK VINA RESULT:     -10.0      1.766      8.396
REMARK  Name = 1415427
REMARK  3 active torsions:
REMARK  status: ('A' for Active; 'I' for Inactive)
REMARK    1  A    between atoms: C_3  and  C_16
REMARK    2  A    between atoms: C_8  and  C_9
REMARK    3  A    between atoms: C_16  and  C_17
REMARK                            x       y       z     vdW  Elec       q    Type
REMARK                         _______ _______ _______ _____ _____    ______ ____
ROOT
ATOM      1  O   UNL     1      33.833 -16.727 -26.235  0.00  0.00    -0.270 OA
ATOM      2  N   UNL     1      33.432 -14.876 -24.866  0.00  0.00    -0.276 N 
ATOM      3  C   UNL     1      33.626 -11.991 -24.698  0.00  0.00    +0.008 C 
ATOM      4  C   UNL     1      33.604 -12.727 -26.048  0.00  0.00    +0.022 C 
ATOM      5  C   UNL     1      34.188 -12.906 -23.599  0.00  0.00    +0.022 C 
ATOM      6  C   UNL     1      32.869 -14.062 -25.942  0.00  0.00    +0.094 C 
ATOM      7  C   UNL     1      33.432 -14.232 -23.546  0.00  0.00    +0.094 C 
ATOM      8  C   UNL     1      33.871 -16.173 -25.139  0.00  0.00    +0.249 C 
ENDROOT
BRANCH   8   9
ATOM      9  C   UNL     1      34.443 -16.957 -24.036  0.00  0.00    +0.054 C 
ATOM     10  C   UNL     1      34.862 -16.316 -22.873  0.00  0.00    +0.004 C 
ATOM     11  C   UNL     1      34.563 -18.340 -24.159  0.00  0.00    +0.004 C 
ATOM     12  C   UNL     1      35.405 -17.062 -21.827  0.00  0.00    -0.004 C 
ATOM     13  C   UNL     1      35.105 -19.085 -23.113  0.00  0.00    -0.004 C 
ATOM     14  C   UNL     1      35.525 -18.447 -21.946  0.00  0.00    -0.022 C 
ATOM     15  C   UNL     1      36.106 -19.243 -20.827  0.00  0.00    +0.031 C 
ENDBRANCH   8   9
BRANCH   3  16
ATOM     16  C   UNL     1      34.435 -10.701 -24.797  0.00  0.00    +0.026 C 
BRANCH  16  17
ATOM     17  C   UNL     1      33.879  -9.628 -23.901  0.00  0.00    -0.022 C 
ATOM     18  C   UNL     1      34.585  -8.444 -23.730  0.00  0.00    -0.004 C 
ATOM     19  C   UNL     1      32.667  -9.833 -23.257  0.00  0.00    -0.004 C 
ATOM     20  C   UNL     1      34.071  -7.449 -22.899  0.00  0.00    -0.000 C 
ATOM     21  C   UNL     1      32.151  -8.839 -22.426  0.00  0.00    -0.000 C 
ATOM     22  C   UNL     1      32.853  -7.647 -22.247  0.00  0.00    -0.000 C 
ENDBRANCH  16  17
ENDBRANCH   3  16
TORSDOF 3
ENDMDL
MODEL 7
REMARK VINA RESULT:      -9.8      3.578      6.402
REMARK  Name = 1415427
REMARK  3 active torsions:
REMARK  status: ('A' for Active; 'I' for Inactive)
REMARK    1  A    between atoms: C_3  and  C_16
REMARK    2  A    between atoms: C_8  and  C_9
REMARK    3  A    between atoms: C_16  and  C_17
REMARK                            x       y       z     vdW  Elec       q    Type
REMARK                         _______ _______ _______ _____ _____    ______ ____
ROOT
ATOM      1  O   UNL     1      32.549 -20.705 -20.542  0.00  0.00    -0.270 OA
ATOM      2  N   UNL     1      34.784 -21.154 -20.023  0.00  0.00    -0.276 N 
ATOM      3  C   UNL     1      36.600 -21.886 -17.889  0.00  0.00    +0.008 C 
ATOM      4  C   UNL     1      35.090 -22.168 -17.805  0.00  0.00    +0.022 C 
ATOM      5  C   UNL     1      36.869 -20.680 -18.803  0.00  0.00    +0.022 C 
ATOM      6  C   UNL     1      34.474 -22.317 -19.195  0.00  0.00    +0.094 C 
ATOM      7  C   UNL     1      36.217 -20.871 -20.171  0.00  0.00    +0.094 C 
ATOM      8  C   UNL     1      33.747 -20.443 -20.633  0.00  0.00    +0.249 C 
ENDROOT
BRANCH   8   9
ATOM      9  C   UNL     1      34.095 -19.272 -21.447  0.00  0.00    +0.054 C 
ATOM     10  C   UNL     1      34.556 -19.445 -22.750  0.00  0.00    +0.004 C 
ATOM     11  C   UNL     1      33.960 -17.992 -20.913  0.00  0.00    +0.004 C 
ATOM     12  C   UNL     1      34.885 -18.331 -23.523  0.00  0.00    -0.004 C 
ATOM     13  C   UNL     1      34.288 -16.879 -21.686  0.00  0.00    -0.004 C 
ATOM     14  C   UNL     1      34.750 -17.048 -22.991  0.00  0.00    -0.022 C 
ATOM     15  C   UNL     1      35.103 -15.858 -23.818  0.00  0.00    +0.031 C 
ENDBRANCH   8   9
BRANCH   3  16
ATOM     16  C   UNL     1      37.186 -21.655 -16.499  0.00  0.00    +0.026 C 
BRANCH  16  17
ATOM     17  C   UNL     1      36.993 -22.853 -15.610  0.00  0.00    -0.022 C 
ATOM     18  C   UNL     1      37.998 -23.808 -15.518  0.00  0.00    -0.004 C 
ATOM     19  C   UNL     1      35.813 -22.991 -14.891  0.00  0.00    -0.004 C 
ATOM     20  C   UNL     1      37.819 -24.919 -14.695  0.00  0.00    -0.000 C 
ATOM     21  C   UNL     1      35.633 -24.101 -14.067  0.00  0.00    -0.000 C 
ATOM     22  C   UNL     1      36.636 -25.066 -13.969  0.00  0.00    -0.000 C 
ENDBRANCH  16  17
ENDBRANCH   3  16
TORSDOF 3
ENDMDL
MODEL 8
REMARK VINA RESULT:      -9.8      4.672      7.140
REMARK  Name = 1415427
REMARK  3 active torsions:
REMARK  status: ('A' for Active; 'I' for Inactive)
REMARK    1  A    between atoms: C_3  and  C_16
REMARK    2  A    between atoms: C_8  and  C_9
REMARK    3  A    between atoms: C_16  and  C_17
REMARK                            x       y       z     vdW  Elec       q    Type
REMARK                         _______ _______ _______ _____ _____    ______ ____
ROOT
ATOM      1  O   UNL     1      32.650  -7.418 -19.952  0.00  0.00    -0.270 OA
ATOM      2  N   UNL     1      31.839  -9.343 -21.001  0.00  0.00    -0.276 N 
ATOM      3  C   UNL     1      31.661 -12.228 -20.808  0.00  0.00    +0.008 C 
ATOM      4  C   UNL     1      31.919 -11.344 -19.576  0.00  0.00    +0.022 C 
ATOM      5  C   UNL     1      32.166 -11.531 -22.081  0.00  0.00    +0.022 C 
ATOM      6  C   UNL     1      31.341  -9.943 -19.765  0.00  0.00    +0.094 C 
ATOM      7  C   UNL     1      31.574 -10.129 -22.213  0.00  0.00    +0.094 C 
ATOM      8  C   UNL     1      32.465  -8.095 -20.961  0.00  0.00    +0.249 C 
ENDROOT
BRANCH   8   9
ATOM      9  C   UNL     1      32.964  -7.529 -22.221  0.00  0.00    +0.054 C 
ATOM     10  C   UNL     1      32.162  -6.661 -22.958  0.00  0.00    +0.004 C 
ATOM     11  C   UNL     1      34.239  -7.862 -22.673  0.00  0.00    +0.004 C 
ATOM     12  C   UNL     1      32.637  -6.124 -24.154  0.00  0.00    -0.004 C 
ATOM     13  C   UNL     1      34.714  -7.324 -23.868  0.00  0.00    -0.004 C 
ATOM     14  C   UNL     1      33.914  -6.454 -24.609  0.00  0.00    -0.022 C 
ATOM     15  C   UNL     1      34.421  -5.880 -25.888  0.00  0.00    +0.031 C 
ENDBRANCH   8   9
BRANCH   3  16
ATOM     16  C   UNL     1      32.315 -13.596 -20.641  0.00  0.00    +0.026 C 
BRANCH  16  17
ATOM     17  C   UNL     1      32.925 -14.079 -21.928  0.00  0.00    -0.022 C 
ATOM     18  C   UNL     1      32.279 -13.822 -23.131  0.00  0.00    -0.004 C 
ATOM     19  C   UNL     1      34.125 -14.777 -21.900  0.00  0.00    -0.004 C 
ATOM     20  C   UNL     1      32.843 -14.271 -24.325  0.00  0.00    -0.000 C 
ATOM     21  C   UNL     1      34.690 -15.225 -23.093  0.00  0.00    -0.000 C 
ATOM     22  C   UNL     1      34.049 -14.973 -24.306  0.00  0.00    -0.000 C 
ENDBRANCH  16  17
ENDBRANCH   3  16
TORSDOF 3
ENDMDL
MODEL 9
REMARK VINA RESULT:      -9.7      3.046      4.983
REMARK  Name = 1415427
REMARK  3 active torsions:
REMARK  status: ('A' for Active; 'I' for Inactive)
REMARK    1  A    between atoms: C_3  and  C_16
REMARK    2  A    between atoms: C_8  and  C_9
REMARK    3  A    between atoms: C_16  and  C_17
REMARK                            x       y       z     vdW  Elec       q    Type
REMARK                         _______ _______ _______ _____ _____    ______ ____
ROOT
ATOM      1  O   UNL     1      31.422 -11.334 -19.358  0.00  0.00    -0.270 OA
ATOM      2  N   UNL     1      31.980 -12.485 -21.314  0.00  0.00    -0.276 N 
ATOM      3  C   UNL     1      33.615 -14.613 -22.404  0.00  0.00    +0.008 C 
ATOM      4  C   UNL     1      33.263 -14.543 -20.909  0.00  0.00    +0.022 C 
ATOM      5  C   UNL     1      33.596 -13.207 -23.024  0.00  0.00    +0.022 C 
ATOM      6  C   UNL     1      31.946 -13.803 -20.682  0.00  0.00    +0.094 C 
ATOM      7  C   UNL     1      32.268 -12.504 -22.754  0.00  0.00    +0.094 C 
ATOM      8  C   UNL     1      31.703 -11.347 -20.554  0.00  0.00    +0.249 C 
ENDROOT
BRANCH   8   9
ATOM      9  C   UNL     1      31.760 -10.038 -21.220  0.00  0.00    +0.054 C 
ATOM     10  C   UNL     1      31.233  -9.889 -22.500  0.00  0.00    +0.004 C 
ATOM     11  C   UNL     1      32.338  -8.953 -20.566  0.00  0.00    +0.004 C 
ATOM     12  C   UNL     1      31.286  -8.645 -23.131  0.00  0.00    -0.004 C 
ATOM     13  C   UNL     1      32.391  -7.710 -21.196  0.00  0.00    -0.004 C 
ATOM     14  C   UNL     1      31.865  -7.556 -22.479  0.00  0.00    -0.022 C 
ATOM     15  C   UNL     1      31.922  -6.228 -23.154  0.00  0.00    +0.031 C 
ENDBRANCH   8   9
BRANCH   3  16
ATOM     16  C   UNL     1      34.973 -15.279 -22.610  0.00  0.00    +0.026 C 
BRANCH  16  17
ATOM     17  C   UNL     1      34.832 -16.641 -23.234  0.00  0.00    -0.022 C 
ATOM     18  C   UNL     1      34.956 -17.774 -22.441  0.00  0.00    -0.004 C 
ATOM     19  C   UNL     1      34.581 -16.749 -24.595  0.00  0.00    -0.004 C 
ATOM     20  C   UNL     1      34.827 -19.037 -23.018  0.00  0.00    -0.000 C 
ATOM     21  C   UNL     1      34.451 -18.011 -25.174  0.00  0.00    -0.000 C 
ATOM     22  C   UNL     1      34.575 -19.155 -24.385  0.00  0.00    -0.000 C 
ENDBRANCH  16  17
ENDBRANCH   3  16
TORSDOF 3
ENDMDL
