MODEL 1
REMARK VINA RESULT:      -7.0      0.000      0.000
REMARK  Name = 5276520
REMARK  12 active torsions:
REMARK  status: ('A' for Active; 'I' for Inactive)
REMARK    1  A    between atoms: C_1  and  P_2
REMARK    2  A    between atoms: C_1  and  P_8
REMARK    3  A    between atoms: C_1  and  O_14
REMARK    4  A    between atoms: C_1  and  C_16
REMARK    5  A    between atoms: P_2  and  O_4
REMARK    6  A    between atoms: P_2  and  O_6
REMARK    7  A    between atoms: P_8  and  O_10
REMARK    8  A    between atoms: P_8  and  O_12
REMARK    9  A    between atoms: C_16  and  C_17
REMARK   10  A    between atoms: C_17  and  C_18
REMARK   11  A    between atoms: C_18  and  C_19
REMARK   12  A    between atoms: C_19  and  C_20
REMARK                            x       y       z     vdW  Elec       q    Type
REMARK                         _______ _______ _______ _____ _____    ______ ____
ROOT
ATOM      1  C   UNL     1      36.964 -24.560 -13.762  0.00  0.00    +0.275 C 
ENDROOT
BRANCH   1   2
ATOM      2  P   UNL     1      36.497 -24.956 -12.039  0.00  0.00    +0.372 P 
ATOM      3  O   UNL     1      37.151 -24.075 -11.015  0.00  0.00    -0.255 OA
BRANCH   2   4
ATOM      4  O   UNL     1      34.882 -24.923 -12.034  0.00  0.00    -0.322 OA
ATOM      5  H   UNL     1      34.566 -24.392 -12.781  0.00  0.00    +0.220 HD
ENDBRANCH   2   4
BRANCH   2   6
ATOM      6  O   UNL     1      36.847 -26.526 -11.890  0.00  0.00    -0.322 OA
ATOM      7  H   UNL     1      36.200 -27.050 -12.388  0.00  0.00    +0.220 HD
ENDBRANCH   2   6
ENDBRANCH   1   2
BRANCH   1   8
ATOM      8  P   UNL     1      38.394 -25.384 -14.561  0.00  0.00    +0.372 P 
ATOM      9  O   UNL     1      39.308 -26.114 -13.623  0.00  0.00    -0.255 OA
BRANCH   8  10
ATOM     10  O   UNL     1      39.084 -24.204 -15.421  0.00  0.00    -0.322 OA
ATOM     11  H   UNL     1      40.010 -24.433 -15.600  0.00  0.00    +0.220 HD
ENDBRANCH   8  10
BRANCH   8  12
ATOM     12  O   UNL     1      37.704 -26.302 -15.699  0.00  0.00    -0.322 OA
ATOM     13  H   UNL     1      37.422 -27.145 -15.309  0.00  0.00    +0.220 HD
ENDBRANCH   8  12
ENDBRANCH   1   8
BRANCH   1  14
ATOM     14  O   UNL     1      37.449 -23.214 -13.625  0.00  0.00    -0.367 OA
ATOM     15  H   UNL     1      37.553 -23.001 -12.684  0.00  0.00    +0.212 HD
ENDBRANCH   1  14
BRANCH   1  16
ATOM     16  C   UNL     1      35.767 -24.451 -14.728  0.00  0.00    +0.051 C 
BRANCH  16  17
ATOM     17  C   UNL     1      35.337 -23.024 -15.062  0.00  0.00    +0.004 C 
BRANCH  17  18
ATOM     18  C   UNL     1      35.415 -22.705 -16.560  0.00  0.00    +0.000 C 
BRANCH  18  19
ATOM     19  C   UNL     1      36.734 -22.093 -17.045  0.00  0.00    +0.000 C 
BRANCH  19  20
ATOM     20  C   UNL     1      36.641 -21.471 -18.439  0.00  0.00    +0.000 C 
ATOM     21  C   UNL     1      35.344 -21.856 -19.134  0.00  0.00    +0.000 C 
ENDBRANCH  19  20
ENDBRANCH  18  19
ENDBRANCH  17  18
ENDBRANCH  16  17
ENDBRANCH   1  16
TORSDOF 12
ENDMDL
MODEL 2
REMARK VINA RESULT:      -6.9      1.324      1.975
REMARK  Name = 5276520
REMARK  12 active torsions:
REMARK  status: ('A' for Active; 'I' for Inactive)
REMARK    1  A    between atoms: C_1  and  P_2
REMARK    2  A    between atoms: C_1  and  P_8
REMARK    3  A    between atoms: C_1  and  O_14
REMARK    4  A    between atoms: C_1  and  C_16
REMARK    5  A    between atoms: P_2  and  O_4
REMARK    6  A    between atoms: P_2  and  O_6
REMARK    7  A    between atoms: P_8  and  O_10
REMARK    8  A    between atoms: P_8  and  O_12
REMARK    9  A    between atoms: C_16  and  C_17
REMARK   10  A    between atoms: C_17  and  C_18
REMARK   11  A    between atoms: C_18  and  C_19
REMARK   12  A    between atoms: C_19  and  C_20
REMARK                            x       y       z     vdW  Elec       q    Type
REMARK                         _______ _______ _______ _____ _____    ______ ____
ROOT
ATOM      1  C   UNL     1      37.490 -24.416 -13.900  0.00  0.00    +0.275 C 
ENDROOT
BRANCH   1   2
ATOM      2  P   UNL     1      37.369 -23.695 -12.224  0.00  0.00    +0.372 P 
ATOM      3  O   UNL     1      38.023 -22.351 -12.092  0.00  0.00    -0.255 OA
BRANCH   2   4
ATOM      4  O   UNL     1      35.790 -23.721 -11.879  0.00  0.00    -0.322 OA
ATOM      5  H   UNL     1      35.452 -24.624 -11.980  0.00  0.00    +0.220 HD
ENDBRANCH   2   4
BRANCH   2   6
ATOM      6  O   UNL     1      37.987 -24.836 -11.262  0.00  0.00    -0.322 OA
ATOM      7  H   UNL     1      37.391 -24.984 -10.511  0.00  0.00    +0.220 HD
ENDBRANCH   2   6
ENDBRANCH   1   2
BRANCH   1   8
ATOM      8  P   UNL     1      37.249 -26.213 -14.169  0.00  0.00    +0.372 P 
ATOM      9  O   UNL     1      38.439 -26.934 -14.729  0.00  0.00    -0.255 OA
BRANCH   8  10
ATOM     10  O   UNL     1      35.909 -26.289 -15.068  0.00  0.00    -0.322 OA
ATOM     11  H   UNL     1      36.096 -26.774 -15.887  0.00  0.00    +0.220 HD
ENDBRANCH   8  10
BRANCH   8  12
ATOM     12  O   UNL     1      36.745 -26.739 -12.726  0.00  0.00    -0.322 OA
ATOM     13  H   UNL     1      36.706 -25.995 -12.105  0.00  0.00    +0.220 HD
ENDBRANCH   8  12
ENDBRANCH   1   8
BRANCH   1  14
ATOM     14  O   UNL     1      38.894 -24.271 -14.173  0.00  0.00    -0.367 OA
ATOM     15  H   UNL     1      39.050 -23.429 -14.629  0.00  0.00    +0.212 HD
ENDBRANCH   1  14
BRANCH   1  16
ATOM     16  C   UNL     1      36.789 -23.585 -14.993  0.00  0.00    +0.051 C 
BRANCH  16  17
ATOM     17  C   UNL     1      37.729 -22.875 -15.965  0.00  0.00    +0.004 C 
BRANCH  17  18
ATOM     18  C   UNL     1      37.081 -21.673 -16.664  0.00  0.00    +0.000 C 
BRANCH  18  19
ATOM     19  C   UNL     1      36.121 -22.005 -17.811  0.00  0.00    +0.000 C 
BRANCH  19  20
ATOM     20  C   UNL     1      36.482 -21.315 -19.127  0.00  0.00    +0.000 C 
ATOM     21  C   UNL     1      35.237 -20.968 -19.931  0.00  0.00    +0.000 C 
ENDBRANCH  19  20
ENDBRANCH  18  19
ENDBRANCH  17  18
ENDBRANCH  16  17
ENDBRANCH   1  16
TORSDOF 12
ENDMDL
MODEL 3
REMARK VINA RESULT:      -6.7      0.926      3.183
REMARK  Name = 5276520
REMARK  12 active torsions:
REMARK  status: ('A' for Active; 'I' for Inactive)
REMARK    1  A    between atoms: C_1  and  P_2
REMARK    2  A    between atoms: C_1  and  P_8
REMARK    3  A    between atoms: C_1  and  O_14
REMARK    4  A    between atoms: C_1  and  C_16
REMARK    5  A    between atoms: P_2  and  O_4
REMARK    6  A    between atoms: P_2  and  O_6
REMARK    7  A    between atoms: P_8  and  O_10
REMARK    8  A    between atoms: P_8  and  O_12
REMARK    9  A    between atoms: C_16  and  C_17
REMARK   10  A    between atoms: C_17  and  C_18
REMARK   11  A    between atoms: C_18  and  C_19
REMARK   12  A    between atoms: C_19  and  C_20
REMARK                            x       y       z     vdW  Elec       q    Type
REMARK                         _______ _______ _______ _____ _____    ______ ____
ROOT
ATOM      1  C   UNL     1      36.802 -24.671 -13.825  0.00  0.00    +0.275 C 
ENDROOT
BRANCH   1   2
ATOM      2  P   UNL     1      38.280 -25.458 -14.561  0.00  0.00    +0.372 P 
ATOM      3  O   UNL     1      39.147 -26.172 -13.565  0.00  0.00    -0.255 OA
BRANCH   2   4
ATOM      4  O   UNL     1      37.701 -26.387 -15.750  0.00  0.00    -0.322 OA
ATOM      5  H   UNL     1      38.189 -27.225 -15.772  0.00  0.00    +0.220 HD
ENDBRANCH   2   4
BRANCH   2   6
ATOM      6  O   UNL     1      39.016 -24.252 -15.344  0.00  0.00    -0.322 OA
ATOM      7  H   UNL     1      39.144 -24.501 -16.273  0.00  0.00    +0.220 HD
ENDBRANCH   2   6
ENDBRANCH   1   2
BRANCH   1   8
ATOM      8  P   UNL     1      36.454 -24.820 -12.032  0.00  0.00    +0.372 P 
ATOM      9  O   UNL     1      37.039 -23.733 -11.181  0.00  0.00    -0.255 OA
BRANCH   8  10
ATOM     10  O   UNL     1      36.939 -26.318 -11.671  0.00  0.00    -0.322 OA
ATOM     11  H   UNL     1      37.856 -26.440 -11.963  0.00  0.00    +0.220 HD
ENDBRANCH   8  10
BRANCH   8  12
ATOM     12  O   UNL     1      34.842 -24.941 -11.976  0.00  0.00    -0.322 OA
ATOM     13  H   UNL     1      34.449 -24.344 -12.633  0.00  0.00    +0.220 HD
ENDBRANCH   8  12
ENDBRANCH   1   8
BRANCH   1  14
ATOM     14  O   UNL     1      35.745 -25.464 -14.390  0.00  0.00    -0.367 OA
ATOM     15  H   UNL     1      35.018 -24.884 -14.668  0.00  0.00    +0.212 HD
ENDBRANCH   1  14
BRANCH   1  16
ATOM     16  C   UNL     1      36.535 -23.239 -14.333  0.00  0.00    +0.051 C 
BRANCH  16  17
ATOM     17  C   UNL     1      35.768 -23.157 -15.651  0.00  0.00    +0.004 C 
BRANCH  17  18
ATOM     18  C   UNL     1      36.437 -22.239 -16.682  0.00  0.00    +0.000 C 
BRANCH  18  19
ATOM     19  C   UNL     1      35.666 -22.028 -17.989  0.00  0.00    +0.000 C 
BRANCH  19  20
ATOM     20  C   UNL     1      36.519 -21.440 -19.114  0.00  0.00    +0.000 C 
ATOM     21  C   UNL     1      35.656 -20.779 -20.177  0.00  0.00    +0.000 C 
ENDBRANCH  19  20
ENDBRANCH  18  19
ENDBRANCH  17  18
ENDBRANCH  16  17
ENDBRANCH   1  16
TORSDOF 12
ENDMDL
MODEL 4
REMARK VINA RESULT:      -6.7      1.865      2.619
REMARK  Name = 5276520
REMARK  12 active torsions:
REMARK  status: ('A' for Active; 'I' for Inactive)
REMARK    1  A    between atoms: C_1  and  P_2
REMARK    2  A    between atoms: C_1  and  P_8
REMARK    3  A    between atoms: C_1  and  O_14
REMARK    4  A    between atoms: C_1  and  C_16
REMARK    5  A    between atoms: P_2  and  O_4
REMARK    6  A    between atoms: P_2  and  O_6
REMARK    7  A    between atoms: P_8  and  O_10
REMARK    8  A    between atoms: P_8  and  O_12
REMARK    9  A    between atoms: C_16  and  C_17
REMARK   10  A    between atoms: C_17  and  C_18
REMARK   11  A    between atoms: C_18  and  C_19
REMARK   12  A    between atoms: C_19  and  C_20
REMARK                            x       y       z     vdW  Elec       q    Type
REMARK                         _______ _______ _______ _____ _____    ______ ____
ROOT
ATOM      1  C   UNL     1      37.241 -24.106 -13.940  0.00  0.00    +0.275 C 
ENDROOT
BRANCH   1   2
ATOM      2  P   UNL     1      37.201 -23.563 -12.194  0.00  0.00    +0.372 P 
ATOM      3  O   UNL     1      38.088 -22.387 -11.904  0.00  0.00    -0.255 OA
BRANCH   2   4
ATOM      4  O   UNL     1      35.635 -23.330 -11.873  0.00  0.00    -0.322 OA
ATOM      5  H   UNL     1      35.542 -22.907 -11.005  0.00  0.00    +0.220 HD
ENDBRANCH   2   4
BRANCH   2   6
ATOM      6  O   UNL     1      37.567 -24.897 -11.360  0.00  0.00    -0.322 OA
ATOM      7  H   UNL     1      36.773 -25.444 -11.261  0.00  0.00    +0.220 HD
ENDBRANCH   2   6
ENDBRANCH   1   2
BRANCH   1   8
ATOM      8  P   UNL     1      38.507 -25.296 -14.524  0.00  0.00    +0.372 P 
ATOM      9  O   UNL     1      39.186 -26.081 -13.441  0.00  0.00    -0.255 OA
BRANCH   8  10
ATOM     10  O   UNL     1      39.485 -24.395 -15.441  0.00  0.00    -0.322 OA
ATOM     11  H   UNL     1      40.324 -24.863 -15.577  0.00  0.00    +0.220 HD
ENDBRANCH   8  10
BRANCH   8  12
ATOM     12  O   UNL     1      37.708 -26.182 -15.615  0.00  0.00    -0.322 OA
ATOM     13  H   UNL     1      36.887 -25.728 -15.863  0.00  0.00    +0.220 HD
ENDBRANCH   8  12
ENDBRANCH   1   8
BRANCH   1  14
ATOM     14  O   UNL     1      37.652 -22.901 -14.605  0.00  0.00    -0.367 OA
ATOM     15  H   UNL     1      38.379 -23.099 -15.216  0.00  0.00    +0.212 HD
ENDBRANCH   1  14
BRANCH   1  16
ATOM     16  C   UNL     1      35.853 -24.428 -14.529  0.00  0.00    +0.051 C 
BRANCH  16  17
ATOM     17  C   UNL     1      35.246 -23.321 -15.388  0.00  0.00    +0.004 C 
BRANCH  17  18
ATOM     18  C   UNL     1      33.761 -23.545 -15.701  0.00  0.00    +0.000 C 
BRANCH  18  19
ATOM     19  C   UNL     1      32.791 -23.319 -14.538  0.00  0.00    +0.000 C 
BRANCH  19  20
ATOM     20  C   UNL     1      31.372 -22.964 -14.986  0.00  0.00    +0.000 C 
ATOM     21  C   UNL     1      31.257 -22.951 -16.502  0.00  0.00    +0.000 C 
ENDBRANCH  19  20
ENDBRANCH  18  19
ENDBRANCH  17  18
ENDBRANCH  16  17
ENDBRANCH   1  16
TORSDOF 12
ENDMDL
MODEL 5
REMARK VINA RESULT:      -6.5      8.791     10.714
REMARK  Name = 5276520
REMARK  12 active torsions:
REMARK  status: ('A' for Active; 'I' for Inactive)
REMARK    1  A    between atoms: C_1  and  P_2
REMARK    2  A    between atoms: C_1  and  P_8
REMARK    3  A    between atoms: C_1  and  O_14
REMARK    4  A    between atoms: C_1  and  C_16
REMARK    5  A    between atoms: P_2  and  O_4
REMARK    6  A    between atoms: P_2  and  O_6
REMARK    7  A    between atoms: P_8  and  O_10
REMARK    8  A    between atoms: P_8  and  O_12
REMARK    9  A    between atoms: C_16  and  C_17
REMARK   10  A    between atoms: C_17  and  C_18
REMARK   11  A    between atoms: C_18  and  C_19
REMARK   12  A    between atoms: C_19  and  C_20
REMARK                            x       y       z     vdW  Elec       q    Type
REMARK                         _______ _______ _______ _____ _____    ______ ____
ROOT
ATOM      1  C   UNL     1      34.457 -17.388 -21.593  0.00  0.00    +0.275 C 
ENDROOT
BRANCH   1   2
ATOM      2  P   UNL     1      35.318 -17.700 -23.176  0.00  0.00    +0.372 P 
ATOM      3  O   UNL     1      34.538 -18.553 -24.134  0.00  0.00    -0.255 OA
BRANCH   2   4
ATOM      4  O   UNL     1      35.705 -16.233 -23.731  0.00  0.00    -0.322 OA
ATOM      5  H   UNL     1      35.070 -15.582 -23.392  0.00  0.00    +0.220 HD
ENDBRANCH   2   4
BRANCH   2   6
ATOM      6  O   UNL     1      36.739 -18.326 -22.732  0.00  0.00    -0.322 OA
ATOM      7  H   UNL     1      36.827 -19.221 -23.096  0.00  0.00    +0.220 HD
ENDBRANCH   2   6
ENDBRANCH   1   2
BRANCH   1   8
ATOM      8  P   UNL     1      33.804 -15.723 -21.193  0.00  0.00    +0.372 P 
ATOM      9  O   UNL     1      34.718 -14.865 -20.370  0.00  0.00    -0.255 OA
BRANCH   8  10
ATOM     10  O   UNL     1      32.361 -16.027 -20.533  0.00  0.00    -0.322 OA
ATOM     11  H   UNL     1      31.956 -15.194 -20.243  0.00  0.00    +0.220 HD
ENDBRANCH   8  10
BRANCH   8  12
ATOM     12  O   UNL     1      33.416 -15.119 -22.641  0.00  0.00    -0.322 OA
ATOM     13  H   UNL     1      32.509 -15.377 -22.869  0.00  0.00    +0.220 HD
ENDBRANCH   8  12
ENDBRANCH   1   8
BRANCH   1  14
ATOM     14  O   UNL     1      35.537 -17.506 -20.653  0.00  0.00    -0.367 OA
ATOM     15  H   UNL     1      35.915 -16.630 -20.480  0.00  0.00    +0.212 HD
ENDBRANCH   1  14
BRANCH   1  16
ATOM     16  C   UNL     1      33.461 -18.494 -21.191  0.00  0.00    +0.051 C 
BRANCH  16  17
ATOM     17  C   UNL     1      34.097 -19.841 -20.854  0.00  0.00    +0.004 C 
BRANCH  17  18
ATOM     18  C   UNL     1      33.210 -20.723 -19.966  0.00  0.00    +0.000 C 
BRANCH  18  19
ATOM     19  C   UNL     1      33.931 -21.827 -19.187  0.00  0.00    +0.000 C 
BRANCH  19  20
ATOM     20  C   UNL     1      35.402 -21.988 -19.576  0.00  0.00    +0.000 C 
ATOM     21  C   UNL     1      36.323 -21.648 -18.414  0.00  0.00    +0.000 C 
ENDBRANCH  19  20
ENDBRANCH  18  19
ENDBRANCH  17  18
ENDBRANCH  16  17
ENDBRANCH   1  16
TORSDOF 12
ENDMDL
MODEL 6
REMARK VINA RESULT:      -6.4      2.069      4.278
REMARK  Name = 5276520
REMARK  12 active torsions:
REMARK  status: ('A' for Active; 'I' for Inactive)
REMARK    1  A    between atoms: C_1  and  P_2
REMARK    2  A    between atoms: C_1  and  P_8
REMARK    3  A    between atoms: C_1  and  O_14
REMARK    4  A    between atoms: C_1  and  C_16
REMARK    5  A    between atoms: P_2  and  O_4
REMARK    6  A    between atoms: P_2  and  O_6
REMARK    7  A    between atoms: P_8  and  O_10
REMARK    8  A    between atoms: P_8  and  O_12
REMARK    9  A    between atoms: C_16  and  C_17
REMARK   10  A    between atoms: C_17  and  C_18
REMARK   11  A    between atoms: C_18  and  C_19
REMARK   12  A    between atoms: C_19  and  C_20
REMARK                            x       y       z     vdW  Elec       q    Type
REMARK                         _______ _______ _______ _____ _____    ______ ____
ROOT
ATOM      1  C   UNL     1      36.670 -24.629 -13.885  0.00  0.00    +0.275 C 
ENDROOT
BRANCH   1   2
ATOM      2  P   UNL     1      38.361 -24.865 -14.540  0.00  0.00    +0.372 P 
ATOM      3  O   UNL     1      39.427 -24.862 -13.484  0.00  0.00    -0.255 OA
BRANCH   2   4
ATOM      4  O   UNL     1      38.276 -26.218 -15.418  0.00  0.00    -0.322 OA
ATOM      5  H   UNL     1      38.369 -26.988 -14.836  0.00  0.00    +0.220 HD
ENDBRANCH   2   4
BRANCH   2   6
ATOM      6  O   UNL     1      38.517 -23.700 -15.649  0.00  0.00    -0.322 OA
ATOM      7  H   UNL     1      38.197 -24.025 -16.505  0.00  0.00    +0.220 HD
ENDBRANCH   2   6
ENDBRANCH   1   2
BRANCH   1   8
ATOM      8  P   UNL     1      36.334 -24.749 -12.087  0.00  0.00    +0.372 P 
ATOM      9  O   UNL     1      34.930 -24.413 -11.682  0.00  0.00    -0.255 OA
BRANCH   8  10
ATOM     10  O   UNL     1      37.485 -23.832 -11.421  0.00  0.00    -0.322 OA
ATOM     11  H   UNL     1      37.385 -23.838 -10.456  0.00  0.00    +0.220 HD
ENDBRANCH   8  10
BRANCH   8  12
ATOM     12  O   UNL     1      36.813 -26.249 -11.720  0.00  0.00    -0.322 OA
ATOM     13  H   UNL     1      37.513 -26.211 -11.049  0.00  0.00    +0.220 HD
ENDBRANCH   8  12
ENDBRANCH   1   8
BRANCH   1  14
ATOM     14  O   UNL     1      36.005 -25.803 -14.380  0.00  0.00    -0.367 OA
ATOM     15  H   UNL     1      35.929 -26.457 -13.668  0.00  0.00    +0.212 HD
ENDBRANCH   1  14
BRANCH   1  16
ATOM     16  C   UNL     1      35.909 -23.448 -14.521  0.00  0.00    +0.051 C 
BRANCH  16  17
ATOM     17  C   UNL     1      34.759 -23.845 -15.443  0.00  0.00    +0.004 C 
BRANCH  17  18
ATOM     18  C   UNL     1      33.410 -23.254 -15.015  0.00  0.00    +0.000 C 
BRANCH  18  19
ATOM     19  C   UNL     1      32.481 -24.197 -14.244  0.00  0.00    +0.000 C 
BRANCH  19  20
ATOM     20  C   UNL     1      31.244 -23.502 -13.673  0.00  0.00    +0.000 C 
ATOM     21  C   UNL     1      30.363 -22.940 -14.778  0.00  0.00    +0.000 C 
ENDBRANCH  19  20
ENDBRANCH  18  19
ENDBRANCH  17  18
ENDBRANCH  16  17
ENDBRANCH   1  16
TORSDOF 12
ENDMDL
MODEL 7
REMARK VINA RESULT:      -6.1     10.996     12.657
REMARK  Name = 5276520
REMARK  12 active torsions:
REMARK  status: ('A' for Active; 'I' for Inactive)
REMARK    1  A    between atoms: C_1  and  P_2
REMARK    2  A    between atoms: C_1  and  P_8
REMARK    3  A    between atoms: C_1  and  O_14
REMARK    4  A    between atoms: C_1  and  C_16
REMARK    5  A    between atoms: P_2  and  O_4
REMARK    6  A    between atoms: P_2  and  O_6
REMARK    7  A    between atoms: P_8  and  O_10
REMARK    8  A    between atoms: P_8  and  O_12
REMARK    9  A    between atoms: C_16  and  C_17
REMARK   10  A    between atoms: C_17  and  C_18
REMARK   11  A    between atoms: C_18  and  C_19
REMARK   12  A    between atoms: C_19  and  C_20
REMARK                            x       y       z     vdW  Elec       q    Type
REMARK                         _______ _______ _______ _____ _____    ______ ____
ROOT
ATOM      1  C   UNL     1      34.277 -16.205 -23.582  0.00  0.00    +0.275 C 
ENDROOT
BRANCH   1   2
ATOM      2  P   UNL     1      34.265 -17.191 -25.122  0.00  0.00    +0.372 P 
ATOM      3  O   UNL     1      34.236 -18.674 -24.893  0.00  0.00    -0.255 OA
BRANCH   2   4
ATOM      4  O   UNL     1      33.022 -16.609 -25.974  0.00  0.00    -0.322 OA
ATOM      5  H   UNL     1      33.271 -16.549 -26.909  0.00  0.00    +0.220 HD
ENDBRANCH   2   4
BRANCH   2   6
ATOM      6  O   UNL     1      35.561 -16.668 -25.932  0.00  0.00    -0.322 OA
ATOM      7  H   UNL     1      35.494 -15.709 -26.065  0.00  0.00    +0.220 HD
ENDBRANCH   2   6
ENDBRANCH   1   2
BRANCH   1   8
ATOM      8  P   UNL     1      33.466 -14.562 -23.514  0.00  0.00    +0.372 P 
ATOM      9  O   UNL     1      32.942 -14.060 -24.826  0.00  0.00    -0.255 OA
BRANCH   8  10
ATOM     10  O   UNL     1      34.570 -13.620 -22.803  0.00  0.00    -0.322 OA
ATOM     11  H   UNL     1      35.057 -14.136 -22.142  0.00  0.00    +0.220 HD
ENDBRANCH   8  10
BRANCH   8  12
ATOM     12  O   UNL     1      32.353 -14.746 -22.356  0.00  0.00    -0.322 OA
ATOM     13  H   UNL     1      31.659 -14.078 -22.464  0.00  0.00    +0.220 HD
ENDBRANCH   8  12
ENDBRANCH   1   8
BRANCH   1  14
ATOM     14  O   UNL     1      35.664 -15.844 -23.484  0.00  0.00    -0.367 OA
ATOM     15  H   UNL     1      35.787 -14.938 -23.806  0.00  0.00    +0.212 HD
ENDBRANCH   1  14
BRANCH   1  16
ATOM     16  C   UNL     1      33.991 -17.026 -22.308  0.00  0.00    +0.051 C 
BRANCH  16  17
ATOM     17  C   UNL     1      35.230 -17.424 -21.508  0.00  0.00    +0.004 C 
BRANCH  17  18
ATOM     18  C   UNL     1      35.183 -18.871 -21.001  0.00  0.00    +0.000 C 
BRANCH  18  19
ATOM     19  C   UNL     1      34.011 -19.718 -21.506  0.00  0.00    +0.000 C 
BRANCH  19  20
ATOM     20  C   UNL     1      33.005 -20.082 -20.414  0.00  0.00    +0.000 C 
ATOM     21  C   UNL     1      33.451 -21.311 -19.636  0.00  0.00    +0.000 C 
ENDBRANCH  19  20
ENDBRANCH  18  19
ENDBRANCH  17  18
ENDBRANCH  16  17
ENDBRANCH   1  16
TORSDOF 12
ENDMDL
MODEL 8
REMARK VINA RESULT:      -6.1      2.701      4.424
REMARK  Name = 5276520
REMARK  12 active torsions:
REMARK  status: ('A' for Active; 'I' for Inactive)
REMARK    1  A    between atoms: C_1  and  P_2
REMARK    2  A    between atoms: C_1  and  P_8
REMARK    3  A    between atoms: C_1  and  O_14
REMARK    4  A    between atoms: C_1  and  C_16
REMARK    5  A    between atoms: P_2  and  O_4
REMARK    6  A    between atoms: P_2  and  O_6
REMARK    7  A    between atoms: P_8  and  O_10
REMARK    8  A    between atoms: P_8  and  O_12
REMARK    9  A    between atoms: C_16  and  C_17
REMARK   10  A    between atoms: C_17  and  C_18
REMARK   11  A    between atoms: C_18  and  C_19
REMARK   12  A    between atoms: C_19  and  C_20
REMARK                            x       y       z     vdW  Elec       q    Type
REMARK                         _______ _______ _______ _____ _____    ______ ____
ROOT
ATOM      1  C   UNL     1      36.401 -24.405 -13.345  0.00  0.00    +0.275 C 
ENDROOT
BRANCH   1   2
ATOM      2  P   UNL     1      37.122 -24.350 -15.025  0.00  0.00    +0.372 P 
ATOM      3  O   UNL     1      36.386 -23.447 -15.972  0.00  0.00    -0.255 OA
BRANCH   2   4
ATOM      4  O   UNL     1      38.676 -23.973 -14.793  0.00  0.00    -0.322 OA
ATOM      5  H   UNL     1      38.897 -24.078 -13.855  0.00  0.00    +0.220 HD
ENDBRANCH   2   4
BRANCH   2   6
ATOM      6  O   UNL     1      37.169 -25.898 -15.482  0.00  0.00    -0.322 OA
ATOM      7  H   UNL     1      36.372 -26.353 -15.167  0.00  0.00    +0.220 HD
ENDBRANCH   2   6
ENDBRANCH   1   2
BRANCH   1   8
ATOM      8  P   UNL     1      37.471 -24.302 -11.861  0.00  0.00    +0.372 P 
ATOM      9  O   UNL     1      38.431 -23.149 -11.851  0.00  0.00    -0.255 OA
BRANCH   8  10
ATOM     10  O   UNL     1      38.148 -25.766 -11.774  0.00  0.00    -0.322 OA
ATOM     11  H   UNL     1      37.511 -26.395 -11.398  0.00  0.00    +0.220 HD
ENDBRANCH   8  10
BRANCH   8  12
ATOM     12  O   UNL     1      36.412 -24.323 -10.639  0.00  0.00    -0.322 OA
ATOM     13  H   UNL     1      35.521 -24.488 -10.985  0.00  0.00    +0.220 HD
ENDBRANCH   8  12
ENDBRANCH   1   8
BRANCH   1  14
ATOM     14  O   UNL     1      35.944 -25.766 -13.275  0.00  0.00    -0.367 OA
ATOM     15  H   UNL     1      36.704 -26.366 -13.331  0.00  0.00    +0.212 HD
ENDBRANCH   1  14
BRANCH   1  16
ATOM     16  C   UNL     1      35.127 -23.552 -13.181  0.00  0.00    +0.051 C 
BRANCH  16  17
ATOM     17  C   UNL     1      33.823 -24.271 -13.519  0.00  0.00    +0.004 C 
BRANCH  17  18
ATOM     18  C   UNL     1      33.029 -23.588 -14.639  0.00  0.00    +0.000 C 
BRANCH  18  19
ATOM     19  C   UNL     1      31.733 -22.892 -14.211  0.00  0.00    +0.000 C 
BRANCH  19  20
ATOM     20  C   UNL     1      30.485 -23.451 -14.897  0.00  0.00    +0.000 C 
ATOM     21  C   UNL     1      30.352 -24.949 -14.672  0.00  0.00    +0.000 C 
ENDBRANCH  19  20
ENDBRANCH  18  19
ENDBRANCH  17  18
ENDBRANCH  16  17
ENDBRANCH   1  16
TORSDOF 12
ENDMDL
MODEL 9
REMARK VINA RESULT:      -6.1     10.030     12.035
REMARK  Name = 5276520
REMARK  12 active torsions:
REMARK  status: ('A' for Active; 'I' for Inactive)
REMARK    1  A    between atoms: C_1  and  P_2
REMARK    2  A    between atoms: C_1  and  P_8
REMARK    3  A    between atoms: C_1  and  O_14
REMARK    4  A    between atoms: C_1  and  C_16
REMARK    5  A    between atoms: P_2  and  O_4
REMARK    6  A    between atoms: P_2  and  O_6
REMARK    7  A    between atoms: P_8  and  O_10
REMARK    8  A    between atoms: P_8  and  O_12
REMARK    9  A    between atoms: C_16  and  C_17
REMARK   10  A    between atoms: C_17  and  C_18
REMARK   11  A    between atoms: C_18  and  C_19
REMARK   12  A    between atoms: C_19  and  C_20
REMARK                            x       y       z     vdW  Elec       q    Type
REMARK                         _______ _______ _______ _____ _____    ______ ____
ROOT
ATOM      1  C   UNL     1      34.588 -16.745 -23.220  0.00  0.00    +0.275 C 
ENDROOT
BRANCH   1   2
ATOM      2  P   UNL     1      34.186 -16.401 -24.970  0.00  0.00    +0.372 P 
ATOM      3  O   UNL     1      33.237 -15.255 -25.162  0.00  0.00    -0.255 OA
BRANCH   2   4
ATOM      4  O   UNL     1      35.621 -16.226 -25.694  0.00  0.00    -0.322 OA
ATOM      5  H   UNL     1      36.312 -16.624 -25.143  0.00  0.00    +0.220 HD
ENDBRANCH   2   4
BRANCH   2   6
ATOM      6  O   UNL     1      33.647 -17.816 -25.533  0.00  0.00    -0.322 OA
ATOM      7  H   UNL     1      34.207 -18.106 -26.270  0.00  0.00    +0.220 HD
ENDBRANCH   2   6
ENDBRANCH   1   2
BRANCH   1   8
ATOM      8  P   UNL     1      34.287 -15.485 -21.923  0.00  0.00    +0.372 P 
ATOM      9  O   UNL     1      34.910 -15.785 -20.592  0.00  0.00    -0.255 OA
BRANCH   8  10
ATOM     10  O   UNL     1      32.680 -15.322 -21.913  0.00  0.00    -0.322 OA
ATOM     11  H   UNL     1      32.450 -14.379 -21.919  0.00  0.00    +0.220 HD
ENDBRANCH   8  10
BRANCH   8  12
ATOM     12  O   UNL     1      34.783 -14.112 -22.618  0.00  0.00    -0.322 OA
ATOM     13  H   UNL     1      35.728 -13.982 -22.442  0.00  0.00    +0.220 HD
ENDBRANCH   8  12
ENDBRANCH   1   8
BRANCH   1  14
ATOM     14  O   UNL     1      36.024 -16.780 -23.257  0.00  0.00    -0.367 OA
ATOM     15  H   UNL     1      36.330 -16.558 -24.151  0.00  0.00    +0.212 HD
ENDBRANCH   1  14
BRANCH   1  16
ATOM     16  C   UNL     1      34.171 -18.151 -22.745  0.00  0.00    +0.051 C 
BRANCH  16  17
ATOM     17  C   UNL     1      35.304 -18.997 -22.166  0.00  0.00    +0.004 C 
BRANCH  17  18
ATOM     18  C   UNL     1      34.969 -19.599 -20.796  0.00  0.00    +0.000 C 
BRANCH  18  19
ATOM     19  C   UNL     1      33.526 -20.075 -20.609  0.00  0.00    +0.000 C 
BRANCH  19  20
ATOM     20  C   UNL     1      33.388 -21.233 -19.619  0.00  0.00    +0.000 C 
ATOM     21  C   UNL     1      34.734 -21.883 -19.335  0.00  0.00    +0.000 C 
ENDBRANCH  19  20
ENDBRANCH  18  19
ENDBRANCH  17  18
ENDBRANCH  16  17
ENDBRANCH   1  16
TORSDOF 12
ENDMDL
