MODEL 1
REMARK VINA RESULT:     -11.3      0.000      0.000
REMARK  Name = 5287492
REMARK  6 active torsions:
REMARK  status: ('A' for Active; 'I' for Inactive)
REMARK    1  A    between atoms: N_2  and  C_12
REMARK    2  A    between atoms: C_8  and  C_24
REMARK    3  A    between atoms: C_12  and  C_15
REMARK    4  A    between atoms: C_15  and  C_17
REMARK    5  A    between atoms: C_24  and  C_25
REMARK    6  A    between atoms: C_26  and  N_31
REMARK                            x       y       z     vdW  Elec       q    Type
REMARK                         _______ _______ _______ _____ _____    ______ ____
ROOT
ATOM      1  O   UNL     1      34.497  -9.883 -25.401  0.00  0.00    -0.446 OA
ATOM      2  N   UNL     1      33.224 -13.414 -22.655  0.00  0.00    -0.312 N 
ATOM      3  N   UNL     1      33.273 -13.746 -25.025  0.00  0.00    -0.227 NA
ATOM      4  N   UNL     1      34.139 -10.593 -23.278  0.00  0.00    -0.369 NA
ATOM      5  C   UNL     1      33.455 -12.936 -23.935  0.00  0.00    +0.158 C 
ATOM      6  C   UNL     1      33.878 -11.617 -24.156  0.00  0.00    +0.187 C 
ATOM      7  C   UNL     1      34.096 -11.187 -25.455  0.00  0.00    +0.246 C 
ATOM      8  C   UNL     1      34.498  -9.604 -24.067  0.00  0.00    +0.257 C 
ATOM      9  C   UNL     1      33.924 -11.973 -26.580  0.00  0.00    +0.045 C 
ATOM     10  C   UNL     1      33.505 -13.261 -26.273  0.00  0.00    +0.100 C 
ATOM     11  H   UNL     1      33.364 -12.800 -21.899  0.00  0.00    +0.148 HD
ENDROOT
BRANCH   2  12
ATOM     12  C   UNL     1      32.787 -14.760 -22.369  0.00  0.00    +0.153 C 
BRANCH  12  15
ATOM     13  F   UNL     1      33.328 -16.180 -20.571  0.00  0.00    -0.205 F 
ATOM     14  F   UNL     1      34.753 -14.610 -21.081  0.00  0.00    -0.205 F 
ATOM     15  C   UNL     1      33.869 -15.492 -21.603  0.00  0.00    +0.265 C 
BRANCH  15  17
ATOM     16  N   UNL     1      34.075 -16.449 -23.840  0.00  0.00    +0.389 N 
ATOM     17  C   UNL     1      34.638 -16.476 -22.484  0.00  0.00    +0.003 C 
ATOM     18  C   UNL     1      34.569 -17.892 -21.895  0.00  0.00    -0.016 C 
ATOM     19  C   UNL     1      35.264 -18.903 -22.802  0.00  0.00    -0.004 C 
ATOM     20  C   UNL     1      34.728 -18.802 -24.225  0.00  0.00    -0.023 C 
ATOM     21  C   UNL     1      34.782 -17.364 -24.736  0.00  0.00    -0.081 C 
ATOM     22  H   UNL     1      34.147 -15.501 -24.209  0.00  0.00    -0.084 HD
ATOM     23  H   UNL     1      33.101 -16.747 -23.786  0.00  0.00    -0.084 HD
ENDBRANCH  15  17
ENDBRANCH  12  15
ENDBRANCH   2  12
BRANCH   8  24
ATOM     24  C   UNL     1      34.897  -8.238 -23.697  0.00  0.00    +0.127 C 
BRANCH  24  25
ATOM     25  C   UNL     1      33.877  -7.167 -24.069  0.00  0.00    +0.004 C 
ATOM     26  C   UNL     1      32.776  -6.947 -23.268  0.00  0.00    +0.072 C 
ATOM     27  C   UNL     1      34.103  -6.444 -25.223  0.00  0.00    -0.002 C 
ATOM     28  C   UNL     1      31.861  -5.960 -23.635  0.00  0.00    +0.016 C 
ATOM     29  C   UNL     1      33.188  -5.457 -25.590  0.00  0.00    -0.000 C 
ATOM     30  C   UNL     1      32.067  -5.215 -24.796  0.00  0.00    +0.001 C 
BRANCH  26  31
ATOM     31  N   UNL     1      32.553  -7.675 -22.111  0.00  0.00    -0.169 N 
ATOM     32  N   UNL     1      31.742  -8.748 -22.092  0.00  0.00    -0.150 NA
ATOM     33  N   UNL     1      32.640  -8.342 -20.027  0.00  0.00    -0.203 NA
ATOM     34  C   UNL     1      33.081  -7.443 -20.876  0.00  0.00    +0.190 C 
ATOM     35  C   UNL     1      31.830  -9.113 -20.810  0.00  0.00    +0.219 C 
ENDBRANCH  26  31
ENDBRANCH  24  25
ENDBRANCH   8  24
TORSDOF 6
ENDMDL
MODEL 2
REMARK VINA RESULT:     -11.0      7.320     13.069
REMARK  Name = 5287492
REMARK  6 active torsions:
REMARK  status: ('A' for Active; 'I' for Inactive)
REMARK    1  A    between atoms: N_2  and  C_12
REMARK    2  A    between atoms: C_8  and  C_24
REMARK    3  A    between atoms: C_12  and  C_15
REMARK    4  A    between atoms: C_15  and  C_17
REMARK    5  A    between atoms: C_24  and  C_25
REMARK    6  A    between atoms: C_26  and  N_31
REMARK                            x       y       z     vdW  Elec       q    Type
REMARK                         _______ _______ _______ _____ _____    ______ ____
ROOT
ATOM      1  O   UNL     1      34.310 -22.970 -17.414  0.00  0.00    -0.446 OA
ATOM      2  N   UNL     1      34.361 -20.131 -21.096  0.00  0.00    -0.312 N 
ATOM      3  N   UNL     1      36.382 -20.462 -19.858  0.00  0.00    -0.227 NA
ATOM      4  N   UNL     1      33.115 -22.041 -19.101  0.00  0.00    -0.369 NA
ATOM      5  C   UNL     1      35.051 -20.722 -20.050  0.00  0.00    +0.158 C 
ATOM      6  C   UNL     1      34.414 -21.599 -19.160  0.00  0.00    +0.187 C 
ATOM      7  C   UNL     1      35.148 -22.164 -18.129  0.00  0.00    +0.246 C 
ATOM      8  C   UNL     1      33.115 -22.841 -18.057  0.00  0.00    +0.257 C 
ATOM      9  C   UNL     1      36.491 -21.928 -17.902  0.00  0.00    +0.045 C 
ATOM     10  C   UNL     1      37.044 -21.051 -18.827  0.00  0.00    +0.100 C 
ATOM     11  H   UNL     1      33.405 -20.342 -21.200  0.00  0.00    +0.148 HD
ENDROOT
BRANCH   2  12
ATOM     12  C   UNL     1      34.965 -19.221 -22.042  0.00  0.00    +0.153 C 
BRANCH  12  15
ATOM     13  F   UNL     1      35.584 -17.423 -20.654  0.00  0.00    -0.205 F 
ATOM     14  F   UNL     1      33.462 -17.685 -21.078  0.00  0.00    -0.205 F 
ATOM     15  C   UNL     1      34.701 -17.793 -21.610  0.00  0.00    +0.265 C 
BRANCH  15  17
ATOM     16  N   UNL     1      33.779 -15.774 -22.626  0.00  0.00    +0.389 N 
ATOM     17  C   UNL     1      34.812 -16.807 -22.772  0.00  0.00    +0.003 C 
ATOM     18  C   UNL     1      34.664 -17.538 -24.114  0.00  0.00    -0.016 C 
ATOM     19  C   UNL     1      34.693 -16.558 -25.283  0.00  0.00    -0.004 C 
ATOM     20  C   UNL     1      33.674 -15.444 -25.073  0.00  0.00    -0.023 C 
ATOM     21  C   UNL     1      33.845 -14.789 -23.704  0.00  0.00    -0.081 C 
ATOM     22  H   UNL     1      33.912 -15.297 -21.733  0.00  0.00    -0.084 HD
ATOM     23  H   UNL     1      32.867 -16.228 -22.665  0.00  0.00    -0.084 HD
ENDBRANCH  15  17
ENDBRANCH  12  15
ENDBRANCH   2  12
BRANCH   8  24
ATOM     24  C   UNL     1      31.996 -23.612 -17.497  0.00  0.00    +0.127 C 
BRANCH  24  25
ATOM     25  C   UNL     1      31.813 -23.442 -15.992  0.00  0.00    +0.004 C 
ATOM     26  C   UNL     1      30.549 -23.303 -15.457  0.00  0.00    +0.072 C 
ATOM     27  C   UNL     1      32.948 -23.433 -15.208  0.00  0.00    -0.002 C 
ATOM     28  C   UNL     1      30.414 -23.149 -14.077  0.00  0.00    +0.016 C 
ATOM     29  C   UNL     1      32.813 -23.279 -13.827  0.00  0.00    -0.000 C 
ATOM     30  C   UNL     1      31.546 -23.137 -13.262  0.00  0.00    +0.001 C 
BRANCH  26  31
ATOM     31  N   UNL     1      29.412 -23.312 -16.247  0.00  0.00    -0.169 N 
ATOM     32  N   UNL     1      28.874 -22.179 -16.731  0.00  0.00    -0.150 NA
ATOM     33  N   UNL     1      27.679 -24.017 -17.386  0.00  0.00    -0.203 NA
ATOM     34  C   UNL     1      28.692 -24.400 -16.644  0.00  0.00    +0.190 C 
ATOM     35  C   UNL     1      27.830 -22.660 -17.411  0.00  0.00    +0.219 C 
ENDBRANCH  26  31
ENDBRANCH  24  25
ENDBRANCH   8  24
TORSDOF 6
ENDMDL
MODEL 3
REMARK VINA RESULT:     -10.9      3.082      9.351
REMARK  Name = 5287492
REMARK  6 active torsions:
REMARK  status: ('A' for Active; 'I' for Inactive)
REMARK    1  A    between atoms: N_2  and  C_12
REMARK    2  A    between atoms: C_8  and  C_24
REMARK    3  A    between atoms: C_12  and  C_15
REMARK    4  A    between atoms: C_15  and  C_17
REMARK    5  A    between atoms: C_24  and  C_25
REMARK    6  A    between atoms: C_26  and  N_31
REMARK                            x       y       z     vdW  Elec       q    Type
REMARK                         _______ _______ _______ _____ _____    ______ ____
ROOT
ATOM      1  O   UNL     1      33.579 -11.551 -23.752  0.00  0.00    -0.446 OA
ATOM      2  N   UNL     1      32.003  -7.779 -21.537  0.00  0.00    -0.312 N 
ATOM      3  N   UNL     1      33.881  -7.563 -23.004  0.00  0.00    -0.227 NA
ATOM      4  N   UNL     1      32.052 -10.710 -22.305  0.00  0.00    -0.369 NA
ATOM      5  C   UNL     1      32.916  -8.337 -22.416  0.00  0.00    +0.158 C 
ATOM      6  C   UNL     1      32.885  -9.704 -22.730  0.00  0.00    +0.187 C 
ATOM      7  C   UNL     1      33.821 -10.214 -23.615  0.00  0.00    +0.246 C 
ATOM      8  C   UNL     1      32.508 -11.768 -22.938  0.00  0.00    +0.257 C 
ATOM      9  C   UNL     1      34.809  -9.466 -24.228  0.00  0.00    +0.045 C 
ATOM     10  C   UNL     1      34.769  -8.126 -23.864  0.00  0.00    +0.100 C 
ATOM     11  H   UNL     1      31.326  -8.370 -21.134  0.00  0.00    +0.148 HD
ENDROOT
BRANCH   2  12
ATOM     12  C   UNL     1      31.989  -6.380 -21.177  0.00  0.00    +0.153 C 
BRANCH  12  15
ATOM     13  F   UNL     1      30.049  -5.049 -21.077  0.00  0.00    -0.205 F 
ATOM     14  F   UNL     1      30.153  -6.566 -22.641  0.00  0.00    -0.205 F 
ATOM     15  C   UNL     1      30.887  -5.672 -21.938  0.00  0.00    +0.265 C 
BRANCH  15  17
ATOM     16  N   UNL     1      30.746  -3.353 -22.686  0.00  0.00    +0.389 N 
ATOM     17  C   UNL     1      31.434  -4.630 -22.912  0.00  0.00    +0.003 C 
ATOM     18  C   UNL     1      31.247  -5.099 -24.362  0.00  0.00    -0.016 C 
ATOM     19  C   UNL     1      31.715  -4.036 -25.352  0.00  0.00    -0.004 C 
ATOM     20  C   UNL     1      31.056  -2.696 -25.049  0.00  0.00    -0.023 C 
ATOM     21  C   UNL     1      31.239  -2.308 -23.583  0.00  0.00    -0.081 C 
ATOM     22  H   UNL     1      30.900  -3.060 -21.721  0.00  0.00    -0.084 HD
ATOM     23  H   UNL     1      29.752  -3.489 -22.873  0.00  0.00    -0.084 HD
ENDBRANCH  15  17
ENDBRANCH  12  15
ENDBRANCH   2  12
BRANCH   8  24
ATOM     24  C   UNL     1      32.013 -13.151 -22.881  0.00  0.00    +0.127 C 
BRANCH  24  25
ATOM     25  C   UNL     1      33.007 -14.145 -22.288  0.00  0.00    +0.004 C 
ATOM     26  C   UNL     1      33.661 -15.044 -23.105  0.00  0.00    +0.072 C 
ATOM     27  C   UNL     1      33.216 -14.103 -20.925  0.00  0.00    -0.002 C 
ATOM     28  C   UNL     1      34.565 -15.941 -22.533  0.00  0.00    +0.016 C 
ATOM     29  C   UNL     1      34.119 -14.999 -20.353  0.00  0.00    -0.000 C 
ATOM     30  C   UNL     1      34.793 -15.918 -21.157  0.00  0.00    +0.001 C 
BRANCH  26  31
ATOM     31  N   UNL     1      33.449 -15.084 -24.472  0.00  0.00    -0.169 N 
ATOM     32  N   UNL     1      32.770 -14.118 -25.115  0.00  0.00    -0.150 NA
ATOM     33  N   UNL     1      33.478 -15.743 -26.561  0.00  0.00    -0.203 NA
ATOM     34  C   UNL     1      33.865 -16.046 -25.344  0.00  0.00    +0.190 C 
ATOM     35  C   UNL     1      32.816 -14.564 -26.373  0.00  0.00    +0.219 C 
ENDBRANCH  26  31
ENDBRANCH  24  25
ENDBRANCH   8  24
TORSDOF 6
ENDMDL
MODEL 4
REMARK VINA RESULT:     -10.7      2.376      4.282
REMARK  Name = 5287492
REMARK  6 active torsions:
REMARK  status: ('A' for Active; 'I' for Inactive)
REMARK    1  A    between atoms: N_2  and  C_12
REMARK    2  A    between atoms: C_8  and  C_24
REMARK    3  A    between atoms: C_12  and  C_15
REMARK    4  A    between atoms: C_15  and  C_17
REMARK    5  A    between atoms: C_24  and  C_25
REMARK    6  A    between atoms: C_26  and  N_31
REMARK                            x       y       z     vdW  Elec       q    Type
REMARK                         _______ _______ _______ _____ _____    ______ ____
ROOT
ATOM      1  O   UNL     1      32.865 -13.176 -25.179  0.00  0.00    -0.446 OA
ATOM      2  N   UNL     1      35.298 -16.633 -23.239  0.00  0.00    -0.312 N 
ATOM      3  N   UNL     1      34.088 -17.057 -25.261  0.00  0.00    -0.227 NA
ATOM      4  N   UNL     1      34.213 -13.813 -23.471  0.00  0.00    -0.369 NA
ATOM      5  C   UNL     1      34.472 -16.199 -24.264  0.00  0.00    +0.158 C 
ATOM      6  C   UNL     1      34.003 -14.878 -24.312  0.00  0.00    +0.187 C 
ATOM      7  C   UNL     1      33.179 -14.493 -25.358  0.00  0.00    +0.246 C 
ATOM      8  C   UNL     1      33.521 -12.845 -24.031  0.00  0.00    +0.257 C 
ATOM      9  C   UNL     1      32.771 -15.328 -26.382  0.00  0.00    +0.045 C 
ATOM     10  C   UNL     1      33.278 -16.615 -26.258  0.00  0.00    +0.100 C 
ATOM     11  H   UNL     1      35.549 -15.986 -22.541  0.00  0.00    +0.148 HD
ENDROOT
BRANCH   2  12
ATOM     12  C   UNL     1      35.808 -17.980 -23.138  0.00  0.00    +0.153 C 
BRANCH  12  15
ATOM     13  F   UNL     1      35.511 -17.352 -20.888  0.00  0.00    -0.205 F 
ATOM     14  F   UNL     1      37.186 -18.667 -21.356  0.00  0.00    -0.205 F 
ATOM     15  C   UNL     1      35.905 -18.377 -21.679  0.00  0.00    +0.265 C 
BRANCH  15  17
ATOM     16  N   UNL     1      33.702 -19.140 -20.955  0.00  0.00    +0.389 N 
ATOM     17  C   UNL     1      35.041 -19.594 -21.352  0.00  0.00    +0.003 C 
ATOM     18  C   UNL     1      35.686 -20.426 -20.234  0.00  0.00    -0.016 C 
ATOM     19  C   UNL     1      34.798 -21.602 -19.839  0.00  0.00    -0.004 C 
ATOM     20  C   UNL     1      33.389 -21.123 -19.513  0.00  0.00    -0.023 C 
ATOM     21  C   UNL     1      32.821 -20.265 -20.642  0.00  0.00    -0.081 C 
ATOM     22  H   UNL     1      33.294 -18.604 -21.720  0.00  0.00    -0.084 HD
ATOM     23  H   UNL     1      33.796 -18.567 -20.116  0.00  0.00    -0.084 HD
ENDBRANCH  15  17
ENDBRANCH  12  15
ENDBRANCH   2  12
BRANCH   8  24
ATOM     24  C   UNL     1      33.364 -11.455 -23.579  0.00  0.00    +0.127 C 
BRANCH  24  25
ATOM     25  C   UNL     1      32.563 -11.304 -22.290  0.00  0.00    +0.004 C 
ATOM     26  C   UNL     1      32.162 -10.056 -21.863  0.00  0.00    +0.072 C 
ATOM     27  C   UNL     1      32.266 -12.453 -21.585  0.00  0.00    -0.002 C 
ATOM     28  C   UNL     1      31.430  -9.951 -20.680  0.00  0.00    +0.016 C 
ATOM     29  C   UNL     1      31.534 -12.348 -20.402  0.00  0.00    -0.000 C 
ATOM     30  C   UNL     1      31.116 -11.097 -19.950  0.00  0.00    +0.001 C 
BRANCH  26  31
ATOM     31  N   UNL     1      32.462  -8.905 -22.573  0.00  0.00    -0.169 N 
ATOM     32  N   UNL     1      31.682  -8.464 -23.575  0.00  0.00    -0.150 NA
ATOM     33  N   UNL     1      33.480  -7.088 -23.248  0.00  0.00    -0.203 NA
ATOM     34  C   UNL     1      33.530  -8.078 -22.388  0.00  0.00    +0.190 C 
ATOM     35  C   UNL     1      32.341  -7.364 -23.949  0.00  0.00    +0.219 C 
ENDBRANCH  26  31
ENDBRANCH  24  25
ENDBRANCH   8  24
TORSDOF 6
ENDMDL
MODEL 5
REMARK VINA RESULT:     -10.7      8.762     14.725
REMARK  Name = 5287492
REMARK  6 active torsions:
REMARK  status: ('A' for Active; 'I' for Inactive)
REMARK    1  A    between atoms: N_2  and  C_12
REMARK    2  A    between atoms: C_8  and  C_24
REMARK    3  A    between atoms: C_12  and  C_15
REMARK    4  A    between atoms: C_15  and  C_17
REMARK    5  A    between atoms: C_24  and  C_25
REMARK    6  A    between atoms: C_26  and  N_31
REMARK                            x       y       z     vdW  Elec       q    Type
REMARK                         _______ _______ _______ _____ _____    ______ ____
ROOT
ATOM      1  O   UNL     1      35.346 -23.350 -16.182  0.00  0.00    -0.446 OA
ATOM      2  N   UNL     1      35.698 -20.590 -19.908  0.00  0.00    -0.312 N 
ATOM      3  N   UNL     1      33.627 -21.712 -19.486  0.00  0.00    -0.227 NA
ATOM      4  N   UNL     1      36.675 -21.970 -17.393  0.00  0.00    -0.369 NA
ATOM      5  C   UNL     1      34.923 -21.441 -19.137  0.00  0.00    +0.158 C 
ATOM      6  C   UNL     1      35.437 -22.049 -17.982  0.00  0.00    +0.187 C 
ATOM      7  C   UNL     1      34.621 -22.893 -17.244  0.00  0.00    +0.246 C 
ATOM      8  C   UNL     1      36.560 -22.753 -16.343  0.00  0.00    +0.257 C 
ATOM      9  C   UNL     1      33.309 -23.191 -17.564  0.00  0.00    +0.045 C 
ATOM     10  C   UNL     1      32.880 -22.549 -18.718  0.00  0.00    +0.100 C 
ATOM     11  H   UNL     1      36.625 -20.422 -19.623  0.00  0.00    +0.148 HD
ENDROOT
BRANCH   2  12
ATOM     12  C   UNL     1      35.223 -19.938 -21.106  0.00  0.00    +0.153 C 
BRANCH  12  15
ATOM     13  F   UNL     1      37.369 -18.974 -21.186  0.00  0.00    -0.205 F 
ATOM     14  F   UNL     1      35.721 -17.713 -20.515  0.00  0.00    -0.205 F 
ATOM     15  C   UNL     1      36.057 -18.703 -21.375  0.00  0.00    +0.265 C 
BRANCH  15  17
ATOM     16  N   UNL     1      35.385 -16.798 -22.746  0.00  0.00    +0.389 N 
ATOM     17  C   UNL     1      35.876 -18.181 -22.800  0.00  0.00    +0.003 C 
ATOM     18  C   UNL     1      34.901 -19.074 -23.580  0.00  0.00    -0.016 C 
ATOM     19  C   UNL     1      34.646 -18.523 -24.980  0.00  0.00    -0.004 C 
ATOM     20  C   UNL     1      34.221 -17.061 -24.910  0.00  0.00    -0.023 C 
ATOM     21  C   UNL     1      35.206 -16.237 -24.085  0.00  0.00    -0.081 C 
ATOM     22  H   UNL     1      36.059 -16.227 -22.236  0.00  0.00    -0.084 HD
ATOM     23  H   UNL     1      34.479 -16.800 -22.278  0.00  0.00    -0.084 HD
ENDBRANCH  15  17
ENDBRANCH  12  15
ENDBRANCH   2  12
BRANCH   8  24
ATOM     24  C   UNL     1      37.571 -23.068 -15.323  0.00  0.00    +0.127 C 
BRANCH  24  25
ATOM     25  C   UNL     1      37.004 -23.702 -14.057  0.00  0.00    +0.004 C 
ATOM     26  C   UNL     1      37.669 -24.744 -13.444  0.00  0.00    +0.072 C 
ATOM     27  C   UNL     1      35.819 -23.195 -13.564  0.00  0.00    -0.002 C 
ATOM     28  C   UNL     1      37.125 -25.304 -12.287  0.00  0.00    +0.016 C 
ATOM     29  C   UNL     1      35.275 -23.755 -12.408  0.00  0.00    -0.000 C 
ATOM     30  C   UNL     1      35.928 -24.809 -11.769  0.00  0.00    +0.001 C 
BRANCH  26  31
ATOM     31  N   UNL     1      38.858 -25.250 -13.942  0.00  0.00    -0.169 N 
ATOM     32  N   UNL     1      40.048 -24.711 -13.626  0.00  0.00    -0.150 NA
ATOM     33  N   UNL     1      40.289 -26.497 -15.034  0.00  0.00    -0.203 NA
ATOM     34  C   UNL     1      39.014 -26.313 -14.781  0.00  0.00    +0.190 C 
ATOM     35  C   UNL     1      40.879 -25.500 -14.311  0.00  0.00    +0.219 C 
ENDBRANCH  26  31
ENDBRANCH  24  25
ENDBRANCH   8  24
TORSDOF 6
ENDMDL
MODEL 6
REMARK VINA RESULT:     -10.6      6.712     12.703
REMARK  Name = 5287492
REMARK  6 active torsions:
REMARK  status: ('A' for Active; 'I' for Inactive)
REMARK    1  A    between atoms: N_2  and  C_12
REMARK    2  A    between atoms: C_8  and  C_24
REMARK    3  A    between atoms: C_12  and  C_15
REMARK    4  A    between atoms: C_15  and  C_17
REMARK    5  A    between atoms: C_24  and  C_25
REMARK    6  A    between atoms: C_26  and  N_31
REMARK                            x       y       z     vdW  Elec       q    Type
REMARK                         _______ _______ _______ _____ _____    ______ ____
ROOT
ATOM      1  O   UNL     1      34.852 -22.472 -18.786  0.00  0.00    -0.446 OA
ATOM      2  N   UNL     1      33.752 -18.576 -21.073  0.00  0.00    -0.312 N 
ATOM      3  N   UNL     1      36.051 -19.221 -20.920  0.00  0.00    -0.227 NA
ATOM      4  N   UNL     1      33.195 -21.083 -19.465  0.00  0.00    -0.369 NA
ATOM      5  C   UNL     1      34.731 -19.453 -20.637  0.00  0.00    +0.158 C 
ATOM      6  C   UNL     1      34.406 -20.598 -19.894  0.00  0.00    +0.187 C 
ATOM      7  C   UNL     1      35.423 -21.444 -19.480  0.00  0.00    +0.246 C 
ATOM      8  C   UNL     1      33.521 -22.182 -18.822  0.00  0.00    +0.257 C 
ATOM      9  C   UNL     1      36.765 -21.245 -19.746  0.00  0.00    +0.045 C 
ATOM     10  C   UNL     1      36.999 -20.093 -20.484  0.00  0.00    +0.100 C 
ATOM     11  H   UNL     1      32.815 -18.777 -20.848  0.00  0.00    +0.148 HD
ENDROOT
BRANCH   2  12
ATOM     12  C   UNL     1      34.028 -17.383 -21.839  0.00  0.00    +0.153 C 
BRANCH  12  15
ATOM     13  F   UNL     1      34.214 -15.633 -20.274  0.00  0.00    -0.205 F 
ATOM     14  F   UNL     1      32.263 -16.580 -20.502  0.00  0.00    -0.205 F 
ATOM     15  C   UNL     1      33.371 -16.191 -21.174  0.00  0.00    +0.265 C 
BRANCH  15  17
ATOM     16  N   UNL     1      34.091 -14.863 -23.092  0.00  0.00    +0.389 N 
ATOM     17  C   UNL     1      32.967 -15.115 -22.182  0.00  0.00    +0.003 C 
ATOM     18  C   UNL     1      32.555 -13.827 -21.456  0.00  0.00    -0.016 C 
ATOM     19  C   UNL     1      32.224 -12.716 -22.448  0.00  0.00    -0.004 C 
ATOM     20  C   UNL     1      33.366 -12.526 -23.440  0.00  0.00    -0.023 C 
ATOM     21  C   UNL     1      33.758 -13.849 -24.092  0.00  0.00    -0.081 C 
ATOM     22  H   UNL     1      34.332 -15.732 -23.569  0.00  0.00    -0.084 HD
ATOM     23  H   UNL     1      34.877 -14.519 -22.540  0.00  0.00    -0.084 HD
ENDBRANCH  15  17
ENDBRANCH  12  15
ENDBRANCH   2  12
BRANCH   8  24
ATOM     24  C   UNL     1      32.637 -23.137 -18.137  0.00  0.00    +0.127 C 
BRANCH  24  25
ATOM     25  C   UNL     1      32.918 -23.289 -16.646  0.00  0.00    +0.004 C 
ATOM     26  C   UNL     1      31.876 -23.441 -15.755  0.00  0.00    +0.072 C 
ATOM     27  C   UNL     1      34.236 -23.267 -16.239  0.00  0.00    -0.002 C 
ATOM     28  C   UNL     1      32.165 -23.578 -14.396  0.00  0.00    +0.016 C 
ATOM     29  C   UNL     1      34.525 -23.404 -14.881  0.00  0.00    -0.000 C 
ATOM     30  C   UNL     1      33.490 -23.559 -13.960  0.00  0.00    +0.001 C 
BRANCH  26  31
ATOM     31  N   UNL     1      30.554 -23.463 -16.166  0.00  0.00    -0.169 N 
ATOM     32  N   UNL     1      29.973 -22.399 -16.748  0.00  0.00    -0.150 NA
ATOM     33  N   UNL     1      28.512 -24.149 -16.559  0.00  0.00    -0.203 NA
ATOM     34  C   UNL     1      29.674 -24.499 -16.059  0.00  0.00    +0.190 C 
ATOM     35  C   UNL     1      28.741 -22.866 -16.965  0.00  0.00    +0.219 C 
ENDBRANCH  26  31
ENDBRANCH  24  25
ENDBRANCH   8  24
TORSDOF 6
ENDMDL
MODEL 7
REMARK VINA RESULT:     -10.5      0.895      1.237
REMARK  Name = 5287492
REMARK  6 active torsions:
REMARK  status: ('A' for Active; 'I' for Inactive)
REMARK    1  A    between atoms: N_2  and  C_12
REMARK    2  A    between atoms: C_8  and  C_24
REMARK    3  A    between atoms: C_12  and  C_15
REMARK    4  A    between atoms: C_15  and  C_17
REMARK    5  A    between atoms: C_24  and  C_25
REMARK    6  A    between atoms: C_26  and  N_31
REMARK                            x       y       z     vdW  Elec       q    Type
REMARK                         _______ _______ _______ _____ _____    ______ ____
ROOT
ATOM      1  O   UNL     1      34.561  -9.950 -25.448  0.00  0.00    -0.446 OA
ATOM      2  N   UNL     1      33.113 -13.284 -22.547  0.00  0.00    -0.312 N 
ATOM      3  N   UNL     1      33.184 -13.739 -24.896  0.00  0.00    -0.227 NA
ATOM      4  N   UNL     1      34.146 -10.536 -23.298  0.00  0.00    -0.369 NA
ATOM      5  C   UNL     1      33.381 -12.882 -23.846  0.00  0.00    +0.158 C 
ATOM      6  C   UNL     1      33.858 -11.592 -24.126  0.00  0.00    +0.187 C 
ATOM      7  C   UNL     1      34.110 -11.238 -25.443  0.00  0.00    +0.246 C 
ATOM      8  C   UNL     1      34.553  -9.602 -24.130  0.00  0.00    +0.257 C 
ATOM      9  C   UNL     1      33.924 -12.074 -26.528  0.00  0.00    +0.045 C 
ATOM     10  C   UNL     1      33.451 -13.328 -26.164  0.00  0.00    +0.100 C 
ATOM     11  H   UNL     1      33.267 -12.638 -21.821  0.00  0.00    +0.148 HD
ENDROOT
BRANCH   2  12
ATOM     12  C   UNL     1      32.621 -14.596 -22.201  0.00  0.00    +0.153 C 
BRANCH  12  15
ATOM     13  F   UNL     1      33.375 -15.492 -20.158  0.00  0.00    -0.205 F 
ATOM     14  F   UNL     1      34.875 -14.697 -21.526  0.00  0.00    -0.205 F 
ATOM     15  C   UNL     1      33.700 -15.365 -21.466  0.00  0.00    +0.265 C 
BRANCH  15  17
ATOM     16  N   UNL     1      33.842 -17.749 -20.959  0.00  0.00    +0.389 N 
ATOM     17  C   UNL     1      33.913 -16.762 -22.045  0.00  0.00    +0.003 C 
ATOM     18  C   UNL     1      35.266 -16.845 -22.766  0.00  0.00    -0.016 C 
ATOM     19  C   UNL     1      35.532 -18.256 -23.283  0.00  0.00    -0.004 C 
ATOM     20  C   UNL     1      35.368 -19.275 -22.162  0.00  0.00    -0.023 C 
ATOM     21  C   UNL     1      34.024 -19.112 -21.456  0.00  0.00    -0.081 C 
ATOM     22  H   UNL     1      32.929 -17.680 -20.510  0.00  0.00    -0.084 HD
ATOM     23  H   UNL     1      34.591 -17.548 -20.297  0.00  0.00    -0.084 HD
ENDBRANCH  15  17
ENDBRANCH  12  15
ENDBRANCH   2  12
BRANCH   8  24
ATOM     24  C   UNL     1      34.999  -8.236 -23.823  0.00  0.00    +0.127 C 
BRANCH  24  25
ATOM     25  C   UNL     1      34.021  -7.148 -24.255  0.00  0.00    +0.004 C 
ATOM     26  C   UNL     1      32.879  -6.909 -23.518  0.00  0.00    +0.072 C 
ATOM     27  C   UNL     1      34.326  -6.430 -25.393  0.00  0.00    -0.002 C 
ATOM     28  C   UNL     1      32.004  -5.907 -23.938  0.00  0.00    +0.016 C 
ATOM     29  C   UNL     1      33.450  -5.428 -25.813  0.00  0.00    -0.000 C 
ATOM     30  C   UNL     1      32.289  -5.167 -25.086  0.00  0.00    +0.001 C 
BRANCH  26  31
ATOM     31  N   UNL     1      32.577  -7.631 -22.377  0.00  0.00    -0.169 N 
ATOM     32  N   UNL     1      33.168  -7.377 -21.197  0.00  0.00    -0.150 NA
ATOM     33  N   UNL     1      31.668  -9.095 -21.025  0.00  0.00    -0.203 NA
ATOM     34  C   UNL     1      31.686  -8.657 -22.262  0.00  0.00    +0.190 C 
ATOM     35  C   UNL     1      32.584  -8.288 -20.414  0.00  0.00    +0.219 C 
ENDBRANCH  26  31
ENDBRANCH  24  25
ENDBRANCH   8  24
TORSDOF 6
ENDMDL
MODEL 8
REMARK VINA RESULT:     -10.4      3.110      9.081
REMARK  Name = 5287492
REMARK  6 active torsions:
REMARK  status: ('A' for Active; 'I' for Inactive)
REMARK    1  A    between atoms: N_2  and  C_12
REMARK    2  A    between atoms: C_8  and  C_24
REMARK    3  A    between atoms: C_12  and  C_15
REMARK    4  A    between atoms: C_15  and  C_17
REMARK    5  A    between atoms: C_24  and  C_25
REMARK    6  A    between atoms: C_26  and  N_31
REMARK                            x       y       z     vdW  Elec       q    Type
REMARK                         _______ _______ _______ _____ _____    ______ ____
ROOT
ATOM      1  O   UNL     1      33.748 -11.642 -23.864  0.00  0.00    -0.446 OA
ATOM      2  N   UNL     1      32.096  -7.900 -21.652  0.00  0.00    -0.312 N 
ATOM      3  N   UNL     1      33.899  -7.630 -23.203  0.00  0.00    -0.227 NA
ATOM      4  N   UNL     1      32.246 -10.841 -22.368  0.00  0.00    -0.369 NA
ATOM      5  C   UNL     1      32.996  -8.434 -22.560  0.00  0.00    +0.158 C 
ATOM      6  C   UNL     1      33.014  -9.808 -22.846  0.00  0.00    +0.187 C 
ATOM      7  C   UNL     1      33.934 -10.294 -23.762  0.00  0.00    +0.246 C 
ATOM      8  C   UNL     1      32.723 -11.890 -23.001  0.00  0.00    +0.257 C 
ATOM      9  C   UNL     1      34.860  -9.514 -24.431  0.00  0.00    +0.045 C 
ATOM     10  C   UNL     1      34.775  -8.171 -24.090  0.00  0.00    +0.100 C 
ATOM     11  H   UNL     1      31.464  -8.512 -21.210  0.00  0.00    +0.148 HD
ENDROOT
BRANCH   2  12
ATOM     12  C   UNL     1      32.033  -6.496 -21.318  0.00  0.00    +0.153 C 
BRANCH  12  15
ATOM     13  F   UNL     1      30.026  -5.268 -21.255  0.00  0.00    -0.205 F 
ATOM     14  F   UNL     1      30.246  -6.762 -22.828  0.00  0.00    -0.205 F 
ATOM     15  C   UNL     1      30.915  -5.839 -22.100  0.00  0.00    +0.265 C 
BRANCH  15  17
ATOM     16  N   UNL     1      30.773  -3.486 -22.736  0.00  0.00    +0.389 N 
ATOM     17  C   UNL     1      31.431  -4.760 -23.052  0.00  0.00    +0.003 C 
ATOM     18  C   UNL     1      31.168  -5.161 -24.511  0.00  0.00    -0.016 C 
ATOM     19  C   UNL     1      31.605  -4.060 -25.473  0.00  0.00    -0.004 C 
ATOM     20  C   UNL     1      30.981  -2.727 -25.079  0.00  0.00    -0.023 C 
ATOM     21  C   UNL     1      31.238  -2.408 -23.608  0.00  0.00    -0.081 C 
ATOM     22  H   UNL     1      30.976  -3.240 -21.768  0.00  0.00    -0.084 HD
ATOM     23  H   UNL     1      29.770  -3.602 -22.881  0.00  0.00    -0.084 HD
ENDBRANCH  15  17
ENDBRANCH  12  15
ENDBRANCH   2  12
BRANCH   8  24
ATOM     24  C   UNL     1      32.295 -13.293 -22.897  0.00  0.00    +0.127 C 
BRANCH  24  25
ATOM     25  C   UNL     1      32.861 -14.199 -23.985  0.00  0.00    +0.004 C 
ATOM     26  C   UNL     1      33.729 -15.220 -23.657  0.00  0.00    +0.072 C 
ATOM     27  C   UNL     1      32.472 -13.955 -25.286  0.00  0.00    -0.002 C 
ATOM     28  C   UNL     1      34.229 -16.033 -24.675  0.00  0.00    +0.016 C 
ATOM     29  C   UNL     1      32.972 -14.768 -26.304  0.00  0.00    -0.000 C 
ATOM     30  C   UNL     1      33.851 -15.807 -25.998  0.00  0.00    +0.001 C 
BRANCH  26  31
ATOM     31  N   UNL     1      34.117 -15.463 -22.350  0.00  0.00    -0.169 N 
ATOM     32  N   UNL     1      34.063 -16.692 -21.808  0.00  0.00    -0.150 NA
ATOM     33  N   UNL     1      34.856 -15.154 -20.312  0.00  0.00    -0.203 NA
ATOM     34  C   UNL     1      34.591 -14.556 -21.449  0.00  0.00    +0.190 C 
ATOM     35  C   UNL     1      34.519 -16.451 -20.577  0.00  0.00    +0.219 C 
ENDBRANCH  26  31
ENDBRANCH  24  25
ENDBRANCH   8  24
TORSDOF 6
ENDMDL
MODEL 9
REMARK VINA RESULT:     -10.3      8.855     14.666
REMARK  Name = 5287492
REMARK  6 active torsions:
REMARK  status: ('A' for Active; 'I' for Inactive)
REMARK    1  A    between atoms: N_2  and  C_12
REMARK    2  A    between atoms: C_8  and  C_24
REMARK    3  A    between atoms: C_12  and  C_15
REMARK    4  A    between atoms: C_15  and  C_17
REMARK    5  A    between atoms: C_24  and  C_25
REMARK    6  A    between atoms: C_26  and  N_31
REMARK                            x       y       z     vdW  Elec       q    Type
REMARK                         _______ _______ _______ _____ _____    ______ ____
ROOT
ATOM      1  O   UNL     1      35.260 -23.104 -15.741  0.00  0.00    -0.446 OA
ATOM      2  N   UNL     1      36.279 -20.892 -19.703  0.00  0.00    -0.312 N 
ATOM      3  N   UNL     1      34.197 -22.059 -19.528  0.00  0.00    -0.227 NA
ATOM      4  N   UNL     1      36.767 -21.838 -16.866  0.00  0.00    -0.369 NA
ATOM      5  C   UNL     1      35.388 -21.666 -18.977  0.00  0.00    +0.158 C 
ATOM      6  C   UNL     1      35.675 -22.072 -17.666  0.00  0.00    +0.187 C 
ATOM      7  C   UNL     1      34.751 -22.846 -16.982  0.00  0.00    +0.246 C 
ATOM      8  C   UNL     1      36.465 -22.468 -15.752  0.00  0.00    +0.257 C 
ATOM      9  C   UNL     1      33.539 -23.262 -17.502  0.00  0.00    +0.045 C 
ATOM     10  C   UNL     1      33.334 -22.818 -18.802  0.00  0.00    +0.100 C 
ATOM     11  H   UNL     1      37.125 -20.632 -19.272  0.00  0.00    +0.148 HD
ENDROOT
BRANCH   2  12
ATOM     12  C   UNL     1      36.036 -20.447 -21.055  0.00  0.00    +0.153 C 
BRANCH  12  15
ATOM     13  F   UNL     1      36.175 -18.278 -20.150  0.00  0.00    -0.205 F 
ATOM     14  F   UNL     1      34.192 -19.044 -20.636  0.00  0.00    -0.205 F 
ATOM     15  C   UNL     1      35.485 -19.037 -21.034  0.00  0.00    +0.265 C 
BRANCH  15  17
ATOM     16  N   UNL     1      35.102 -16.974 -22.282  0.00  0.00    +0.389 N 
ATOM     17  C   UNL     1      35.561 -18.364 -22.403  0.00  0.00    +0.003 C 
ATOM     18  C   UNL     1      34.711 -19.130 -23.426  0.00  0.00    -0.016 C 
ATOM     19  C   UNL     1      34.710 -18.428 -24.781  0.00  0.00    -0.004 C 
ATOM     20  C   UNL     1      34.315 -16.964 -24.625  0.00  0.00    -0.023 C 
ATOM     21  C   UNL     1      35.166 -16.271 -23.563  0.00  0.00    -0.081 C 
ATOM     22  H   UNL     1      35.693 -16.488 -21.608  0.00  0.00    -0.084 HD
ATOM     23  H   UNL     1      34.130 -16.986 -21.974  0.00  0.00    -0.084 HD
ENDBRANCH  15  17
ENDBRANCH  12  15
ENDBRANCH   2  12
BRANCH   8  24
ATOM     24  C   UNL     1      37.259 -22.574 -14.518  0.00  0.00    +0.127 C 
BRANCH  24  25
ATOM     25  C   UNL     1      38.079 -23.855 -14.414  0.00  0.00    +0.004 C 
ATOM     26  C   UNL     1      37.839 -24.753 -13.394  0.00  0.00    +0.072 C 
ATOM     27  C   UNL     1      39.054 -24.069 -15.367  0.00  0.00    -0.002 C 
ATOM     28  C   UNL     1      38.606 -25.916 -13.325  0.00  0.00    +0.016 C 
ATOM     29  C   UNL     1      39.821 -25.233 -15.298  0.00  0.00    -0.000 C 
ATOM     30  C   UNL     1      39.597 -26.156 -14.277  0.00  0.00    +0.001 C 
BRANCH  26  31
ATOM     31  N   UNL     1      36.861 -24.535 -12.439  0.00  0.00    -0.169 N 
ATOM     32  N   UNL     1      37.158 -24.094 -11.204  0.00  0.00    -0.150 NA
ATOM     33  N   UNL     1      34.906 -24.407 -11.459  0.00  0.00    -0.203 NA
ATOM     34  C   UNL     1      35.517 -24.718 -12.578  0.00  0.00    +0.190 C 
ATOM     35  C   UNL     1      35.943 -24.034 -10.652  0.00  0.00    +0.219 C 
ENDBRANCH  26  31
ENDBRANCH  24  25
ENDBRANCH   8  24
TORSDOF 6
ENDMDL
