MODEL 1
REMARK VINA RESULT:     -11.8      0.000      0.000
REMARK  Name = 56640146
REMARK  6 active torsions:
REMARK  status: ('A' for Active; 'I' for Inactive)
REMARK    1  A    between atoms: C_1  and  C_32
REMARK    2  A    between atoms: C_2  and  O_36
REMARK    3  A    between atoms: C_3  and  C_7
REMARK    4  A    between atoms: C_5  and  N_25
REMARK    5  A    between atoms: C_15  and  N_17
REMARK    6  A    between atoms: N_17  and  S_19
REMARK                            x       y       z     vdW  Elec       q    Type
REMARK                         _______ _______ _______ _____ _____    ______ ____
ROOT
ATOM      1  C   UNL     1      35.678 -23.877 -15.138  0.00  0.00    +0.012 C 
ATOM      2  C   UNL     1      35.895 -23.118 -16.287  0.00  0.00    +0.135 C 
ATOM      3  C   UNL     1      34.817 -22.744 -17.091  0.00  0.00    +0.035 C 
ATOM      4  C   UNL     1      34.384 -24.265 -14.792  0.00  0.00    +0.014 C 
ATOM      5  C   UNL     1      33.306 -23.892 -15.595  0.00  0.00    +0.059 C 
ATOM      6  C   UNL     1      33.523 -23.132 -16.744  0.00  0.00    +0.018 C 
ENDROOT
BRANCH   3   7
ATOM      7  C   UNL     1      35.020 -21.955 -18.286  0.00  0.00    +0.003 C 
ATOM      8  C   UNL     1      33.924 -21.424 -18.965  0.00  0.00    +0.000 C 
ATOM      9  C   UNL     1      34.105 -20.657 -20.129  0.00  0.00    +0.000 C 
ATOM     10  C   UNL     1      36.310 -21.728 -18.758  0.00  0.00    +0.000 C 
ATOM     11  C   UNL     1      35.416 -20.426 -20.608  0.00  0.00    +0.001 C 
ATOM     12  C   UNL     1      36.508 -20.969 -19.911  0.00  0.00    +0.000 C 
ATOM     13  C   UNL     1      33.012 -20.114 -20.825  0.00  0.00    +0.001 C 
ATOM     14  C   UNL     1      35.596 -19.659 -21.771  0.00  0.00    +0.016 C 
ATOM     15  C   UNL     1      34.500 -19.128 -22.451  0.00  0.00    +0.064 C 
ATOM     16  C   UNL     1      33.210 -19.355 -21.979  0.00  0.00    +0.016 C 
BRANCH  15  17
ATOM     17  N   UNL     1      34.700 -18.351 -23.631  0.00  0.00    -0.219 N 
ATOM     18  H   UNL     1      34.873 -18.784 -24.499  0.00  0.00    +0.173 HD
BRANCH  17  19
ATOM     19  S   UNL     1      34.631 -16.635 -23.498  0.00  0.00    +0.056 S 
ATOM     20  O   UNL     1      33.653 -16.293 -22.483  0.00  0.00    -0.154 OA
ATOM     21  O   UNL     1      35.962 -16.064 -23.460  0.00  0.00    -0.154 OA
ATOM     22  C   UNL     1      33.907 -16.227 -25.070  0.00  0.00    +0.200 C 
ENDBRANCH  17  19
ENDBRANCH  15  17
ENDBRANCH   3   7
BRANCH   5  25
ATOM     23  O   UNL     1      32.528 -24.977 -13.041  0.00  0.00    -0.251 OA
ATOM     24  O   UNL     1      28.149 -25.415 -14.330  0.00  0.00    -0.270 OA
ATOM     25  N   UNL     1      31.960 -24.295 -15.235  0.00  0.00    -0.220 N 
ATOM     26  N   UNL     1      30.377 -25.245 -13.736  0.00  0.00    -0.235 N 
ATOM     27  C   UNL     1      31.707 -24.856 -13.954  0.00  0.00    +0.318 C 
ATOM     28  C   UNL     1      30.906 -24.116 -16.126  0.00  0.00    +0.078 C 
ATOM     29  C   UNL     1      29.643 -24.464 -15.878  0.00  0.00    +0.075 C 
ATOM     30  C   UNL     1      29.302 -25.084 -14.589  0.00  0.00    +0.254 C 
ATOM     31  H   UNL     1      30.187 -25.684 -12.875  0.00  0.00    +0.159 HD
ENDBRANCH   5  25
BRANCH   1  32
ATOM     32  C   UNL     1      36.819 -24.287 -14.265  0.00  0.00    +0.022 C 
ATOM     33  C   UNL     1      36.486 -25.591 -13.478  0.00  0.00    +0.004 C 
ATOM     34  C   UNL     1      38.162 -24.580 -15.010  0.00  0.00    +0.004 C 
ATOM     35  C   UNL     1      37.156 -23.178 -13.220  0.00  0.00    +0.004 C 
ENDBRANCH   1  32
BRANCH   2  36
ATOM     36  O   UNL     1      37.166 -22.743 -16.617  0.00  0.00    -0.472 OA
ATOM     37  C   UNL     1      37.577 -21.438 -16.217  0.00  0.00    +0.252 C 
ENDBRANCH   2  36
TORSDOF 6
ENDMDL
MODEL 2
REMARK VINA RESULT:     -11.0      0.746      1.407
REMARK  Name = 56640146
REMARK  6 active torsions:
REMARK  status: ('A' for Active; 'I' for Inactive)
REMARK    1  A    between atoms: C_1  and  C_32
REMARK    2  A    between atoms: C_2  and  O_36
REMARK    3  A    between atoms: C_3  and  C_7
REMARK    4  A    between atoms: C_5  and  N_25
REMARK    5  A    between atoms: C_15  and  N_17
REMARK    6  A    between atoms: N_17  and  S_19
REMARK                            x       y       z     vdW  Elec       q    Type
REMARK                         _______ _______ _______ _____ _____    ______ ____
ROOT
ATOM      1  C   UNL     1      35.519 -23.666 -15.677  0.00  0.00    +0.012 C 
ATOM      2  C   UNL     1      35.568 -22.861 -16.814  0.00  0.00    +0.135 C 
ATOM      3  C   UNL     1      34.391 -22.521 -17.481  0.00  0.00    +0.035 C 
ATOM      4  C   UNL     1      34.293 -24.135 -15.206  0.00  0.00    +0.014 C 
ATOM      5  C   UNL     1      33.115 -23.797 -15.874  0.00  0.00    +0.059 C 
ATOM      6  C   UNL     1      33.164 -22.991 -17.011  0.00  0.00    +0.018 C 
ENDROOT
BRANCH   3   7
ATOM      7  C   UNL     1      34.419 -21.686 -18.662  0.00  0.00    +0.003 C 
ATOM      8  C   UNL     1      35.615 -21.100 -19.073  0.00  0.00    +0.000 C 
ATOM      9  C   UNL     1      35.658 -20.286 -20.218  0.00  0.00    +0.000 C 
ATOM     10  C   UNL     1      33.250 -21.468 -19.386  0.00  0.00    +0.000 C 
ATOM     11  C   UNL     1      34.470 -20.064 -20.953  0.00  0.00    +0.001 C 
ATOM     12  C   UNL     1      33.274 -20.662 -20.524  0.00  0.00    +0.000 C 
ATOM     13  C   UNL     1      36.855 -19.688 -20.647  0.00  0.00    +0.001 C 
ATOM     14  C   UNL     1      34.513 -19.250 -22.098  0.00  0.00    +0.016 C 
ATOM     15  C   UNL     1      35.710 -18.664 -22.509  0.00  0.00    +0.064 C 
ATOM     16  C   UNL     1      36.879 -18.882 -21.786  0.00  0.00    +0.016 C 
BRANCH  15  17
ATOM     17  N   UNL     1      35.737 -17.838 -23.674  0.00  0.00    -0.219 N 
ATOM     18  H   UNL     1      36.324 -18.055 -24.434  0.00  0.00    +0.173 HD
BRANCH  17  19
ATOM     19  S   UNL     1      34.713 -16.453 -23.713  0.00  0.00    +0.056 S 
ATOM     20  O   UNL     1      33.649 -16.642 -22.745  0.00  0.00    -0.154 OA
ATOM     21  O   UNL     1      35.493 -15.232 -23.721  0.00  0.00    -0.154 OA
ATOM     22  C   UNL     1      33.985 -16.647 -25.324  0.00  0.00    +0.200 C 
ENDBRANCH  17  19
ENDBRANCH  15  17
ENDBRANCH   3   7
BRANCH   5  25
ATOM     23  O   UNL     1      32.629 -24.784 -13.210  0.00  0.00    -0.251 OA
ATOM     24  O   UNL     1      28.217 -25.651 -14.114  0.00  0.00    -0.270 OA
ATOM     25  N   UNL     1      31.840 -24.284 -15.385  0.00  0.00    -0.220 N 
ATOM     26  N   UNL     1      30.462 -25.266 -13.713  0.00  0.00    -0.235 N 
ATOM     27  C   UNL     1      31.733 -24.785 -14.059  0.00  0.00    +0.318 C 
ATOM     28  C   UNL     1      30.709 -24.246 -16.195  0.00  0.00    +0.078 C 
ATOM     29  C   UNL     1      29.502 -24.677 -15.827  0.00  0.00    +0.075 C 
ATOM     30  C   UNL     1      29.315 -25.244 -14.484  0.00  0.00    +0.254 C 
ATOM     31  H   UNL     1      30.376 -25.666 -12.817  0.00  0.00    +0.159 HD
ENDBRANCH   5  25
BRANCH   1  32
ATOM     32  C   UNL     1      36.768 -24.039 -14.949  0.00  0.00    +0.022 C 
ATOM     33  C   UNL     1      36.796 -25.563 -14.621  0.00  0.00    +0.004 C 
ATOM     34  C   UNL     1      38.102 -23.752 -15.714  0.00  0.00    +0.004 C 
ATOM     35  C   UNL     1      36.888 -23.264 -13.600  0.00  0.00    +0.004 C 
ENDBRANCH   1  32
BRANCH   2  36
ATOM     36  O   UNL     1      36.774 -22.407 -17.266  0.00  0.00    -0.472 OA
ATOM     37  C   UNL     1      37.260 -21.193 -16.697  0.00  0.00    +0.252 C 
ENDBRANCH   2  36
TORSDOF 6
ENDMDL
MODEL 3
REMARK VINA RESULT:     -10.8      2.225      4.888
REMARK  Name = 56640146
REMARK  6 active torsions:
REMARK  status: ('A' for Active; 'I' for Inactive)
REMARK    1  A    between atoms: C_1  and  C_32
REMARK    2  A    between atoms: C_2  and  O_36
REMARK    3  A    between atoms: C_3  and  C_7
REMARK    4  A    between atoms: C_5  and  N_25
REMARK    5  A    between atoms: C_15  and  N_17
REMARK    6  A    between atoms: N_17  and  S_19
REMARK                            x       y       z     vdW  Elec       q    Type
REMARK                         _______ _______ _______ _____ _____    ______ ____
ROOT
ATOM      1  C   UNL     1      33.164 -23.892 -15.129  0.00  0.00    +0.012 C 
ATOM      2  C   UNL     1      33.168 -23.105 -16.280  0.00  0.00    +0.135 C 
ATOM      3  C   UNL     1      34.359 -22.891 -16.975  0.00  0.00    +0.035 C 
ATOM      4  C   UNL     1      34.350 -24.464 -14.670  0.00  0.00    +0.014 C 
ATOM      5  C   UNL     1      35.541 -24.250 -15.364  0.00  0.00    +0.059 C 
ATOM      6  C   UNL     1      35.545 -23.463 -16.516  0.00  0.00    +0.018 C 
ENDROOT
BRANCH   3   7
ATOM      7  C   UNL     1      34.385 -22.079 -18.172  0.00  0.00    +0.003 C 
ATOM      8  C   UNL     1      35.570 -21.462 -18.570  0.00  0.00    +0.000 C 
ATOM      9  C   UNL     1      35.611 -20.670 -19.730  0.00  0.00    +0.000 C 
ATOM     10  C   UNL     1      33.226 -21.916 -18.925  0.00  0.00    +0.000 C 
ATOM     11  C   UNL     1      34.433 -20.503 -20.495  0.00  0.00    +0.001 C 
ATOM     12  C   UNL     1      33.249 -21.133 -20.080  0.00  0.00    +0.000 C 
ATOM     13  C   UNL     1      36.796 -20.040 -20.146  0.00  0.00    +0.001 C 
ATOM     14  C   UNL     1      34.475 -19.711 -21.655  0.00  0.00    +0.016 C 
ATOM     15  C   UNL     1      35.661 -19.093 -22.053  0.00  0.00    +0.064 C 
ATOM     16  C   UNL     1      36.819 -19.258 -21.300  0.00  0.00    +0.016 C 
BRANCH  15  17
ATOM     17  N   UNL     1      35.685 -18.291 -23.233  0.00  0.00    -0.219 N 
ATOM     18  H   UNL     1      36.215 -18.562 -24.018  0.00  0.00    +0.173 HD
BRANCH  17  19
ATOM     19  S   UNL     1      34.763 -16.836 -23.248  0.00  0.00    +0.056 S 
ATOM     20  O   UNL     1      33.660 -16.982 -22.317  0.00  0.00    -0.154 OA
ATOM     21  O   UNL     1      35.627 -15.674 -23.189  0.00  0.00    -0.154 OA
ATOM     22  C   UNL     1      34.071 -16.919 -24.884  0.00  0.00    +0.200 C 
ENDBRANCH  17  19
ENDBRANCH  15  17
ENDBRANCH   3   7
BRANCH   5  25
ATOM     23  O   UNL     1      36.391 -26.952 -15.896  0.00  0.00    -0.251 OA
ATOM     24  O   UNL     1      40.257 -26.430 -13.485  0.00  0.00    -0.270 OA
ATOM     25  N   UNL     1      36.775 -24.845 -14.888  0.00  0.00    -0.220 N 
ATOM     26  N   UNL     1      38.266 -26.681 -14.635  0.00  0.00    -0.235 N 
ATOM     27  C   UNL     1      37.066 -26.205 -15.182  0.00  0.00    +0.318 C 
ATOM     28  C   UNL     1      37.691 -24.090 -14.162  0.00  0.00    +0.078 C 
ATOM     29  C   UNL     1      38.844 -24.560 -13.683  0.00  0.00    +0.075 C 
ATOM     30  C   UNL     1      39.203 -25.967 -13.912  0.00  0.00    +0.254 C 
ATOM     31  H   UNL     1      38.464 -27.634 -14.781  0.00  0.00    +0.159 HD
ENDBRANCH   5  25
BRANCH   1  32
ATOM     32  C   UNL     1      31.899 -24.133 -14.371  0.00  0.00    +0.022 C 
ATOM     33  C   UNL     1      31.269 -22.793 -13.884  0.00  0.00    +0.004 C 
ATOM     34  C   UNL     1      30.768 -24.861 -15.170  0.00  0.00    +0.004 C 
ATOM     35  C   UNL     1      32.156 -25.019 -13.113  0.00  0.00    +0.004 C 
ENDBRANCH   1  32
BRANCH   2  36
ATOM     36  O   UNL     1      32.001 -22.550 -16.720  0.00  0.00    -0.472 OA
ATOM     37  C   UNL     1      31.030 -23.440 -17.264  0.00  0.00    +0.252 C 
ENDBRANCH   2  36
TORSDOF 6
ENDMDL
MODEL 4
REMARK VINA RESULT:     -10.0      4.540     11.856
REMARK  Name = 56640146
REMARK  6 active torsions:
REMARK  status: ('A' for Active; 'I' for Inactive)
REMARK    1  A    between atoms: C_1  and  C_32
REMARK    2  A    between atoms: C_2  and  O_36
REMARK    3  A    between atoms: C_3  and  C_7
REMARK    4  A    between atoms: C_5  and  N_25
REMARK    5  A    between atoms: C_15  and  N_17
REMARK    6  A    between atoms: N_17  and  S_19
REMARK                            x       y       z     vdW  Elec       q    Type
REMARK                         _______ _______ _______ _____ _____    ______ ____
ROOT
ATOM      1  C   UNL     1      33.035 -14.149 -24.953  0.00  0.00    +0.012 C 
ATOM      2  C   UNL     1      33.478 -15.319 -24.337  0.00  0.00    +0.135 C 
ATOM      3  C   UNL     1      33.579 -15.381 -22.947  0.00  0.00    +0.035 C 
ATOM      4  C   UNL     1      32.695 -13.039 -24.180  0.00  0.00    +0.014 C 
ATOM      5  C   UNL     1      32.797 -13.100 -22.790  0.00  0.00    +0.059 C 
ATOM      6  C   UNL     1      33.239 -14.271 -22.174  0.00  0.00    +0.018 C 
ENDROOT
BRANCH   3   7
ATOM      7  C   UNL     1      34.035 -16.585 -22.287  0.00  0.00    +0.003 C 
ATOM      8  C   UNL     1      33.109 -17.494 -21.777  0.00  0.00    +0.000 C 
ATOM      9  C   UNL     1      33.537 -18.667 -21.133  0.00  0.00    +0.000 C 
ATOM     10  C   UNL     1      35.399 -16.834 -22.162  0.00  0.00    +0.000 C 
ATOM     11  C   UNL     1      34.923 -18.921 -21.006  0.00  0.00    +0.001 C 
ATOM     12  C   UNL     1      35.841 -17.994 -21.526  0.00  0.00    +0.000 C 
ATOM     13  C   UNL     1      32.618 -19.594 -20.613  0.00  0.00    +0.001 C 
ATOM     14  C   UNL     1      35.350 -20.094 -20.362  0.00  0.00    +0.016 C 
ATOM     15  C   UNL     1      34.423 -21.003 -19.852  0.00  0.00    +0.064 C 
ATOM     16  C   UNL     1      33.060 -20.754 -19.977  0.00  0.00    +0.016 C 
BRANCH  15  17
ATOM     17  N   UNL     1      34.874 -22.190 -19.199  0.00  0.00    -0.219 N 
ATOM     18  H   UNL     1      35.818 -22.467 -19.248  0.00  0.00    +0.173 HD
BRANCH  17  19
ATOM     19  S   UNL     1      33.722 -23.126 -18.324  0.00  0.00    +0.056 S 
ATOM     20  O   UNL     1      32.511 -22.341 -18.178  0.00  0.00    -0.154 OA
ATOM     21  O   UNL     1      33.664 -24.482 -18.830  0.00  0.00    -0.154 OA
ATOM     22  C   UNL     1      34.503 -23.171 -16.727  0.00  0.00    +0.200 C 
ENDBRANCH  17  19
ENDBRANCH  15  17
ENDBRANCH   3   7
BRANCH   5  25
ATOM     23  O   UNL     1      33.009 -10.355 -23.645  0.00  0.00    -0.251 OA
ATOM     24  O   UNL     1      31.438  -8.771 -19.638  0.00  0.00    -0.270 OA
ATOM     25  N   UNL     1      32.442 -11.946 -21.986  0.00  0.00    -0.220 N 
ATOM     26  N   UNL     1      32.292  -9.601 -21.620  0.00  0.00    -0.235 N 
ATOM     27  C   UNL     1      32.631 -10.636 -22.504  0.00  0.00    +0.318 C 
ATOM     28  C   UNL     1      31.898 -12.109 -20.716  0.00  0.00    +0.078 C 
ATOM     29  C   UNL     1      31.551 -11.105 -19.910  0.00  0.00    +0.075 C 
ATOM     30  C   UNL     1      31.747  -9.718 -20.356  0.00  0.00    +0.254 C 
ATOM     31  H   UNL     1      32.462  -8.684 -21.937  0.00  0.00    +0.159 HD
ENDBRANCH   5  25
BRANCH   1  32
ATOM     32  C   UNL     1      32.920 -14.064 -26.440  0.00  0.00    +0.022 C 
ATOM     33  C   UNL     1      31.955 -12.915 -26.865  0.00  0.00    +0.004 C 
ATOM     34  C   UNL     1      34.258 -13.789 -27.201  0.00  0.00    +0.004 C 
ATOM     35  C   UNL     1      32.365 -15.392 -27.039  0.00  0.00    +0.004 C 
ENDBRANCH   1  32
BRANCH   2  36
ATOM     36  O   UNL     1      33.809 -16.400 -25.103  0.00  0.00    -0.472 OA
ATOM     37  C   UNL     1      35.198 -16.658 -25.287  0.00  0.00    +0.252 C 
ENDBRANCH   2  36
TORSDOF 6
ENDMDL
MODEL 5
REMARK VINA RESULT:      -9.3     10.811     15.027
REMARK  Name = 56640146
REMARK  6 active torsions:
REMARK  status: ('A' for Active; 'I' for Inactive)
REMARK    1  A    between atoms: C_1  and  C_32
REMARK    2  A    between atoms: C_2  and  O_36
REMARK    3  A    between atoms: C_3  and  C_7
REMARK    4  A    between atoms: C_5  and  N_25
REMARK    5  A    between atoms: C_15  and  N_17
REMARK    6  A    between atoms: N_17  and  S_19
REMARK                            x       y       z     vdW  Elec       q    Type
REMARK                         _______ _______ _______ _____ _____    ______ ____
ROOT
ATOM      1  C   UNL     1      32.004 -10.928 -21.104  0.00  0.00    +0.012 C 
ATOM      2  C   UNL     1      32.011  -9.693 -21.753  0.00  0.00    +0.135 C 
ATOM      3  C   UNL     1      32.384  -9.612 -23.095  0.00  0.00    +0.035 C 
ATOM      4  C   UNL     1      32.371 -12.082 -21.796  0.00  0.00    +0.014 C 
ATOM      5  C   UNL     1      32.744 -12.001 -23.138  0.00  0.00    +0.059 C 
ATOM      6  C   UNL     1      32.750 -10.766 -23.787  0.00  0.00    +0.018 C 
ENDROOT
BRANCH   3   7
ATOM      7  C   UNL     1      32.397  -8.342 -23.787  0.00  0.00    +0.003 C 
ATOM      8  C   UNL     1      33.559  -7.906 -24.424  0.00  0.00    +0.000 C 
ATOM      9  C   UNL     1      33.587  -6.675 -25.099  0.00  0.00    +0.000 C 
ATOM     10  C   UNL     1      31.249  -7.555 -23.816  0.00  0.00    +0.000 C 
ATOM     11  C   UNL     1      32.420  -5.875 -25.129  0.00  0.00    +0.001 C 
ATOM     12  C   UNL     1      31.259  -6.329 -24.482  0.00  0.00    +0.000 C 
ATOM     13  C   UNL     1      34.748  -6.221 -25.746  0.00  0.00    +0.001 C 
ATOM     14  C   UNL     1      32.449  -4.643 -25.805  0.00  0.00    +0.016 C 
ATOM     15  C   UNL     1      33.612  -4.208 -26.441  0.00  0.00    +0.064 C 
ATOM     16  C   UNL     1      34.759  -4.995 -26.412  0.00  0.00    +0.016 C 
BRANCH  15  17
ATOM     17  N   UNL     1      33.624  -2.954 -27.122  0.00  0.00    -0.219 N 
ATOM     18  H   UNL     1      34.192  -2.213 -26.809  0.00  0.00    +0.173 HD
BRANCH  17  19
ATOM     19  S   UNL     1      32.619  -2.771 -28.510  0.00  0.00    +0.056 S 
ATOM     20  O   UNL     1      32.488  -4.064 -29.154  0.00  0.00    -0.154 OA
ATOM     21  O   UNL     1      31.445  -1.981 -28.199  0.00  0.00    -0.154 OA
ATOM     22  C   UNL     1      33.683  -1.787 -29.540  0.00  0.00    +0.200 C 
ENDBRANCH  17  19
ENDBRANCH  15  17
ENDBRANCH   3   7
BRANCH   5  25
ATOM     23  O   UNL     1      34.265 -14.185 -22.033  0.00  0.00    -0.251 OA
ATOM     24  O   UNL     1      34.162 -16.523 -25.977  0.00  0.00    -0.270 OA
ATOM     25  N   UNL     1      33.125 -13.200 -23.859  0.00  0.00    -0.220 N 
ATOM     26  N   UNL     1      34.254 -15.287 -24.024  0.00  0.00    -0.235 N 
ATOM     27  C   UNL     1      33.914 -14.193 -23.216  0.00  0.00    +0.318 C 
ATOM     28  C   UNL     1      32.707 -13.401 -25.170  0.00  0.00    +0.078 C 
ATOM     29  C   UNL     1      33.016 -14.470 -25.905  0.00  0.00    +0.075 C 
ATOM     30  C   UNL     1      33.859 -15.527 -25.327  0.00  0.00    +0.254 C 
ATOM     31  H   UNL     1      34.843 -15.964 -23.618  0.00  0.00    +0.159 HD
ENDBRANCH   5  25
BRANCH   1  32
ATOM     32  C   UNL     1      31.608 -11.036 -19.668  0.00  0.00    +0.022 C 
ATOM     33  C   UNL     1      31.885 -12.466 -19.113  0.00  0.00    +0.004 C 
ATOM     34  C   UNL     1      32.345 -10.059 -18.694  0.00  0.00    +0.004 C 
ATOM     35  C   UNL     1      30.087 -10.742 -19.479  0.00  0.00    +0.004 C 
ENDBRANCH   1  32
BRANCH   2  36
ATOM     36  O   UNL     1      31.650  -8.570 -21.066  0.00  0.00    -0.472 OA
ATOM     37  C   UNL     1      32.704  -7.712 -20.636  0.00  0.00    +0.252 C 
ENDBRANCH   2  36
TORSDOF 6
ENDMDL
MODEL 6
REMARK VINA RESULT:      -9.3      2.148      4.551
REMARK  Name = 56640146
REMARK  6 active torsions:
REMARK  status: ('A' for Active; 'I' for Inactive)
REMARK    1  A    between atoms: C_1  and  C_32
REMARK    2  A    between atoms: C_2  and  O_36
REMARK    3  A    between atoms: C_3  and  C_7
REMARK    4  A    between atoms: C_5  and  N_25
REMARK    5  A    between atoms: C_15  and  N_17
REMARK    6  A    between atoms: N_17  and  S_19
REMARK                            x       y       z     vdW  Elec       q    Type
REMARK                         _______ _______ _______ _____ _____    ______ ____
ROOT
ATOM      1  C   UNL     1      32.163 -23.880 -14.971  0.00  0.00    +0.012 C 
ATOM      2  C   UNL     1      32.462 -23.167 -16.132  0.00  0.00    +0.135 C 
ATOM      3  C   UNL     1      33.789 -23.025 -16.541  0.00  0.00    +0.035 C 
ATOM      4  C   UNL     1      33.188 -24.450 -14.217  0.00  0.00    +0.014 C 
ATOM      5  C   UNL     1      34.515 -24.307 -14.625  0.00  0.00    +0.059 C 
ATOM      6  C   UNL     1      34.815 -23.595 -15.787  0.00  0.00    +0.018 C 
ENDROOT
BRANCH   3   7
ATOM      7  C   UNL     1      34.122 -22.291 -17.742  0.00  0.00    +0.003 C 
ATOM      8  C   UNL     1      33.111 -21.724 -18.516  0.00  0.00    +0.000 C 
ATOM      9  C   UNL     1      33.419 -21.009 -19.685  0.00  0.00    +0.000 C 
ATOM     10  C   UNL     1      35.454 -22.153 -18.123  0.00  0.00    +0.000 C 
ATOM     11  C   UNL     1      34.772 -20.868 -20.074  0.00  0.00    +0.001 C 
ATOM     12  C   UNL     1      35.778 -21.445 -19.282  0.00  0.00    +0.000 C 
ATOM     13  C   UNL     1      32.413 -20.430 -20.477  0.00  0.00    +0.001 C 
ATOM     14  C   UNL     1      35.080 -20.152 -21.243  0.00  0.00    +0.016 C 
ATOM     15  C   UNL     1      34.068 -19.585 -22.017  0.00  0.00    +0.064 C 
ATOM     16  C   UNL     1      32.737 -19.723 -21.635  0.00  0.00    +0.016 C 
BRANCH  15  17
ATOM     17  N   UNL     1      34.398 -18.862 -23.203  0.00  0.00    -0.219 N 
ATOM     18  H   UNL     1      34.220 -19.242 -24.093  0.00  0.00    +0.173 HD
BRANCH  17  19
ATOM     19  S   UNL     1      35.115 -17.305 -23.033  0.00  0.00    +0.056 S 
ATOM     20  O   UNL     1      34.271 -16.502 -22.168  0.00  0.00    -0.154 OA
ATOM     21  O   UNL     1      36.538 -17.414 -22.779  0.00  0.00    -0.154 OA
ATOM     22  C   UNL     1      34.902 -16.680 -24.685  0.00  0.00    +0.200 C 
ENDBRANCH  17  19
ENDBRANCH  15  17
ENDBRANCH   3   7
BRANCH   5  25
ATOM     23  O   UNL     1      35.006 -23.790 -11.833  0.00  0.00    -0.251 OA
ATOM     24  O   UNL     1      38.625 -26.605 -11.736  0.00  0.00    -0.270 OA
ATOM     25  N   UNL     1      35.582 -24.900 -13.843  0.00  0.00    -0.220 N 
ATOM     26  N   UNL     1      36.838 -25.140 -11.837  0.00  0.00    -0.235 N 
ATOM     27  C   UNL     1      35.749 -24.534 -12.479  0.00  0.00    +0.318 C 
ATOM     28  C   UNL     1      36.434 -25.844 -14.408  0.00  0.00    +0.078 C 
ATOM     29  C   UNL     1      37.442 -26.432 -13.763  0.00  0.00    +0.075 C 
ATOM     30  C   UNL     1      37.706 -26.082 -12.359  0.00  0.00    +0.254 C 
ATOM     31  H   UNL     1      37.006 -24.864 -10.907  0.00  0.00    +0.159 HD
ENDBRANCH   5  25
BRANCH   1  32
ATOM     32  C   UNL     1      30.749 -24.043 -14.518  0.00  0.00    +0.022 C 
ATOM     33  C   UNL     1      29.926 -22.741 -14.758  0.00  0.00    +0.004 C 
ATOM     34  C   UNL     1      29.945 -25.183 -15.226  0.00  0.00    +0.004 C 
ATOM     35  C   UNL     1      30.680 -24.371 -12.994  0.00  0.00    +0.004 C 
ENDBRANCH   1  32
BRANCH   2  36
ATOM     36  O   UNL     1      31.450 -22.613 -16.862  0.00  0.00    -0.472 OA
ATOM     37  C   UNL     1      30.572 -23.515 -17.531  0.00  0.00    +0.252 C 
ENDBRANCH   2  36
TORSDOF 6
ENDMDL
MODEL 7
REMARK VINA RESULT:      -9.3      2.519      4.934
REMARK  Name = 56640146
REMARK  6 active torsions:
REMARK  status: ('A' for Active; 'I' for Inactive)
REMARK    1  A    between atoms: C_1  and  C_32
REMARK    2  A    between atoms: C_2  and  O_36
REMARK    3  A    between atoms: C_3  and  C_7
REMARK    4  A    between atoms: C_5  and  N_25
REMARK    5  A    between atoms: C_15  and  N_17
REMARK    6  A    between atoms: N_17  and  S_19
REMARK                            x       y       z     vdW  Elec       q    Type
REMARK                         _______ _______ _______ _____ _____    ______ ____
ROOT
ATOM      1  C   UNL     1      34.218 -23.897 -14.757  0.00  0.00    +0.012 C 
ATOM      2  C   UNL     1      34.181 -23.121 -15.915  0.00  0.00    +0.135 C 
ATOM      3  C   UNL     1      35.339 -22.943 -16.673  0.00  0.00    +0.035 C 
ATOM      4  C   UNL     1      35.413 -24.493 -14.354  0.00  0.00    +0.014 C 
ATOM      5  C   UNL     1      36.571 -24.314 -15.110  0.00  0.00    +0.059 C 
ATOM      6  C   UNL     1      36.534 -23.539 -16.270  0.00  0.00    +0.018 C 
ENDROOT
BRANCH   3   7
ATOM      7  C   UNL     1      35.323 -22.143 -17.878  0.00  0.00    +0.003 C 
ATOM      8  C   UNL     1      34.108 -21.779 -18.457  0.00  0.00    +0.000 C 
ATOM      9  C   UNL     1      34.077 -21.003 -19.629  0.00  0.00    +0.000 C 
ATOM     10  C   UNL     1      36.522 -21.738 -18.458  0.00  0.00    +0.000 C 
ATOM     11  C   UNL     1      35.295 -20.591 -20.218  0.00  0.00    +0.001 C 
ATOM     12  C   UNL     1      36.509 -20.967 -19.621  0.00  0.00    +0.000 C 
ATOM     13  C   UNL     1      32.862 -20.627 -20.226  0.00  0.00    +0.001 C 
ATOM     14  C   UNL     1      35.263 -19.815 -21.389  0.00  0.00    +0.016 C 
ATOM     15  C   UNL     1      34.048 -19.452 -21.969  0.00  0.00    +0.064 C 
ATOM     16  C   UNL     1      32.849 -19.856 -21.388  0.00  0.00    +0.016 C 
BRANCH  15  17
ATOM     17  N   UNL     1      34.033 -18.664 -23.159  0.00  0.00    -0.219 N 
ATOM     18  H   UNL     1      33.871 -19.077 -24.038  0.00  0.00    +0.173 HD
BRANCH  17  19
ATOM     19  S   UNL     1      34.305 -16.968 -23.016  0.00  0.00    +0.056 S 
ATOM     20  O   UNL     1      33.856 -16.327 -24.237  0.00  0.00    -0.154 OA
ATOM     21  O   UNL     1      33.867 -16.480 -21.724  0.00  0.00    -0.154 OA
ATOM     22  C   UNL     1      36.083 -16.933 -23.038  0.00  0.00    +0.200 C 
ENDBRANCH  17  19
ENDBRANCH  15  17
ENDBRANCH   3   7
BRANCH   5  25
ATOM     23  O   UNL     1      36.851 -26.132 -12.892  0.00  0.00    -0.251 OA
ATOM     24  O   UNL     1      41.359 -26.611 -13.586  0.00  0.00    -0.270 OA
ATOM     25  N   UNL     1      37.813 -24.935 -14.693  0.00  0.00    -0.220 N 
ATOM     26  N   UNL     1      39.097 -26.293 -13.222  0.00  0.00    -0.235 N 
ATOM     27  C   UNL     1      37.833 -25.785 -13.554  0.00  0.00    +0.318 C 
ATOM     28  C   UNL     1      38.986 -24.724 -15.410  0.00  0.00    +0.078 C 
ATOM     29  C   UNL     1      40.170 -25.249 -15.092  0.00  0.00    +0.075 C 
ATOM     30  C   UNL     1      40.284 -26.112 -13.906  0.00  0.00    +0.254 C 
ATOM     31  H   UNL     1      39.146 -26.843 -12.406  0.00  0.00    +0.159 HD
ENDBRANCH   5  25
BRANCH   1  32
ATOM     32  C   UNL     1      32.989 -24.101 -13.933  0.00  0.00    +0.022 C 
ATOM     33  C   UNL     1      33.351 -24.503 -12.470  0.00  0.00    +0.004 C 
ATOM     34  C   UNL     1      32.054 -22.853 -13.804  0.00  0.00    +0.004 C 
ATOM     35  C   UNL     1      32.094 -25.232 -14.525  0.00  0.00    +0.004 C 
ENDBRANCH   1  32
BRANCH   2  36
ATOM     36  O   UNL     1      33.006 -22.542 -16.300  0.00  0.00    -0.472 OA
ATOM     37  C   UNL     1      32.146 -23.320 -17.128  0.00  0.00    +0.252 C 
ENDBRANCH   2  36
TORSDOF 6
ENDMDL
