MODEL 1
REMARK VINA RESULT:     -10.5      0.000      0.000
REMARK  Name = 16086422
REMARK  11 active torsions:
REMARK  status: ('A' for Active; 'I' for Inactive)
REMARK    1  A    between atoms: C_1  and  C_19
REMARK    2  A    between atoms: C_3  and  C_7
REMARK    3  A    between atoms: C_9  and  C_13
REMARK    4  A    between atoms: C_19  and  C_20
REMARK    5  A    between atoms: C_20  and  P_21
REMARK    6  A    between atoms: C_20  and  P_27
REMARK    7  A    between atoms: C_20  and  O_33
REMARK    8  A    between atoms: P_21  and  O_23
REMARK    9  A    between atoms: P_21  and  O_25
REMARK   10  A    between atoms: P_27  and  O_29
REMARK   11  A    between atoms: P_27  and  O_31
REMARK                            x       y       z     vdW  Elec       q    Type
REMARK                         _______ _______ _______ _____ _____    ______ ____
ROOT
ATOM      1  C   UNL     1      35.174 -23.182 -15.353  0.00  0.00    -0.019 C 
ATOM      2  C   UNL     1      33.890 -23.551 -14.981  0.00  0.00    -0.004 C 
ATOM      3  C   UNL     1      32.867 -23.520 -15.928  0.00  0.00    -0.000 C 
ATOM      4  C   UNL     1      35.458 -22.783 -16.651  0.00  0.00    -0.004 C 
ATOM      5  C   UNL     1      33.138 -23.121 -17.235  0.00  0.00    -0.000 C 
ATOM      6  C   UNL     1      34.434 -22.752 -17.598  0.00  0.00    -0.000 C 
ENDROOT
BRANCH   3   7
ATOM      7  C   UNL     1      31.522 -23.902 -15.553  0.00  0.00    -0.000 C 
ATOM      8  C   UNL     1      30.429 -23.201 -16.065  0.00  0.00    -0.000 C 
ATOM      9  C   UNL     1      29.134 -23.568 -15.702  0.00  0.00    -0.000 C 
ATOM     10  C   UNL     1      31.318 -24.968 -14.678  0.00  0.00    -0.000 C 
ATOM     11  C   UNL     1      28.930 -24.635 -14.826  0.00  0.00    +0.000 C 
ATOM     12  C   UNL     1      30.022 -25.335 -14.314  0.00  0.00    -0.000 C 
BRANCH   9  13
ATOM     13  C   UNL     1      28.000 -22.843 -16.232  0.00  0.00    +0.000 C 
ATOM     14  C   UNL     1      27.860 -22.676 -17.610  0.00  0.00    +0.000 C 
ATOM     15  C   UNL     1      27.046 -22.309 -15.365  0.00  0.00    +0.000 C 
ATOM     16  C   UNL     1      26.766 -21.976 -18.121  0.00  0.00    +0.000 C 
ATOM     17  C   UNL     1      25.952 -21.610 -15.876  0.00  0.00    +0.000 C 
ATOM     18  C   UNL     1      25.813 -21.444 -17.254  0.00  0.00    +0.000 C 
ENDBRANCH   9  13
ENDBRANCH   3   7
BRANCH   1  19
ATOM     19  C   UNL     1      36.281 -23.215 -14.330  0.00  0.00    +0.077 C 
BRANCH  19  20
ATOM     20  C   UNL     1      36.788 -24.613 -13.893  0.00  0.00    +0.279 C 
BRANCH  20  21
ATOM     21  P   UNL     1      38.508 -24.799 -14.547  0.00  0.00    +0.372 P 
ATOM     22  O   UNL     1      39.584 -24.762 -13.501  0.00  0.00    -0.255 OA
BRANCH  21  23
ATOM     23  O   UNL     1      38.622 -23.658 -15.685  0.00  0.00    -0.322 OA
ATOM     24  H   UNL     1      38.424 -22.791 -15.295  0.00  0.00    +0.220 HD
ENDBRANCH  21  23
BRANCH  21  25
ATOM     25  O   UNL     1      38.424 -26.170 -15.400  0.00  0.00    -0.322 OA
ATOM     26  H   UNL     1      38.702 -26.915 -14.843  0.00  0.00    +0.220 HD
ENDBRANCH  21  25
ENDBRANCH  20  21
BRANCH  20  27
ATOM     27  P   UNL     1      36.395 -25.021 -12.158  0.00  0.00    +0.372 P 
ATOM     28  O   UNL     1      34.991 -24.715 -11.726  0.00  0.00    -0.255 OA
BRANCH  27  29
ATOM     29  O   UNL     1      36.811 -26.577 -12.025  0.00  0.00    -0.322 OA
ATOM     30  H   UNL     1      36.440 -27.076 -12.769  0.00  0.00    +0.220 HD
ENDBRANCH  27  29
BRANCH  27  31
ATOM     31  O   UNL     1      37.554 -24.263 -11.326  0.00  0.00    -0.322 OA
ATOM     32  H   UNL     1      38.244 -24.898 -11.078  0.00  0.00    +0.220 HD
ENDBRANCH  27  31
ENDBRANCH  20  27
BRANCH  20  33
ATOM     33  O   UNL     1      36.106 -25.621 -14.640  0.00  0.00    -0.366 OA
ATOM     34  H   UNL     1      36.398 -25.593 -15.565  0.00  0.00    +0.212 HD
ENDBRANCH  20  33
ENDBRANCH  19  20
ENDBRANCH   1  19
TORSDOF 11
ENDMDL
MODEL 2
REMARK VINA RESULT:     -10.1      3.975      6.434
REMARK  Name = 16086422
REMARK  11 active torsions:
REMARK  status: ('A' for Active; 'I' for Inactive)
REMARK    1  A    between atoms: C_1  and  C_19
REMARK    2  A    between atoms: C_3  and  C_7
REMARK    3  A    between atoms: C_9  and  C_13
REMARK    4  A    between atoms: C_19  and  C_20
REMARK    5  A    between atoms: C_20  and  P_21
REMARK    6  A    between atoms: C_20  and  P_27
REMARK    7  A    between atoms: C_20  and  O_33
REMARK    8  A    between atoms: P_21  and  O_23
REMARK    9  A    between atoms: P_21  and  O_25
REMARK   10  A    between atoms: P_27  and  O_29
REMARK   11  A    between atoms: P_27  and  O_31
REMARK                            x       y       z     vdW  Elec       q    Type
REMARK                         _______ _______ _______ _____ _____    ______ ____
ROOT
ATOM      1  C   UNL     1      36.162 -23.238 -15.812  0.00  0.00    -0.019 C 
ATOM      2  C   UNL     1      35.250 -22.796 -16.760  0.00  0.00    -0.004 C 
ATOM      3  C   UNL     1      35.689 -21.979 -17.802  0.00  0.00    -0.000 C 
ATOM      4  C   UNL     1      37.500 -22.882 -15.883  0.00  0.00    -0.004 C 
ATOM      5  C   UNL     1      37.031 -21.614 -17.885  0.00  0.00    -0.000 C 
ATOM      6  C   UNL     1      37.938 -22.065 -16.926  0.00  0.00    -0.000 C 
ENDROOT
BRANCH   3   7
ATOM      7  C   UNL     1      34.749 -21.510 -18.798  0.00  0.00    -0.000 C 
ATOM      8  C   UNL     1      35.131 -20.524 -19.708  0.00  0.00    -0.000 C 
ATOM      9  C   UNL     1      34.225 -20.070 -20.666  0.00  0.00    -0.000 C 
ATOM     10  C   UNL     1      33.461 -22.041 -18.845  0.00  0.00    -0.000 C 
ATOM     11  C   UNL     1      32.936 -20.603 -20.714  0.00  0.00    +0.000 C 
ATOM     12  C   UNL     1      32.554 -21.588 -19.804  0.00  0.00    -0.000 C 
BRANCH   9  13
ATOM     13  C   UNL     1      34.619 -19.048 -21.610  0.00  0.00    +0.000 C 
ATOM     14  C   UNL     1      34.735 -17.722 -21.195  0.00  0.00    +0.000 C 
ATOM     15  C   UNL     1      34.882 -19.389 -22.938  0.00  0.00    +0.000 C 
ATOM     16  C   UNL     1      35.115 -16.736 -22.106  0.00  0.00    +0.000 C 
ATOM     17  C   UNL     1      35.262 -18.403 -23.849  0.00  0.00    +0.000 C 
ATOM     18  C   UNL     1      35.378 -17.076 -23.432  0.00  0.00    +0.000 C 
ENDBRANCH   9  13
ENDBRANCH   3   7
BRANCH   1  19
ATOM     19  C   UNL     1      35.689 -24.121 -14.685  0.00  0.00    +0.077 C 
BRANCH  19  20
ATOM     20  C   UNL     1      36.781 -24.744 -13.780  0.00  0.00    +0.279 C 
BRANCH  20  21
ATOM     21  P   UNL     1      36.339 -24.336 -12.030  0.00  0.00    +0.372 P 
ATOM     22  O   UNL     1      35.079 -24.982 -11.534  0.00  0.00    -0.255 OA
BRANCH  21  23
ATOM     23  O   UNL     1      36.340 -22.721 -11.992  0.00  0.00    -0.322 OA
ATOM     24  H   UNL     1      37.240 -22.394 -12.151  0.00  0.00    +0.220 HD
ENDBRANCH  21  23
BRANCH  21  25
ATOM     25  O   UNL     1      37.680 -24.730 -11.218  0.00  0.00    -0.322 OA
ATOM     26  H   UNL     1      37.878 -24.040 -10.566  0.00  0.00    +0.220 HD
ENDBRANCH  21  25
ENDBRANCH  20  21
BRANCH  20  27
ATOM     27  P   UNL     1      37.240 -26.446 -14.257  0.00  0.00    +0.372 P 
ATOM     28  O   UNL     1      38.631 -26.610 -14.796  0.00  0.00    -0.255 OA
BRANCH  27  29
ATOM     29  O   UNL     1      36.931 -27.315 -12.930  0.00  0.00    -0.322 OA
ATOM     30  H   UNL     1      37.586 -27.106 -12.247  0.00  0.00    +0.220 HD
ENDBRANCH  27  29
BRANCH  27  31
ATOM     31  O   UNL     1      36.054 -26.883 -15.263  0.00  0.00    -0.322 OA
ATOM     32  H   UNL     1      35.321 -27.263 -14.754  0.00  0.00    +0.220 HD
ENDBRANCH  27  31
ENDBRANCH  20  27
BRANCH  20  33
ATOM     33  O   UNL     1      37.998 -24.012 -13.928  0.00  0.00    -0.366 OA
ATOM     34  H   UNL     1      37.825 -23.066 -13.795  0.00  0.00    +0.212 HD
ENDBRANCH  20  33
ENDBRANCH  19  20
ENDBRANCH   1  19
TORSDOF 11
ENDMDL
MODEL 3
REMARK VINA RESULT:      -9.9     12.887     14.774
REMARK  Name = 16086422
REMARK  11 active torsions:
REMARK  status: ('A' for Active; 'I' for Inactive)
REMARK    1  A    between atoms: C_1  and  C_19
REMARK    2  A    between atoms: C_3  and  C_7
REMARK    3  A    between atoms: C_9  and  C_13
REMARK    4  A    between atoms: C_19  and  C_20
REMARK    5  A    between atoms: C_20  and  P_21
REMARK    6  A    between atoms: C_20  and  P_27
REMARK    7  A    between atoms: C_20  and  O_33
REMARK    8  A    between atoms: P_21  and  O_23
REMARK    9  A    between atoms: P_21  and  O_25
REMARK   10  A    between atoms: P_27  and  O_29
REMARK   11  A    between atoms: P_27  and  O_31
REMARK                            x       y       z     vdW  Elec       q    Type
REMARK                         _______ _______ _______ _____ _____    ______ ____
ROOT
ATOM      1  C   UNL     1      33.328 -14.743 -24.522  0.00  0.00    -0.019 C 
ATOM      2  C   UNL     1      33.657 -13.434 -24.204  0.00  0.00    -0.004 C 
ATOM      3  C   UNL     1      33.772 -12.491 -25.225  0.00  0.00    -0.000 C 
ATOM      4  C   UNL     1      33.110 -15.131 -25.835  0.00  0.00    -0.004 C 
ATOM      5  C   UNL     1      33.556 -12.867 -26.550  0.00  0.00    -0.000 C 
ATOM      6  C   UNL     1      33.225 -14.187 -26.856  0.00  0.00    -0.000 C 
ENDROOT
BRANCH   3   7
ATOM      7  C   UNL     1      34.116 -11.121 -24.910  0.00  0.00    -0.000 C 
ATOM      8  C   UNL     1      33.450 -10.453 -23.882  0.00  0.00    -0.000 C 
ATOM      9  C   UNL     1      33.781  -9.133 -23.579  0.00  0.00    -0.000 C 
ATOM     10  C   UNL     1      35.113 -10.468 -25.634  0.00  0.00    -0.000 C 
ATOM     11  C   UNL     1      34.779  -8.480 -24.304  0.00  0.00    +0.000 C 
ATOM     12  C   UNL     1      35.445  -9.147 -25.332  0.00  0.00    -0.000 C 
BRANCH   9  13
ATOM     13  C   UNL     1      33.092  -8.438 -22.514  0.00  0.00    +0.000 C 
ATOM     14  C   UNL     1      32.546  -9.157 -21.450  0.00  0.00    +0.000 C 
ATOM     15  C   UNL     1      32.972  -7.048 -22.551  0.00  0.00    +0.000 C 
ATOM     16  C   UNL     1      31.881  -8.487 -20.423  0.00  0.00    +0.000 C 
ATOM     17  C   UNL     1      32.307  -6.378 -21.524  0.00  0.00    +0.000 C 
ATOM     18  C   UNL     1      31.761  -7.098 -20.460  0.00  0.00    +0.000 C 
ENDBRANCH   9  13
ENDBRANCH   3   7
BRANCH   1  19
ATOM     19  C   UNL     1      33.203 -15.764 -23.418  0.00  0.00    +0.077 C 
BRANCH  19  20
ATOM     20  C   UNL     1      34.520 -16.384 -22.887  0.00  0.00    +0.279 C 
BRANCH  20  21
ATOM     21  P   UNL     1      34.568 -16.084 -21.062  0.00  0.00    +0.372 P 
ATOM     22  O   UNL     1      34.984 -14.698 -20.665  0.00  0.00    -0.255 OA
BRANCH  21  23
ATOM     23  O   UNL     1      35.509 -17.269 -20.494  0.00  0.00    -0.322 OA
ATOM     24  H   UNL     1      35.124 -18.128 -20.731  0.00  0.00    +0.220 HD
ENDBRANCH  21  23
BRANCH  21  25
ATOM     25  O   UNL     1      33.087 -16.521 -20.585  0.00  0.00    -0.322 OA
ATOM     26  H   UNL     1      33.143 -16.972 -19.728  0.00  0.00    +0.220 HD
ENDBRANCH  21  25
ENDBRANCH  20  21
BRANCH  20  27
ATOM     27  P   UNL     1      34.877 -18.037 -23.575  0.00  0.00    +0.372 P 
ATOM     28  O   UNL     1      34.509 -18.227 -25.017  0.00  0.00    -0.255 OA
BRANCH  27  29
ATOM     29  O   UNL     1      36.445 -18.258 -23.251  0.00  0.00    -0.322 OA
ATOM     30  H   UNL     1      36.738 -17.599 -22.603  0.00  0.00    +0.220 HD
ENDBRANCH  27  29
BRANCH  27  31
ATOM     31  O   UNL     1      34.147 -19.037 -22.537  0.00  0.00    -0.322 OA
ATOM     32  H   UNL     1      33.255 -19.242 -22.858  0.00  0.00    +0.220 HD
ENDBRANCH  27  31
ENDBRANCH  20  27
BRANCH  20  33
ATOM     33  O   UNL     1      35.627 -15.592 -23.319  0.00  0.00    -0.366 OA
ATOM     34  H   UNL     1      36.286 -16.162 -23.745  0.00  0.00    +0.212 HD
ENDBRANCH  20  33
ENDBRANCH  19  20
ENDBRANCH   1  19
TORSDOF 11
ENDMDL
MODEL 4
REMARK VINA RESULT:      -9.8      4.667      7.470
REMARK  Name = 16086422
REMARK  11 active torsions:
REMARK  status: ('A' for Active; 'I' for Inactive)
REMARK    1  A    between atoms: C_1  and  C_19
REMARK    2  A    between atoms: C_3  and  C_7
REMARK    3  A    between atoms: C_9  and  C_13
REMARK    4  A    between atoms: C_19  and  C_20
REMARK    5  A    between atoms: C_20  and  P_21
REMARK    6  A    between atoms: C_20  and  P_27
REMARK    7  A    between atoms: C_20  and  O_33
REMARK    8  A    between atoms: P_21  and  O_23
REMARK    9  A    between atoms: P_21  and  O_25
REMARK   10  A    between atoms: P_27  and  O_29
REMARK   11  A    between atoms: P_27  and  O_31
REMARK                            x       y       z     vdW  Elec       q    Type
REMARK                         _______ _______ _______ _____ _____    ______ ____
ROOT
ATOM      1  C   UNL     1      34.127 -23.040 -17.459  0.00  0.00    -0.019 C 
ATOM      2  C   UNL     1      34.989 -22.285 -18.241  0.00  0.00    -0.004 C 
ATOM      3  C   UNL     1      34.462 -21.386 -19.168  0.00  0.00    -0.000 C 
ATOM      4  C   UNL     1      32.752 -22.916 -17.582  0.00  0.00    -0.004 C 
ATOM      5  C   UNL     1      33.081 -21.252 -19.302  0.00  0.00    -0.000 C 
ATOM      6  C   UNL     1      32.225 -22.016 -18.509  0.00  0.00    -0.000 C 
ENDROOT
BRANCH   3   7
ATOM      7  C   UNL     1      35.349 -20.592 -19.992  0.00  0.00    -0.000 C 
ATOM      8  C   UNL     1      34.835 -19.850 -21.056  0.00  0.00    -0.000 C 
ATOM      9  C   UNL     1      35.690 -19.088 -21.850  0.00  0.00    -0.000 C 
ATOM     10  C   UNL     1      36.717 -20.571 -19.723  0.00  0.00    -0.000 C 
ATOM     11  C   UNL     1      37.059 -19.066 -21.582  0.00  0.00    +0.000 C 
ATOM     12  C   UNL     1      37.572 -19.808 -20.518  0.00  0.00    -0.000 C 
BRANCH   9  13
ATOM     13  C   UNL     1      35.159 -18.318 -22.954  0.00  0.00    +0.000 C 
ATOM     14  C   UNL     1      34.699 -18.966 -24.100  0.00  0.00    +0.000 C 
ATOM     15  C   UNL     1      35.110 -16.925 -22.874  0.00  0.00    +0.000 C 
ATOM     16  C   UNL     1      34.188 -18.224 -25.165  0.00  0.00    +0.000 C 
ATOM     17  C   UNL     1      34.599 -16.183 -23.939  0.00  0.00    +0.000 C 
ATOM     18  C   UNL     1      34.138 -16.833 -25.084  0.00  0.00    +0.000 C 
ENDBRANCH   9  13
ENDBRANCH   3   7
BRANCH   1  19
ATOM     19  C   UNL     1      34.697 -24.012 -16.457  0.00  0.00    +0.077 C 
BRANCH  19  20
ATOM     20  C   UNL     1      35.301 -23.410 -15.164  0.00  0.00    +0.279 C 
BRANCH  20  21
ATOM     21  P   UNL     1      34.536 -24.303 -13.735  0.00  0.00    +0.372 P 
ATOM     22  O   UNL     1      33.113 -24.726 -13.950  0.00  0.00    -0.255 OA
BRANCH  21  23
ATOM     23  O   UNL     1      34.773 -23.312 -12.481  0.00  0.00    -0.322 OA
ATOM     24  H   UNL     1      34.831 -22.396 -12.798  0.00  0.00    +0.220 HD
ENDBRANCH  21  23
BRANCH  21  25
ATOM     25  O   UNL     1      35.579 -25.508 -13.462  0.00  0.00    -0.322 OA
ATOM     26  H   UNL     1      36.184 -25.589 -14.216  0.00  0.00    +0.220 HD
ENDBRANCH  21  25
ENDBRANCH  20  21
BRANCH  20  27
ATOM     27  P   UNL     1      37.107 -23.157 -15.252  0.00  0.00    +0.372 P 
ATOM     28  O   UNL     1      37.556 -22.017 -16.118  0.00  0.00    -0.255 OA
BRANCH  27  29
ATOM     29  O   UNL     1      37.555 -23.036 -13.704  0.00  0.00    -0.322 OA
ATOM     30  H   UNL     1      38.043 -22.208 -13.572  0.00  0.00    +0.220 HD
ENDBRANCH  27  29
BRANCH  27  31
ATOM     31  O   UNL     1      37.666 -24.611 -15.680  0.00  0.00    -0.322 OA
ATOM     32  H   UNL     1      37.566 -25.228 -14.938  0.00  0.00    +0.220 HD
ENDBRANCH  27  31
ENDBRANCH  20  27
BRANCH  20  33
ATOM     33  O   UNL     1      34.785 -22.093 -14.965  0.00  0.00    -0.366 OA
ATOM     34  H   UNL     1      34.181 -22.093 -14.206  0.00  0.00    +0.212 HD
ENDBRANCH  20  33
ENDBRANCH  19  20
ENDBRANCH   1  19
TORSDOF 11
ENDMDL
MODEL 5
REMARK VINA RESULT:      -9.7      4.079      6.616
REMARK  Name = 16086422
REMARK  11 active torsions:
REMARK  status: ('A' for Active; 'I' for Inactive)
REMARK    1  A    between atoms: C_1  and  C_19
REMARK    2  A    between atoms: C_3  and  C_7
REMARK    3  A    between atoms: C_9  and  C_13
REMARK    4  A    between atoms: C_19  and  C_20
REMARK    5  A    between atoms: C_20  and  P_21
REMARK    6  A    between atoms: C_20  and  P_27
REMARK    7  A    between atoms: C_20  and  O_33
REMARK    8  A    between atoms: P_21  and  O_23
REMARK    9  A    between atoms: P_21  and  O_25
REMARK   10  A    between atoms: P_27  and  O_29
REMARK   11  A    between atoms: P_27  and  O_31
REMARK                            x       y       z     vdW  Elec       q    Type
REMARK                         _______ _______ _______ _____ _____    ______ ____
ROOT
ATOM      1  C   UNL     1      35.971 -23.428 -16.161  0.00  0.00    -0.019 C 
ATOM      2  C   UNL     1      35.086 -22.931 -17.107  0.00  0.00    -0.004 C 
ATOM      3  C   UNL     1      35.519 -21.951 -18.001  0.00  0.00    -0.000 C 
ATOM      4  C   UNL     1      37.277 -22.968 -16.089  0.00  0.00    -0.004 C 
ATOM      5  C   UNL     1      36.830 -21.480 -17.938  0.00  0.00    -0.000 C 
ATOM      6  C   UNL     1      37.709 -21.988 -16.982  0.00  0.00    -0.000 C 
ENDROOT
BRANCH   3   7
ATOM      7  C   UNL     1      34.607 -21.422 -18.992  0.00  0.00    -0.000 C 
ATOM      8  C   UNL     1      35.038 -20.438 -19.882  0.00  0.00    -0.000 C 
ATOM      9  C   UNL     1      34.159 -19.927 -20.836  0.00  0.00    -0.000 C 
ATOM     10  C   UNL     1      33.296 -21.895 -19.056  0.00  0.00    -0.000 C 
ATOM     11  C   UNL     1      32.847 -20.401 -20.900  0.00  0.00    +0.000 C 
ATOM     12  C   UNL     1      32.416 -21.384 -20.011  0.00  0.00    -0.000 C 
BRANCH   9  13
ATOM     13  C   UNL     1      34.603 -18.907 -21.760  0.00  0.00    +0.000 C 
ATOM     14  C   UNL     1      34.878 -19.238 -23.087  0.00  0.00    +0.000 C 
ATOM     15  C   UNL     1      34.758 -17.591 -21.323  0.00  0.00    +0.000 C 
ATOM     16  C   UNL     1      35.307 -18.254 -23.978  0.00  0.00    +0.000 C 
ATOM     17  C   UNL     1      35.188 -16.607 -22.214  0.00  0.00    +0.000 C 
ATOM     18  C   UNL     1      35.461 -16.939 -23.542  0.00  0.00    +0.000 C 
ENDBRANCH   9  13
ENDBRANCH   3   7
BRANCH   1  19
ATOM     19  C   UNL     1      35.504 -24.487 -15.195  0.00  0.00    +0.077 C 
BRANCH  19  20
ATOM     20  C   UNL     1      35.019 -24.003 -13.806  0.00  0.00    +0.279 C 
BRANCH  20  21
ATOM     21  P   UNL     1      33.170 -24.036 -13.831  0.00  0.00    +0.372 P 
ATOM     22  O   UNL     1      32.554 -23.728 -15.165  0.00  0.00    -0.255 OA
BRANCH  21  23
ATOM     23  O   UNL     1      32.743 -23.036 -12.635  0.00  0.00    -0.322 OA
ATOM     24  H   UNL     1      32.069 -23.462 -12.082  0.00  0.00    +0.220 HD
ENDBRANCH  21  23
BRANCH  21  25
ATOM     25  O   UNL     1      32.826 -25.499 -13.235  0.00  0.00    -0.322 OA
ATOM     26  H   UNL     1      31.880 -25.550 -13.030  0.00  0.00    +0.220 HD
ENDBRANCH  21  25
ENDBRANCH  20  21
BRANCH  20  27
ATOM     27  P   UNL     1      35.951 -24.729 -12.414  0.00  0.00    +0.372 P 
ATOM     28  O   UNL     1      37.092 -23.901 -11.901  0.00  0.00    -0.255 OA
BRANCH  27  29
ATOM     29  O   UNL     1      34.811 -25.049 -11.313  0.00  0.00    -0.322 OA
ATOM     30  H   UNL     1      34.827 -24.368 -10.624  0.00  0.00    +0.220 HD
ENDBRANCH  27  29
BRANCH  27  31
ATOM     31  O   UNL     1      36.352 -26.196 -12.960  0.00  0.00    -0.322 OA
ATOM     32  H   UNL     1      35.668 -26.512 -13.571  0.00  0.00    +0.220 HD
ENDBRANCH  27  31
ENDBRANCH  20  27
BRANCH  20  33
ATOM     33  O   UNL     1      35.261 -22.601 -13.680  0.00  0.00    -0.366 OA
ATOM     34  H   UNL     1      35.090 -22.165 -14.529  0.00  0.00    +0.212 HD
ENDBRANCH  20  33
ENDBRANCH  19  20
ENDBRANCH   1  19
TORSDOF 11
ENDMDL
MODEL 6
REMARK VINA RESULT:      -9.7     14.824     16.381
REMARK  Name = 16086422
REMARK  11 active torsions:
REMARK  status: ('A' for Active; 'I' for Inactive)
REMARK    1  A    between atoms: C_1  and  C_19
REMARK    2  A    between atoms: C_3  and  C_7
REMARK    3  A    between atoms: C_9  and  C_13
REMARK    4  A    between atoms: C_19  and  C_20
REMARK    5  A    between atoms: C_20  and  P_21
REMARK    6  A    between atoms: C_20  and  P_27
REMARK    7  A    between atoms: C_20  and  O_33
REMARK    8  A    between atoms: P_21  and  O_23
REMARK    9  A    between atoms: P_21  and  O_25
REMARK   10  A    between atoms: P_27  and  O_29
REMARK   11  A    between atoms: P_27  and  O_31
REMARK                            x       y       z     vdW  Elec       q    Type
REMARK                         _______ _______ _______ _____ _____    ______ ____
ROOT
ATOM      1  C   UNL     1      33.115 -12.450 -23.692  0.00  0.00    -0.019 C 
ATOM      2  C   UNL     1      32.701 -11.300 -23.035  0.00  0.00    -0.004 C 
ATOM      3  C   UNL     1      33.135 -10.056 -23.492  0.00  0.00    -0.000 C 
ATOM      4  C   UNL     1      33.953 -12.383 -24.795  0.00  0.00    -0.004 C 
ATOM      5  C   UNL     1      33.978  -9.975 -24.600  0.00  0.00    -0.000 C 
ATOM      6  C   UNL     1      34.387 -11.139 -25.252  0.00  0.00    -0.000 C 
ENDROOT
BRANCH   3   7
ATOM      7  C   UNL     1      32.712  -8.849 -22.815  0.00  0.00    -0.000 C 
ATOM      8  C   UNL     1      32.495  -7.680 -23.545  0.00  0.00    -0.000 C 
ATOM      9  C   UNL     1      32.089  -6.516 -22.893  0.00  0.00    -0.000 C 
ATOM     10  C   UNL     1      32.524  -8.854 -21.434  0.00  0.00    -0.000 C 
ATOM     11  C   UNL     1      31.901  -6.521 -21.510  0.00  0.00    +0.000 C 
ATOM     12  C   UNL     1      32.118  -7.690 -20.781  0.00  0.00    -0.000 C 
BRANCH   9  13
ATOM     13  C   UNL     1      31.864  -5.303 -23.647  0.00  0.00    +0.000 C 
ATOM     14  C   UNL     1      32.176  -5.257 -25.006  0.00  0.00    +0.000 C 
ATOM     15  C   UNL     1      31.335  -4.177 -23.015  0.00  0.00    +0.000 C 
ATOM     16  C   UNL     1      31.959  -4.087 -25.734  0.00  0.00    +0.000 C 
ATOM     17  C   UNL     1      31.118  -3.006 -23.743  0.00  0.00    +0.000 C 
ATOM     18  C   UNL     1      31.430  -2.962 -25.102  0.00  0.00    +0.000 C 
ENDBRANCH   9  13
ENDBRANCH   3   7
BRANCH   1  19
ATOM     19  C   UNL     1      32.646 -13.795 -23.199  0.00  0.00    +0.077 C 
BRANCH  19  20
ATOM     20  C   UNL     1      33.719 -14.728 -22.585  0.00  0.00    +0.279 C 
BRANCH  20  21
ATOM     21  P   UNL     1      33.197 -15.094 -20.848  0.00  0.00    +0.372 P 
ATOM     22  O   UNL     1      32.186 -16.195 -20.716  0.00  0.00    -0.255 OA
BRANCH  21  23
ATOM     23  O   UNL     1      32.725 -13.660 -20.271  0.00  0.00    -0.322 OA
ATOM     24  H   UNL     1      31.994 -13.319 -20.810  0.00  0.00    +0.220 HD
ENDBRANCH  21  23
BRANCH  21  25
ATOM     25  O   UNL     1      34.603 -15.356 -20.095  0.00  0.00    -0.322 OA
ATOM     26  H   UNL     1      35.062 -14.511 -19.964  0.00  0.00    +0.220 HD
ENDBRANCH  21  25
ENDBRANCH  20  21
BRANCH  20  27
ATOM     27  P   UNL     1      34.247 -16.069 -23.706  0.00  0.00    +0.372 P 
ATOM     28  O   UNL     1      33.651 -16.030 -25.082  0.00  0.00    -0.255 OA
BRANCH  27  29
ATOM     29  O   UNL     1      35.861 -15.983 -23.676  0.00  0.00    -0.322 OA
ATOM     30  H   UNL     1      36.143 -15.475 -22.900  0.00  0.00    +0.220 HD
ENDBRANCH  27  29
BRANCH  27  31
ATOM     31  O   UNL     1      33.938 -17.408 -22.856  0.00  0.00    -0.322 OA
ATOM     32  H   UNL     1      33.474 -18.048 -23.418  0.00  0.00    +0.220 HD
ENDBRANCH  27  31
ENDBRANCH  20  27
BRANCH  20  33
ATOM     33  O   UNL     1      34.918 -13.988 -22.355  0.00  0.00    -0.366 OA
ATOM     34  H   UNL     1      35.386 -13.860 -23.195  0.00  0.00    +0.212 HD
ENDBRANCH  20  33
ENDBRANCH  19  20
ENDBRANCH   1  19
TORSDOF 11
ENDMDL
MODEL 7
REMARK VINA RESULT:      -9.4      7.789     10.466
REMARK  Name = 16086422
REMARK  11 active torsions:
REMARK  status: ('A' for Active; 'I' for Inactive)
REMARK    1  A    between atoms: C_1  and  C_19
REMARK    2  A    between atoms: C_3  and  C_7
REMARK    3  A    between atoms: C_9  and  C_13
REMARK    4  A    between atoms: C_19  and  C_20
REMARK    5  A    between atoms: C_20  and  P_21
REMARK    6  A    between atoms: C_20  and  P_27
REMARK    7  A    between atoms: C_20  and  O_33
REMARK    8  A    between atoms: P_21  and  O_23
REMARK    9  A    between atoms: P_21  and  O_25
REMARK   10  A    between atoms: P_27  and  O_29
REMARK   11  A    between atoms: P_27  and  O_31
REMARK                            x       y       z     vdW  Elec       q    Type
REMARK                         _______ _______ _______ _____ _____    ______ ____
ROOT
ATOM      1  C   UNL     1      35.172 -18.927 -21.966  0.00  0.00    -0.019 C 
ATOM      2  C   UNL     1      34.589 -19.792 -21.051  0.00  0.00    -0.004 C 
ATOM      3  C   UNL     1      35.395 -20.453 -20.125  0.00  0.00    -0.000 C 
ATOM      4  C   UNL     1      36.541 -18.708 -21.975  0.00  0.00    -0.004 C 
ATOM      5  C   UNL     1      36.773 -20.243 -20.124  0.00  0.00    -0.000 C 
ATOM      6  C   UNL     1      37.346 -19.370 -21.048  0.00  0.00    -0.000 C 
ENDROOT
BRANCH   3   7
ATOM      7  C   UNL     1      34.801 -21.360 -19.166  0.00  0.00    -0.000 C 
ATOM      8  C   UNL     1      35.576 -21.891 -18.135  0.00  0.00    -0.000 C 
ATOM      9  C   UNL     1      35.004 -22.765 -17.212  0.00  0.00    -0.000 C 
ATOM     10  C   UNL     1      33.453 -21.704 -19.274  0.00  0.00    -0.000 C 
ATOM     11  C   UNL     1      33.655 -23.110 -17.320  0.00  0.00    +0.000 C 
ATOM     12  C   UNL     1      32.881 -22.579 -18.351  0.00  0.00    -0.000 C 
BRANCH   9  13
ATOM     13  C   UNL     1      35.806 -23.317 -16.142  0.00  0.00    +0.000 C 
ATOM     14  C   UNL     1      35.245 -24.232 -15.250  0.00  0.00    +0.000 C 
ATOM     15  C   UNL     1      37.140 -22.935 -16.002  0.00  0.00    +0.000 C 
ATOM     16  C   UNL     1      36.018 -24.764 -14.218  0.00  0.00    +0.000 C 
ATOM     17  C   UNL     1      37.914 -23.467 -14.970  0.00  0.00    +0.000 C 
ATOM     18  C   UNL     1      37.352 -24.382 -14.078  0.00  0.00    +0.000 C 
ENDBRANCH   9  13
ENDBRANCH   3   7
BRANCH   1  19
ATOM     19  C   UNL     1      34.301 -18.211 -22.967  0.00  0.00    +0.077 C 
BRANCH  19  20
ATOM     20  C   UNL     1      34.686 -16.750 -23.312  0.00  0.00    +0.279 C 
BRANCH  20  21
ATOM     21  P   UNL     1      34.134 -16.434 -25.048  0.00  0.00    +0.372 P 
ATOM     22  O   UNL     1      33.208 -15.263 -25.208  0.00  0.00    -0.255 OA
BRANCH  21  23
ATOM     23  O   UNL     1      33.531 -17.852 -25.533  0.00  0.00    -0.322 OA
ATOM     24  H   UNL     1      32.609 -17.928 -25.243  0.00  0.00    +0.220 HD
ENDBRANCH  21  23
BRANCH  21  25
ATOM     25  O   UNL     1      35.529 -16.323 -25.857  0.00  0.00    -0.322 OA
ATOM     26  H   UNL     1      36.266 -16.289 -25.228  0.00  0.00    +0.220 HD
ENDBRANCH  21  25
ENDBRANCH  20  21
BRANCH  20  27
ATOM     27  P   UNL     1      34.309 -15.563 -21.977  0.00  0.00    +0.372 P 
ATOM     28  O   UNL     1      34.917 -15.879 -20.643  0.00  0.00    -0.255 OA
BRANCH  27  29
ATOM     29  O   UNL     1      34.756 -14.137 -22.593  0.00  0.00    -0.322 OA
ATOM     30  H   UNL     1      33.981 -13.688 -22.965  0.00  0.00    +0.220 HD
ENDBRANCH  27  29
BRANCH  27  31
ATOM     31  O   UNL     1      32.696 -15.479 -21.999  0.00  0.00    -0.322 OA
ATOM     32  H   UNL     1      32.414 -14.590 -21.734  0.00  0.00    +0.220 HD
ENDBRANCH  27  31
ENDBRANCH  20  27
BRANCH  20  33
ATOM     33  O   UNL     1      36.103 -16.654 -23.459  0.00  0.00    -0.366 OA
ATOM     34  H   UNL     1      36.491 -17.543 -23.458  0.00  0.00    +0.212 HD
ENDBRANCH  20  33
ENDBRANCH  19  20
ENDBRANCH   1  19
TORSDOF 11
ENDMDL
MODEL 8
REMARK VINA RESULT:      -9.4      6.871      9.209
REMARK  Name = 16086422
REMARK  11 active torsions:
REMARK  status: ('A' for Active; 'I' for Inactive)
REMARK    1  A    between atoms: C_1  and  C_19
REMARK    2  A    between atoms: C_3  and  C_7
REMARK    3  A    between atoms: C_9  and  C_13
REMARK    4  A    between atoms: C_19  and  C_20
REMARK    5  A    between atoms: C_20  and  P_21
REMARK    6  A    between atoms: C_20  and  P_27
REMARK    7  A    between atoms: C_20  and  O_33
REMARK    8  A    between atoms: P_21  and  O_23
REMARK    9  A    between atoms: P_21  and  O_25
REMARK   10  A    between atoms: P_27  and  O_29
REMARK   11  A    between atoms: P_27  and  O_31
REMARK                            x       y       z     vdW  Elec       q    Type
REMARK                         _______ _______ _______ _____ _____    ______ ____
ROOT
ATOM      1  C   UNL     1      34.498 -20.038 -20.644  0.00  0.00    -0.019 C 
ATOM      2  C   UNL     1      33.871 -20.720 -19.611  0.00  0.00    -0.004 C 
ATOM      3  C   UNL     1      34.589 -21.666 -18.881  0.00  0.00    -0.000 C 
ATOM      4  C   UNL     1      35.826 -20.280 -20.961  0.00  0.00    -0.004 C 
ATOM      5  C   UNL     1      35.925 -21.920 -19.190  0.00  0.00    -0.000 C 
ATOM      6  C   UNL     1      36.544 -21.226 -20.230  0.00  0.00    -0.000 C 
ENDROOT
BRANCH   3   7
ATOM      7  C   UNL     1      33.948 -22.387 -17.802  0.00  0.00    -0.000 C 
ATOM      8  C   UNL     1      34.716 -22.927 -16.770  0.00  0.00    -0.000 C 
ATOM      9  C   UNL     1      34.097 -23.623 -15.732  0.00  0.00    -0.000 C 
ATOM     10  C   UNL     1      32.562 -22.543 -17.796  0.00  0.00    -0.000 C 
ATOM     11  C   UNL     1      32.710 -23.779 -15.725  0.00  0.00    +0.000 C 
ATOM     12  C   UNL     1      31.943 -23.239 -16.757  0.00  0.00    -0.000 C 
BRANCH   9  13
ATOM     13  C   UNL     1      34.891 -24.184 -14.661  0.00  0.00    +0.000 C 
ATOM     14  C   UNL     1      34.516 -23.979 -13.333  0.00  0.00    +0.000 C 
ATOM     15  C   UNL     1      36.034 -24.929 -14.956  0.00  0.00    +0.000 C 
ATOM     16  C   UNL     1      35.282 -24.520 -12.300  0.00  0.00    +0.000 C 
ATOM     17  C   UNL     1      36.800 -25.469 -13.922  0.00  0.00    +0.000 C 
ATOM     18  C   UNL     1      36.423 -25.265 -12.595  0.00  0.00    +0.000 C 
ENDBRANCH   9  13
ENDBRANCH   3   7
BRANCH   1  19
ATOM     19  C   UNL     1      33.722 -19.014 -21.434  0.00  0.00    +0.077 C 
BRANCH  19  20
ATOM     20  C   UNL     1      34.379 -17.623 -21.611  0.00  0.00    +0.279 C 
BRANCH  20  21
ATOM     21  P   UNL     1      35.275 -17.643 -23.230  0.00  0.00    +0.372 P 
ATOM     22  O   UNL     1      34.554 -18.356 -24.336  0.00  0.00    -0.255 OA
BRANCH  21  23
ATOM     23  O   UNL     1      36.731 -18.241 -22.865  0.00  0.00    -0.322 OA
ATOM     24  H   UNL     1      37.096 -18.697 -23.640  0.00  0.00    +0.220 HD
ENDBRANCH  21  23
BRANCH  21  25
ATOM     25  O   UNL     1      35.571 -16.076 -23.498  0.00  0.00    -0.322 OA
ATOM     26  H   UNL     1      34.958 -15.742 -24.172  0.00  0.00    +0.220 HD
ENDBRANCH  21  25
ENDBRANCH  20  21
BRANCH  20  27
ATOM     27  P   UNL     1      33.280 -16.235 -21.166  0.00  0.00    +0.372 P 
ATOM     28  O   UNL     1      31.987 -16.623 -20.510  0.00  0.00    -0.255 OA
BRANCH  27  29
ATOM     29  O   UNL     1      34.219 -15.271 -20.271  0.00  0.00    -0.322 OA
ATOM     30  H   UNL     1      34.735 -14.692 -20.852  0.00  0.00    +0.220 HD
ENDBRANCH  27  29
BRANCH  27  31
ATOM     31  O   UNL     1      33.133 -15.417 -22.551  0.00  0.00    -0.322 OA
ATOM     32  H   UNL     1      32.669 -15.965 -23.203  0.00  0.00    +0.220 HD
ENDBRANCH  27  31
ENDBRANCH  20  27
BRANCH  20  33
ATOM     33  O   UNL     1      35.472 -17.493 -20.701  0.00  0.00    -0.366 OA
ATOM     34  H   UNL     1      35.260 -17.950 -19.872  0.00  0.00    +0.212 HD
ENDBRANCH  20  33
ENDBRANCH  19  20
ENDBRANCH   1  19
TORSDOF 11
ENDMDL
MODEL 9
REMARK VINA RESULT:      -9.2     15.022     16.745
REMARK  Name = 16086422
REMARK  11 active torsions:
REMARK  status: ('A' for Active; 'I' for Inactive)
REMARK    1  A    between atoms: C_1  and  C_19
REMARK    2  A    between atoms: C_3  and  C_7
REMARK    3  A    between atoms: C_9  and  C_13
REMARK    4  A    between atoms: C_19  and  C_20
REMARK    5  A    between atoms: C_20  and  P_21
REMARK    6  A    between atoms: C_20  and  P_27
REMARK    7  A    between atoms: C_20  and  O_33
REMARK    8  A    between atoms: P_21  and  O_23
REMARK    9  A    between atoms: P_21  and  O_25
REMARK   10  A    between atoms: P_27  and  O_29
REMARK   11  A    between atoms: P_27  and  O_31
REMARK                            x       y       z     vdW  Elec       q    Type
REMARK                         _______ _______ _______ _____ _____    ______ ____
ROOT
ATOM      1  C   UNL     1      32.016 -12.470 -22.337  0.00  0.00    -0.019 C 
ATOM      2  C   UNL     1      32.102 -11.095 -22.501  0.00  0.00    -0.004 C 
ATOM      3  C   UNL     1      32.082 -10.270 -21.377  0.00  0.00    -0.000 C 
ATOM      4  C   UNL     1      31.910 -13.037 -21.076  0.00  0.00    -0.004 C 
ATOM      5  C   UNL     1      31.975 -10.827 -20.104  0.00  0.00    -0.000 C 
ATOM      6  C   UNL     1      31.889 -12.211 -19.953  0.00  0.00    -0.000 C 
ENDROOT
BRANCH   3   7
ATOM      7  C   UNL     1      32.169  -8.833 -21.533  0.00  0.00    -0.000 C 
ATOM      8  C   UNL     1      32.573  -8.287 -22.752  0.00  0.00    -0.000 C 
ATOM      9  C   UNL     1      32.659  -6.904 -22.902  0.00  0.00    -0.000 C 
ATOM     10  C   UNL     1      31.852  -7.996 -20.465  0.00  0.00    -0.000 C 
ATOM     11  C   UNL     1      32.341  -6.065 -21.832  0.00  0.00    +0.000 C 
ATOM     12  C   UNL     1      31.938  -6.611 -20.614  0.00  0.00    -0.000 C 
BRANCH   9  13
ATOM     13  C   UNL     1      33.078  -6.335 -24.164  0.00  0.00    +0.000 C 
ATOM     14  C   UNL     1      34.320  -6.671 -24.703  0.00  0.00    +0.000 C 
ATOM     15  C   UNL     1      32.239  -5.450 -24.843  0.00  0.00    +0.000 C 
ATOM     16  C   UNL     1      34.724  -6.122 -25.920  0.00  0.00    +0.000 C 
ATOM     17  C   UNL     1      32.644  -4.901 -26.060  0.00  0.00    +0.000 C 
ATOM     18  C   UNL     1      33.886  -5.238 -26.598  0.00  0.00    +0.000 C 
ENDBRANCH   9  13
ENDBRANCH   3   7
BRANCH   1  19
ATOM     19  C   UNL     1      32.039 -13.364 -23.551  0.00  0.00    +0.077 C 
BRANCH  19  20
ATOM     20  C   UNL     1      33.431 -13.737 -24.119  0.00  0.00    +0.279 C 
BRANCH  20  21
ATOM     21  P   UNL     1      34.193 -14.949 -22.947  0.00  0.00    +0.372 P 
ATOM     22  O   UNL     1      33.218 -15.877 -22.284  0.00  0.00    -0.255 OA
BRANCH  21  23
ATOM     23  O   UNL     1      35.056 -14.029 -21.938  0.00  0.00    -0.322 OA
ATOM     24  H   UNL     1      35.967 -13.956 -22.265  0.00  0.00    +0.220 HD
ENDBRANCH  21  23
BRANCH  21  25
ATOM     25  O   UNL     1      35.321 -15.669 -23.855  0.00  0.00    -0.322 OA
ATOM     26  H   UNL     1      36.183 -15.257 -23.686  0.00  0.00    +0.220 HD
ENDBRANCH  21  25
ENDBRANCH  20  21
BRANCH  20  27
ATOM     27  P   UNL     1      33.425 -14.050 -25.918  0.00  0.00    +0.372 P 
ATOM     28  O   UNL     1      34.181 -15.268 -26.362  0.00  0.00    -0.255 OA
BRANCH  27  29
ATOM     29  O   UNL     1      31.855 -14.063 -26.301  0.00  0.00    -0.322 OA
ATOM     30  H   UNL     1      31.351 -14.484 -25.588  0.00  0.00    +0.220 HD
ENDBRANCH  27  29
BRANCH  27  31
ATOM     31  O   UNL     1      33.940 -12.652 -26.541  0.00  0.00    -0.322 OA
ATOM     32  H   UNL     1      33.492 -11.915 -26.097  0.00  0.00    +0.220 HD
ENDBRANCH  27  31
ENDBRANCH  20  27
BRANCH  20  33
ATOM     33  O   UNL     1      34.318 -12.628 -23.973  0.00  0.00    -0.366 OA
ATOM     34  H   UNL     1      33.936 -11.848 -24.406  0.00  0.00    +0.212 HD
ENDBRANCH  20  33
ENDBRANCH  19  20
ENDBRANCH   1  19
TORSDOF 11
ENDMDL
