MODEL 1
REMARK VINA RESULT:      -8.3      0.000      0.000
REMARK  Name = 5288206
REMARK  4 active torsions:
REMARK  status: ('A' for Active; 'I' for Inactive)
REMARK    1  A    between atoms: C_3  and  C_12
REMARK    2  A    between atoms: C_4  and  C_16
REMARK    3  A    between atoms: C_6  and  C_18
REMARK    4  A    between atoms: C_18  and  O_19
REMARK                            x       y       z     vdW  Elec       q    Type
REMARK                         _______ _______ _______ _____ _____    ______ ____
ROOT
ATOM      1  S   UNK     1      36.742 -26.792 -14.851  0.00  0.00    -0.102 S 
ATOM      2  N   UNK     1      38.845 -25.468 -12.728  0.00  0.00    -0.306 N 
ATOM      3  C   UNK     1      36.013 -25.256 -14.206  0.00  0.00    +0.117 C 
ATOM      4  C   UNK     1      36.431 -24.927 -12.794  0.00  0.00    +0.050 C 
ATOM      5  C   UNK     1      37.637 -25.064 -12.221  0.00  0.00    +0.062 C 
ATOM      6  C   UNK     1      39.181 -25.932 -13.975  0.00  0.00    +0.131 C 
ATOM      7  C   UNK     1      38.428 -26.451 -14.957  0.00  0.00    +0.053 C 
ATOM      8  H   UNK     1      39.595 -25.417 -12.094  0.00  0.00    +0.152 HD
ENDROOT
BRANCH   3  12
ATOM      9  N   UNK     1      36.598 -22.396 -16.360  0.00  0.00    -0.162 NA
ATOM     10  N   UNK     1      35.086 -23.905 -16.097  0.00  0.00    -0.153 NA
ATOM     11  N   UNK     1      35.415 -22.838 -16.818  0.00  0.00    -0.063 NA
ATOM     12  C   UNK     1      36.082 -24.110 -15.191  0.00  0.00    +0.089 C 
ATOM     13  C   UNK     1      37.056 -23.165 -15.335  0.00  0.00    +0.139 C 
ATOM     14  C   UNK     1      37.225 -21.238 -16.943  0.00  0.00    +0.115 C 
ENDBRANCH   3  12
BRANCH   4  16
ATOM     15  O   UNK     1      35.204 -24.831 -10.778  0.00  0.00    -0.283 OA
ATOM     16  C   UNK     1      35.385 -24.395 -11.903  0.00  0.00    +0.232 C 
ENDBRANCH   4  16
BRANCH   6  18
ATOM     17  O   UNK     1      41.369 -26.828 -14.222  0.00  0.00    -0.244 OA
ATOM     18  C   UNK     1      40.620 -25.880 -14.299  0.00  0.00    +0.352 C 
BRANCH  18  19
ATOM     19  O   UNK     1      40.940 -24.630 -14.685  0.00  0.00    -0.476 OA
ATOM     20  H   UNK     1      40.363 -23.917 -14.493  0.00  0.00    +0.295 HD
ENDBRANCH  18  19
ENDBRANCH   6  18
TORSDOF 4
ENDMDL
MODEL 2
REMARK VINA RESULT:      -7.5      2.699      4.319
REMARK  Name = 5288206
REMARK  4 active torsions:
REMARK  status: ('A' for Active; 'I' for Inactive)
REMARK    1  A    between atoms: C_3  and  C_12
REMARK    2  A    between atoms: C_4  and  C_16
REMARK    3  A    between atoms: C_6  and  C_18
REMARK    4  A    between atoms: C_18  and  O_19
REMARK                            x       y       z     vdW  Elec       q    Type
REMARK                         _______ _______ _______ _____ _____    ______ ____
ROOT
ATOM      1  S   UNK     1      37.537 -23.173 -14.122  0.00  0.00    -0.102 S 
ATOM      2  N   UNK     1      36.878 -25.607 -12.043  0.00  0.00    -0.306 N 
ATOM      3  C   UNK     1      36.673 -24.487 -15.035  0.00  0.00    +0.117 C 
ATOM      4  C   UNK     1      36.935 -25.874 -14.502  0.00  0.00    +0.050 C 
ATOM      5  C   UNK     1      37.037 -26.280 -13.227  0.00  0.00    +0.062 C 
ATOM      6  C   UNK     1      36.634 -24.280 -11.794  0.00  0.00    +0.131 C 
ATOM      7  C   UNK     1      36.808 -23.192 -12.559  0.00  0.00    +0.053 C 
ATOM      8  H   UNK     1      36.950 -26.168 -11.239  0.00  0.00    +0.152 HD
ENDROOT
BRANCH   3  12
ATOM      9  N   UNK     1      33.104 -23.887 -15.274  0.00  0.00    -0.162 NA
ATOM     10  N   UNK     1      34.853 -23.571 -16.487  0.00  0.00    -0.153 NA
ATOM     11  N   UNK     1      33.535 -23.407 -16.453  0.00  0.00    -0.063 NA
ATOM     12  C   UNK     1      35.223 -24.158 -15.315  0.00  0.00    +0.089 C 
ATOM     13  C   UNK     1      34.132 -24.371 -14.525  0.00  0.00    +0.139 C 
ATOM     14  C   UNK     1      31.705 -23.854 -14.935  0.00  0.00    +0.115 C 
ENDBRANCH   3  12
BRANCH   4  16
ATOM     15  O   UNK     1      36.281 -27.189 -16.352  0.00  0.00    -0.283 OA
ATOM     16  C   UNK     1      37.120 -26.941 -15.502  0.00  0.00    +0.232 C 
ENDBRANCH   4  16
BRANCH   6  18
ATOM     17  O   UNK     1      35.281 -24.646  -9.874  0.00  0.00    -0.244 OA
ATOM     18  C   UNK     1      36.113 -23.977 -10.447  0.00  0.00    +0.352 C 
BRANCH  18  19
ATOM     19  O   UNK     1      36.708 -22.863  -9.984  0.00  0.00    -0.476 OA
ATOM     20  H   UNK     1      36.308 -22.026 -10.119  0.00  0.00    +0.295 HD
ENDBRANCH  18  19
ENDBRANCH   6  18
TORSDOF 4
ENDMDL
MODEL 3
REMARK VINA RESULT:      -7.0      2.380      3.068
REMARK  Name = 5288206
REMARK  4 active torsions:
REMARK  status: ('A' for Active; 'I' for Inactive)
REMARK    1  A    between atoms: C_3  and  C_12
REMARK    2  A    between atoms: C_4  and  C_16
REMARK    3  A    between atoms: C_6  and  C_18
REMARK    4  A    between atoms: C_18  and  O_19
REMARK                            x       y       z     vdW  Elec       q    Type
REMARK                         _______ _______ _______ _____ _____    ______ ____
ROOT
ATOM      1  S   UNK     1      36.192 -25.872 -14.396  0.00  0.00    -0.102 S 
ATOM      2  N   UNK     1      35.508 -23.685 -12.065  0.00  0.00    -0.306 N 
ATOM      3  C   UNK     1      34.786 -24.861 -14.953  0.00  0.00    +0.117 C 
ATOM      4  C   UNK     1      33.912 -24.359 -13.831  0.00  0.00    +0.050 C 
ATOM      5  C   UNK     1      34.275 -23.900 -12.623  0.00  0.00    +0.062 C 
ATOM      6  C   UNK     1      36.766 -23.945 -12.548  0.00  0.00    +0.131 C 
ATOM      7  C   UNK     1      37.187 -24.769 -13.519  0.00  0.00    +0.053 C 
ATOM      8  H   UNK     1      35.489 -23.277 -11.171  0.00  0.00    +0.152 HD
ENDROOT
BRANCH   3  12
ATOM      9  N   UNK     1      36.102 -22.307 -17.167  0.00  0.00    -0.162 NA
ATOM     10  N   UNK     1      34.387 -23.603 -17.079  0.00  0.00    -0.153 NA
ATOM     11  N   UNK     1      34.972 -22.655 -17.803  0.00  0.00    -0.063 NA
ATOM     12  C   UNK     1      35.174 -23.830 -15.991  0.00  0.00    +0.089 C 
ATOM     13  C   UNK     1      36.271 -23.020 -16.020  0.00  0.00    +0.139 C 
ATOM     14  C   UNK     1      36.966 -21.288 -17.706  0.00  0.00    +0.115 C 
ENDBRANCH   3  12
BRANCH   4  16
ATOM     15  O   UNK     1      31.655 -24.020 -13.223  0.00  0.00    -0.283 OA
ATOM     16  C   UNK     1      32.457 -24.381 -14.068  0.00  0.00    +0.232 C 
ENDBRANCH   4  16
BRANCH   6  18
ATOM     17  O   UNK     1      39.018 -23.572 -11.884  0.00  0.00    -0.244 OA
ATOM     18  C   UNK     1      37.861 -23.217 -11.877  0.00  0.00    +0.352 C 
BRANCH  18  19
ATOM     19  O   UNK     1      37.358 -22.123 -11.275  0.00  0.00    -0.476 OA
ATOM     20  H   UNK     1      37.794 -21.298 -11.361  0.00  0.00    +0.295 HD
ENDBRANCH  18  19
ENDBRANCH   6  18
TORSDOF 4
ENDMDL
MODEL 4
REMARK VINA RESULT:      -6.9      2.807      4.147
REMARK  Name = 5288206
REMARK  4 active torsions:
REMARK  status: ('A' for Active; 'I' for Inactive)
REMARK    1  A    between atoms: C_3  and  C_12
REMARK    2  A    between atoms: C_4  and  C_16
REMARK    3  A    between atoms: C_6  and  C_18
REMARK    4  A    between atoms: C_18  and  O_19
REMARK                            x       y       z     vdW  Elec       q    Type
REMARK                         _______ _______ _______ _____ _____    ______ ____
ROOT
ATOM      1  S   UNK     1      36.155 -23.122 -13.220  0.00  0.00    -0.102 S 
ATOM      2  N   UNK     1      38.138 -24.699 -15.285  0.00  0.00    -0.306 N 
ATOM      3  C   UNK     1      35.891 -22.454 -14.890  0.00  0.00    +0.117 C 
ATOM      4  C   UNK     1      37.117 -22.497 -15.767  0.00  0.00    +0.050 C 
ATOM      5  C   UNK     1      38.045 -23.462 -15.869  0.00  0.00    +0.062 C 
ATOM      6  C   UNK     1      37.342 -25.308 -14.348  0.00  0.00    +0.131 C 
ATOM      7  C   UNK     1      36.457 -24.800 -13.476  0.00  0.00    +0.053 C 
ATOM      8  H   UNK     1      38.902 -25.239 -15.587  0.00  0.00    +0.152 HD
ENDROOT
BRANCH   3  12
ATOM      9  N   UNK     1      32.627 -23.593 -15.989  0.00  0.00    -0.162 NA
ATOM     10  N   UNK     1      34.576 -23.289 -16.848  0.00  0.00    -0.153 NA
ATOM     11  N   UNK     1      33.339 -23.687 -17.124  0.00  0.00    -0.063 NA
ATOM     12  C   UNK     1      34.613 -22.951 -15.530  0.00  0.00    +0.089 C 
ATOM     13  C   UNK     1      33.388 -23.134 -14.958  0.00  0.00    +0.139 C 
ATOM     14  C   UNK     1      31.235 -23.960 -15.962  0.00  0.00    +0.115 C 
ENDBRANCH   3  12
BRANCH   4  16
ATOM     15  O   UNK     1      36.863 -21.217 -17.735  0.00  0.00    -0.283 OA
ATOM     16  C   UNK     1      37.357 -21.323 -16.625  0.00  0.00    +0.232 C 
ENDBRANCH   4  16
BRANCH   6  18
ATOM     17  O   UNK     1      38.219 -27.430 -14.962  0.00  0.00    -0.244 OA
ATOM     18  C   UNK     1      37.490 -26.773 -14.253  0.00  0.00    +0.352 C 
BRANCH  18  19
ATOM     19  O   UNK     1      36.696 -27.233 -13.268  0.00  0.00    -0.476 OA
ATOM     20  H   UNK     1      36.388 -28.118 -13.288  0.00  0.00    +0.295 HD
ENDBRANCH  18  19
ENDBRANCH   6  18
TORSDOF 4
ENDMDL
MODEL 5
REMARK VINA RESULT:      -6.6      2.767      5.049
REMARK  Name = 5288206
REMARK  4 active torsions:
REMARK  status: ('A' for Active; 'I' for Inactive)
REMARK    1  A    between atoms: C_3  and  C_12
REMARK    2  A    between atoms: C_4  and  C_16
REMARK    3  A    between atoms: C_6  and  C_18
REMARK    4  A    between atoms: C_18  and  O_19
REMARK                            x       y       z     vdW  Elec       q    Type
REMARK                         _______ _______ _______ _____ _____    ______ ____
ROOT
ATOM      1  S   UNK     1      36.139 -25.764 -14.641  0.00  0.00    -0.102 S 
ATOM      2  N   UNK     1      36.253 -22.963 -12.961  0.00  0.00    -0.306 N 
ATOM      3  C   UNK     1      37.473 -24.737 -15.330  0.00  0.00    +0.117 C 
ATOM      4  C   UNK     1      37.222 -23.254 -15.219  0.00  0.00    +0.050 C 
ATOM      5  C   UNK     1      36.677 -22.566 -14.203  0.00  0.00    +0.062 C 
ATOM      6  C   UNK     1      36.184 -24.211 -12.395  0.00  0.00    +0.131 C 
ATOM      7  C   UNK     1      36.177 -25.433 -12.950  0.00  0.00    +0.053 C 
ATOM      8  H   UNK     1      35.947 -22.232 -12.378  0.00  0.00    +0.152 HD
ENDROOT
BRANCH   3  12
ATOM      9  N   UNK     1      40.564 -26.259 -14.195  0.00  0.00    -0.162 NA
ATOM     10  N   UNK     1      39.932 -24.380 -15.033  0.00  0.00    -0.153 NA
ATOM     11  N   UNK     1      40.991 -25.046 -14.587  0.00  0.00    -0.063 NA
ATOM     12  C   UNK     1      38.851 -25.199 -14.909  0.00  0.00    +0.089 C 
ATOM     13  C   UNK     1      39.223 -26.400 -14.378  0.00  0.00    +0.139 C 
ATOM     14  C   UNK     1      41.487 -27.224 -13.655  0.00  0.00    +0.115 C 
ENDBRANCH   3  12
BRANCH   4  16
ATOM     15  O   UNK     1      36.923 -21.497 -16.769  0.00  0.00    -0.283 OA
ATOM     16  C   UNK     1      37.605 -22.431 -16.380  0.00  0.00    +0.232 C 
ENDBRANCH   4  16
BRANCH   6  18
ATOM     17  O   UNK     1      35.362 -24.987 -10.304  0.00  0.00    -0.244 OA
ATOM     18  C   UNK     1      36.076 -24.230 -10.923  0.00  0.00    +0.352 C 
BRANCH  18  19
ATOM     19  O   UNK     1      36.886 -23.287 -10.409  0.00  0.00    -0.476 OA
ATOM     20  H   UNK     1      36.616 -22.390 -10.399  0.00  0.00    +0.295 HD
ENDBRANCH  18  19
ENDBRANCH   6  18
TORSDOF 4
ENDMDL
MODEL 6
REMARK VINA RESULT:      -6.6      1.683      4.218
REMARK  Name = 5288206
REMARK  4 active torsions:
REMARK  status: ('A' for Active; 'I' for Inactive)
REMARK    1  A    between atoms: C_3  and  C_12
REMARK    2  A    between atoms: C_4  and  C_16
REMARK    3  A    between atoms: C_6  and  C_18
REMARK    4  A    between atoms: C_18  and  O_19
REMARK                            x       y       z     vdW  Elec       q    Type
REMARK                         _______ _______ _______ _____ _____    ______ ____
ROOT
ATOM      1  S   UNK     1      38.060 -22.589 -12.883  0.00  0.00    -0.102 S 
ATOM      2  N   UNK     1      37.242 -25.688 -12.247  0.00  0.00    -0.306 N 
ATOM      3  C   UNK     1      38.304 -23.567 -14.397  0.00  0.00    +0.117 C 
ATOM      4  C   UNK     1      38.681 -25.005 -14.141  0.00  0.00    +0.050 C 
ATOM      5  C   UNK     1      38.217 -25.841 -13.199  0.00  0.00    +0.062 C 
ATOM      6  C   UNK     1      36.483 -24.596 -11.911  0.00  0.00    +0.131 C 
ATOM      7  C   UNK     1      36.668 -23.287 -12.144  0.00  0.00    +0.053 C 
ATOM      8  H   UNK     1      37.056 -26.495 -11.716  0.00  0.00    +0.152 HD
ENDROOT
BRANCH   3  12
ATOM      9  N   UNK     1      35.963 -22.694 -17.027  0.00  0.00    -0.162 NA
ATOM     10  N   UNK     1      36.088 -24.120 -15.421  0.00  0.00    -0.153 NA
ATOM     11  N   UNK     1      35.318 -23.705 -16.420  0.00  0.00    -0.063 NA
ATOM     12  C   UNK     1      37.212 -23.351 -15.422  0.00  0.00    +0.089 C 
ATOM     13  C   UNK     1      37.160 -22.435 -16.432  0.00  0.00    +0.139 C 
ATOM     14  C   UNK     1      35.378 -22.022 -18.158  0.00  0.00    +0.115 C 
ENDBRANCH   3  12
BRANCH   4  16
ATOM     15  O   UNK     1      40.894 -25.576 -14.737  0.00  0.00    -0.283 OA
ATOM     16  C   UNK     1      39.708 -25.585 -15.024  0.00  0.00    +0.232 C 
ENDBRANCH   4  16
BRANCH   6  18
ATOM     17  O   UNK     1      35.218 -24.946  -9.930  0.00  0.00    -0.244 OA
ATOM     18  C   UNK     1      35.261 -24.891 -11.139  0.00  0.00    +0.352 C 
BRANCH  18  19
ATOM     19  O   UNK     1      34.237 -25.083 -11.991  0.00  0.00    -0.476 OA
ATOM     20  H   UNK     1      34.378 -25.530 -12.802  0.00  0.00    +0.295 HD
ENDBRANCH  18  19
ENDBRANCH   6  18
TORSDOF 4
ENDMDL
MODEL 7
REMARK VINA RESULT:      -6.5      2.507      5.115
REMARK  Name = 5288206
REMARK  4 active torsions:
REMARK  status: ('A' for Active; 'I' for Inactive)
REMARK    1  A    between atoms: C_3  and  C_12
REMARK    2  A    between atoms: C_4  and  C_16
REMARK    3  A    between atoms: C_6  and  C_18
REMARK    4  A    between atoms: C_18  and  O_19
REMARK                            x       y       z     vdW  Elec       q    Type
REMARK                         _______ _______ _______ _____ _____    ______ ____
ROOT
ATOM      1  S   UNK     1      36.615 -26.040 -14.998  0.00  0.00    -0.102 S 
ATOM      2  N   UNK     1      38.446 -23.530 -16.012  0.00  0.00    -0.306 N 
ATOM      3  C   UNK     1      37.945 -25.774 -13.785  0.00  0.00    +0.117 C 
ATOM      4  C   UNK     1      39.216 -25.226 -14.383  0.00  0.00    +0.050 C 
ATOM      5  C   UNK     1      39.363 -24.297 -15.341  0.00  0.00    +0.062 C 
ATOM      6  C   UNK     1      37.075 -23.527 -15.963  0.00  0.00    +0.131 C 
ATOM      7  C   UNK     1      36.205 -24.454 -15.534  0.00  0.00    +0.053 C 
ATOM      8  H   UNK     1      38.835 -22.872 -16.631  0.00  0.00    +0.152 HD
ENDROOT
BRANCH   3  12
ATOM      9  N   UNK     1      36.402 -24.400 -10.803  0.00  0.00    -0.162 NA
ATOM     10  N   UNK     1      38.224 -24.134 -11.917  0.00  0.00    -0.153 NA
ATOM     11  N   UNK     1      37.555 -23.713 -10.848  0.00  0.00    -0.063 NA
ATOM     12  C   UNK     1      37.466 -25.087 -12.525  0.00  0.00    +0.089 C 
ATOM     13  C   UNK     1      36.301 -25.277 -11.839  0.00  0.00    +0.139 C 
ATOM     14  C   UNK     1      35.447 -24.167  -9.751  0.00  0.00    +0.115 C 
ENDBRANCH   3  12
BRANCH   4  16
ATOM     15  O   UNK     1      41.060 -26.701 -14.425  0.00  0.00    -0.283 OA
ATOM     16  C   UNK     1      40.480 -25.782 -13.869  0.00  0.00    +0.232 C 
ENDBRANCH   4  16
BRANCH   6  18
ATOM     17  O   UNK     1      35.334 -22.293 -17.010  0.00  0.00    -0.244 OA
ATOM     18  C   UNK     1      36.428 -22.311 -16.492  0.00  0.00    +0.352 C 
BRANCH  18  19
ATOM     19  O   UNK     1      37.246 -21.259 -16.302  0.00  0.00    -0.476 OA
ATOM     20  H   UNK     1      36.890 -20.421 -16.081  0.00  0.00    +0.295 HD
ENDBRANCH  18  19
ENDBRANCH   6  18
TORSDOF 4
ENDMDL
MODEL 8
REMARK VINA RESULT:      -6.4      3.166      4.270
REMARK  Name = 5288206
REMARK  4 active torsions:
REMARK  status: ('A' for Active; 'I' for Inactive)
REMARK    1  A    between atoms: C_3  and  C_12
REMARK    2  A    between atoms: C_4  and  C_16
REMARK    3  A    between atoms: C_6  and  C_18
REMARK    4  A    between atoms: C_18  and  O_19
REMARK                            x       y       z     vdW  Elec       q    Type
REMARK                         _______ _______ _______ _____ _____    ______ ____
ROOT
ATOM      1  S   UNK     1      35.743 -25.585 -14.890  0.00  0.00    -0.102 S 
ATOM      2  N   UNK     1      36.959 -22.597 -14.364  0.00  0.00    -0.306 N 
ATOM      3  C   UNK     1      34.946 -24.895 -13.408  0.00  0.00    +0.117 C 
ATOM      4  C   UNK     1      35.822 -23.945 -12.629  0.00  0.00    +0.050 C 
ATOM      5  C   UNK     1      36.672 -23.015 -13.091  0.00  0.00    +0.062 C 
ATOM      6  C   UNK     1      36.515 -23.058 -15.578  0.00  0.00    +0.131 C 
ATOM      7  C   UNK     1      35.958 -24.227 -15.929  0.00  0.00    +0.053 C 
ATOM      8  H   UNK     1      37.587 -21.843 -14.417  0.00  0.00    +0.152 HD
ENDROOT
BRANCH   3  12
ATOM      9  N   UNK     1      31.756 -23.433 -14.325  0.00  0.00    -0.162 NA
ATOM     10  N   UNK     1      32.474 -24.997 -13.033  0.00  0.00    -0.153 NA
ATOM     11  N   UNK     1      31.375 -24.378 -13.449  0.00  0.00    -0.063 NA
ATOM     12  C   UNK     1      33.533 -24.419 -13.665  0.00  0.00    +0.089 C 
ATOM     13  C   UNK     1      33.106 -23.421 -14.492  0.00  0.00    +0.139 C 
ATOM     14  C   UNK     1      30.782 -22.580 -14.956  0.00  0.00    +0.115 C 
ENDBRANCH   3  12
BRANCH   4  16
ATOM     15  O   UNK     1      35.369 -25.053 -10.592  0.00  0.00    -0.283 OA
ATOM     16  C   UNK     1      35.761 -24.047 -11.160  0.00  0.00    +0.232 C 
ENDBRANCH   4  16
BRANCH   6  18
ATOM     17  O   UNK     1      36.141 -22.241 -17.779  0.00  0.00    -0.244 OA
ATOM     18  C   UNK     1      36.696 -22.127 -16.709  0.00  0.00    +0.352 C 
BRANCH  18  19
ATOM     19  O   UNK     1      37.560 -21.160 -16.349  0.00  0.00    -0.476 OA
ATOM     20  H   UNK     1      38.164 -20.812 -16.976  0.00  0.00    +0.295 HD
ENDBRANCH  18  19
ENDBRANCH   6  18
TORSDOF 4
ENDMDL
MODEL 9
REMARK VINA RESULT:      -6.4      9.225     11.874
REMARK  Name = 5288206
REMARK  4 active torsions:
REMARK  status: ('A' for Active; 'I' for Inactive)
REMARK    1  A    between atoms: C_3  and  C_12
REMARK    2  A    between atoms: C_4  and  C_16
REMARK    3  A    between atoms: C_6  and  C_18
REMARK    4  A    between atoms: C_18  and  O_19
REMARK                            x       y       z     vdW  Elec       q    Type
REMARK                         _______ _______ _______ _____ _____    ______ ____
ROOT
ATOM      1  S   UNK     1      36.531 -17.965 -21.818  0.00  0.00    -0.102 S 
ATOM      2  N   UNK     1      33.985 -19.733 -22.854  0.00  0.00    -0.306 N 
ATOM      3  C   UNK     1      35.536 -16.934 -22.937  0.00  0.00    +0.117 C 
ATOM      4  C   UNK     1      34.822 -17.714 -24.013  0.00  0.00    +0.050 C 
ATOM      5  C   UNK     1      34.209 -18.904 -23.923  0.00  0.00    +0.062 C 
ATOM      6  C   UNK     1      34.386 -19.634 -21.545  0.00  0.00    +0.131 C 
ATOM      7  C   UNK     1      35.370 -18.922 -20.975  0.00  0.00    +0.053 C 
ATOM      8  H   UNK     1      33.447 -20.531 -23.058  0.00  0.00    +0.152 HD
ENDROOT
BRANCH   3  12
ATOM      9  N   UNK     1      33.304 -14.402 -21.608  0.00  0.00    -0.162 NA
ATOM     10  N   UNK     1      34.886 -15.666 -20.880  0.00  0.00    -0.153 NA
ATOM     11  N   UNK     1      34.018 -14.728 -20.517  0.00  0.00    -0.063 NA
ATOM     12  C   UNK     1      34.696 -15.909 -22.206  0.00  0.00    +0.089 C 
ATOM     13  C   UNK     1      33.696 -15.120 -22.696  0.00  0.00    +0.139 C 
ATOM     14  C   UNK     1      32.273 -13.399 -21.539  0.00  0.00    +0.115 C 
ENDBRANCH   3  12
BRANCH   4  16
ATOM     15  O   UNK     1      33.757 -16.740 -25.883  0.00  0.00    -0.283 OA
ATOM     16  C   UNK     1      34.794 -17.110 -25.357  0.00  0.00    +0.232 C 
ENDBRANCH   4  16
BRANCH   6  18
ATOM     17  O   UNK     1      32.430 -20.621 -20.623  0.00  0.00    -0.244 OA
ATOM     18  C   UNK     1      33.631 -20.468 -20.590  0.00  0.00    +0.352 C 
BRANCH  18  19
ATOM     19  O   UNK     1      34.488 -21.011 -19.706  0.00  0.00    -0.476 OA
ATOM     20  H   UNK     1      35.142 -20.479 -19.298  0.00  0.00    +0.295 HD
ENDBRANCH  18  19
ENDBRANCH   6  18
TORSDOF 4
ENDMDL
