MODEL 1
REMARK VINA RESULT:      -8.7      0.000      0.000
REMARK  Name = 72060
REMARK  3 active torsions:
REMARK  status: ('A' for Active; 'I' for Inactive)
REMARK    1  A    between atoms: C_1  and  C_6
REMARK    2  A    between atoms: C_1  and  C_11
REMARK    3  A    between atoms: C_1  and  C_17
REMARK                            x       y       z     vdW  Elec       q    Type
REMARK                         _______ _______ _______ _____ _____    ______ ____
ROOT
ATOM      1  C   UNL     1      34.329 -18.831 -21.888  0.00  0.00    +0.099 C 
ENDROOT
BRANCH   1   6
ATOM      2  O   UNL     1      35.658 -17.393 -20.449  0.00  0.00    -0.274 OA
ATOM      3  O   UNL     1      34.792 -14.716 -20.363  0.00  0.00    -0.253 OA
ATOM      4  N   UNL     1      33.840 -16.469 -21.578  0.00  0.00    -0.240 N 
ATOM      5  N   UNL     1      32.939 -14.352 -21.672  0.00  0.00    -0.313 N 
ATOM      6  C   UNL     1      34.700 -17.507 -21.211  0.00  0.00    +0.233 C 
ATOM      7  C   UNL     1      33.937 -15.147 -21.135  0.00  0.00    +0.303 C 
ATOM      8  H   UNL     1      33.106 -16.686 -22.197  0.00  0.00    +0.159 HD
ATOM      9  H   UNL     1      32.893 -13.396 -21.441  0.00  0.00    +0.146 HD
ATOM     10  H   UNL     1      32.276 -14.742 -22.286  0.00  0.00    +0.146 HD
ENDBRANCH   1   6
BRANCH   1  11
ATOM     11  C   UNL     1      34.379 -19.969 -20.882  0.00  0.00    -0.014 C 
ATOM     12  C   UNL     1      33.203 -20.393 -20.293  0.00  0.00    -0.004 C 
ATOM     13  C   UNL     1      35.596 -20.547 -20.583  0.00  0.00    -0.004 C 
ATOM     14  C   UNL     1      33.247 -21.438 -19.370  0.00  0.00    -0.000 C 
ATOM     15  C   UNL     1      35.641 -21.591 -19.659  0.00  0.00    -0.000 C 
ATOM     16  C   UNL     1      34.466 -22.037 -19.053  0.00  0.00    -0.000 C 
ENDBRANCH   1  11
BRANCH   1  17
ATOM     17  C   UNL     1      35.231 -19.075 -23.114  0.00  0.00    +0.013 C 
ATOM     18  C   UNL     1      34.526 -18.796 -24.437  0.00  0.00    +0.001 C 
ENDBRANCH   1  17
TORSDOF 3
ENDMDL
MODEL 2
REMARK VINA RESULT:      -8.6      2.293      3.061
REMARK  Name = 72060
REMARK  3 active torsions:
REMARK  status: ('A' for Active; 'I' for Inactive)
REMARK    1  A    between atoms: C_1  and  C_6
REMARK    2  A    between atoms: C_1  and  C_11
REMARK    3  A    between atoms: C_1  and  C_17
REMARK                            x       y       z     vdW  Elec       q    Type
REMARK                         _______ _______ _______ _____ _____    ______ ____
ROOT
ATOM      1  C   UNL     1      35.009 -17.560 -21.569  0.00  0.00    +0.099 C 
ENDROOT
BRANCH   1   6
ATOM      2  O   UNL     1      35.714 -18.570 -23.662  0.00  0.00    -0.274 OA
ATOM      3  O   UNL     1      34.795 -17.238 -25.964  0.00  0.00    -0.253 OA
ATOM      4  N   UNL     1      34.400 -16.647 -23.739  0.00  0.00    -0.240 N 
ATOM      5  N   UNL     1      33.533 -15.385 -25.458  0.00  0.00    -0.313 N 
ATOM      6  C   UNL     1      35.101 -17.670 -23.094  0.00  0.00    +0.233 C 
ATOM      7  C   UNL     1      34.290 -16.494 -25.124  0.00  0.00    +0.303 C 
ATOM      8  H   UNL     1      33.948 -15.981 -23.173  0.00  0.00    +0.159 HD
ATOM      9  H   UNL     1      33.377 -15.162 -26.404  0.00  0.00    +0.146 HD
ATOM     10  H   UNL     1      33.150 -14.819 -24.750  0.00  0.00    +0.146 HD
ENDBRANCH   1   6
BRANCH   1  11
ATOM     11  C   UNL     1      34.738 -18.924 -20.958  0.00  0.00    -0.014 C 
ATOM     12  C   UNL     1      33.430 -19.346 -20.814  0.00  0.00    -0.004 C 
ATOM     13  C   UNL     1      35.805 -19.706 -20.561  0.00  0.00    -0.004 C 
ATOM     14  C   UNL     1      33.180 -20.599 -20.253  0.00  0.00    -0.000 C 
ATOM     15  C   UNL     1      35.556 -20.957 -19.999  0.00  0.00    -0.000 C 
ATOM     16  C   UNL     1      34.243 -21.405 -19.846  0.00  0.00    -0.000 C 
ENDBRANCH   1  11
BRANCH   1  17
ATOM     17  C   UNL     1      33.957 -16.505 -21.171  0.00  0.00    +0.013 C 
ATOM     18  C   UNL     1      34.558 -15.307 -20.446  0.00  0.00    +0.001 C 
ENDBRANCH   1  17
TORSDOF 3
ENDMDL
MODEL 3
REMARK VINA RESULT:      -7.7      1.482      2.285
REMARK  Name = 72060
REMARK  3 active torsions:
REMARK  status: ('A' for Active; 'I' for Inactive)
REMARK    1  A    between atoms: C_1  and  C_6
REMARK    2  A    between atoms: C_1  and  C_11
REMARK    3  A    between atoms: C_1  and  C_17
REMARK                            x       y       z     vdW  Elec       q    Type
REMARK                         _______ _______ _______ _____ _____    ______ ____
ROOT
ATOM      1  C   UNL     1      34.259 -17.285 -22.506  0.00  0.00    +0.099 C 
ENDROOT
BRANCH   1   6
ATOM      2  O   UNL     1      34.265 -15.998 -20.445  0.00  0.00    -0.274 OA
ATOM      3  O   UNL     1      32.832 -13.579 -20.582  0.00  0.00    -0.253 OA
ATOM      4  N   UNL     1      33.103 -15.157 -22.282  0.00  0.00    -0.240 N 
ATOM      5  N   UNL     1      31.874 -13.244 -22.643  0.00  0.00    -0.313 N 
ATOM      6  C   UNL     1      33.889 -16.097 -21.611  0.00  0.00    +0.233 C 
ATOM      7  C   UNL     1      32.626 -13.964 -21.731  0.00  0.00    +0.303 C 
ATOM      8  H   UNL     1      32.866 -15.350 -23.218  0.00  0.00    +0.159 HD
ATOM      9  H   UNL     1      31.478 -12.381 -22.382  0.00  0.00    +0.146 HD
ATOM     10  H   UNL     1      31.735 -13.594 -23.553  0.00  0.00    +0.146 HD
ENDBRANCH   1   6
BRANCH   1  11
ATOM     11  C   UNL     1      34.772 -18.440 -21.662  0.00  0.00    -0.014 C 
ATOM     12  C   UNL     1      36.130 -18.556 -21.443  0.00  0.00    -0.004 C 
ATOM     13  C   UNL     1      33.867 -19.343 -21.140  0.00  0.00    -0.004 C 
ATOM     14  C   UNL     1      36.603 -19.617 -20.668  0.00  0.00    -0.000 C 
ATOM     15  C   UNL     1      34.339 -20.404 -20.367  0.00  0.00    -0.000 C 
ATOM     16  C   UNL     1      35.707 -20.540 -20.131  0.00  0.00    -0.000 C 
ENDBRANCH   1  11
BRANCH   1  17
ATOM     17  C   UNL     1      35.260 -16.844 -23.592  0.00  0.00    +0.013 C 
ATOM     18  C   UNL     1      34.791 -17.175 -25.004  0.00  0.00    +0.001 C 
ENDBRANCH   1  17
TORSDOF 3
ENDMDL
MODEL 4
REMARK VINA RESULT:      -7.4      8.238      9.721
REMARK  Name = 72060
REMARK  3 active torsions:
REMARK  status: ('A' for Active; 'I' for Inactive)
REMARK    1  A    between atoms: C_1  and  C_6
REMARK    2  A    between atoms: C_1  and  C_11
REMARK    3  A    between atoms: C_1  and  C_17
REMARK                            x       y       z     vdW  Elec       q    Type
REMARK                         _______ _______ _______ _____ _____    ______ ____
ROOT
ATOM      1  C   UNL     1      35.571 -23.618 -15.128  0.00  0.00    +0.099 C 
ENDROOT
BRANCH   1   6
ATOM      2  O   UNL     1      35.763 -25.954 -15.766  0.00  0.00    -0.274 OA
ATOM      3  O   UNL     1      38.017 -27.266 -14.709  0.00  0.00    -0.253 OA
ATOM      4  N   UNL     1      37.392 -25.041 -14.372  0.00  0.00    -0.240 N 
ATOM      5  N   UNL     1      39.294 -25.886 -13.388  0.00  0.00    -0.313 N 
ATOM      6  C   UNL     1      36.224 -25.004 -15.138  0.00  0.00    +0.233 C 
ATOM      7  C   UNL     1      38.211 -26.161 -14.205  0.00  0.00    +0.303 C 
ATOM      8  H   UNL     1      37.659 -24.212 -13.913  0.00  0.00    +0.159 HD
ATOM      9  H   UNL     1      39.952 -26.591 -13.188  0.00  0.00    +0.146 HD
ATOM     10  H   UNL     1      39.408 -24.985 -13.007  0.00  0.00    +0.146 HD
ENDBRANCH   1   6
BRANCH   1  11
ATOM     11  C   UNL     1      34.060 -23.748 -15.032  0.00  0.00    -0.014 C 
ATOM     12  C   UNL     1      33.283 -23.331 -16.095  0.00  0.00    -0.004 C 
ATOM     13  C   UNL     1      33.504 -24.279 -13.885  0.00  0.00    -0.004 C 
ATOM     14  C   UNL     1      31.896 -23.450 -16.009  0.00  0.00    -0.000 C 
ATOM     15  C   UNL     1      32.117 -24.397 -13.797  0.00  0.00    -0.000 C 
ATOM     16  C   UNL     1      31.312 -23.983 -14.859  0.00  0.00    -0.000 C 
ENDBRANCH   1  11
BRANCH   1  17
ATOM     17  C   UNL     1      36.026 -22.804 -16.355  0.00  0.00    +0.013 C 
ATOM     18  C   UNL     1      37.350 -22.082 -16.134  0.00  0.00    +0.001 C 
ENDBRANCH   1  17
TORSDOF 3
ENDMDL
MODEL 5
REMARK VINA RESULT:      -7.4      2.287      4.965
REMARK  Name = 72060
REMARK  3 active torsions:
REMARK  status: ('A' for Active; 'I' for Inactive)
REMARK    1  A    between atoms: C_1  and  C_6
REMARK    2  A    between atoms: C_1  and  C_11
REMARK    3  A    between atoms: C_1  and  C_17
REMARK                            x       y       z     vdW  Elec       q    Type
REMARK                         _______ _______ _______ _____ _____    ______ ____
ROOT
ATOM      1  C   UNL     1      35.287 -17.265 -22.825  0.00  0.00    +0.099 C 
ENDROOT
BRANCH   1   6
ATOM      2  O   UNL     1      36.494 -18.696 -21.277  0.00  0.00    -0.274 OA
ATOM      3  O   UNL     1      34.876 -20.533 -19.888  0.00  0.00    -0.253 OA
ATOM      4  N   UNL     1      34.189 -18.970 -21.482  0.00  0.00    -0.240 N 
ATOM      5  N   UNL     1      32.662 -20.374 -20.483  0.00  0.00    -0.313 N 
ATOM      6  C   UNL     1      35.420 -18.382 -21.784  0.00  0.00    +0.233 C 
ATOM      7  C   UNL     1      33.993 -20.002 -20.560  0.00  0.00    +0.303 C 
ATOM      8  H   UNL     1      33.396 -18.631 -21.957  0.00  0.00    +0.159 HD
ATOM      9  H   UNL     1      32.386 -21.092 -19.868  0.00  0.00    +0.146 HD
ATOM     10  H   UNL     1      31.990 -19.919 -21.041  0.00  0.00    +0.146 HD
ENDBRANCH   1   6
BRANCH   1  11
ATOM     11  C   UNL     1      34.449 -16.125 -22.270  0.00  0.00    -0.014 C 
ATOM     12  C   UNL     1      33.617 -15.429 -23.125  0.00  0.00    -0.004 C 
ATOM     13  C   UNL     1      34.543 -15.815 -20.928  0.00  0.00    -0.004 C 
ATOM     14  C   UNL     1      32.847 -14.383 -22.617  0.00  0.00    -0.000 C 
ATOM     15  C   UNL     1      33.775 -14.768 -20.420  0.00  0.00    -0.000 C 
ATOM     16  C   UNL     1      32.926 -14.052 -21.264  0.00  0.00    -0.000 C 
ENDBRANCH   1  11
BRANCH   1  17
ATOM     17  C   UNL     1      34.730 -17.830 -24.147  0.00  0.00    +0.013 C 
ATOM     18  C   UNL     1      35.038 -19.311 -24.338  0.00  0.00    +0.001 C 
ENDBRANCH   1  17
TORSDOF 3
ENDMDL
MODEL 6
REMARK VINA RESULT:      -7.4      3.666      5.569
REMARK  Name = 72060
REMARK  3 active torsions:
REMARK  status: ('A' for Active; 'I' for Inactive)
REMARK    1  A    between atoms: C_1  and  C_6
REMARK    2  A    between atoms: C_1  and  C_11
REMARK    3  A    between atoms: C_1  and  C_17
REMARK                            x       y       z     vdW  Elec       q    Type
REMARK                         _______ _______ _______ _____ _____    ______ ____
ROOT
ATOM      1  C   UNL     1      33.717 -14.029 -22.233  0.00  0.00    +0.099 C 
ENDROOT
BRANCH   1   6
ATOM      2  O   UNL     1      32.754 -14.021 -24.464  0.00  0.00    -0.274 OA
ATOM      3  O   UNL     1      33.593 -11.878 -26.084  0.00  0.00    -0.253 OA
ATOM      4  N   UNL     1      34.246 -12.326 -23.887  0.00  0.00    -0.240 N 
ATOM      5  N   UNL     1      35.081 -10.497 -25.007  0.00  0.00    -0.313 N 
ATOM      6  C   UNL     1      33.505 -13.487 -23.651  0.00  0.00    +0.233 C 
ATOM      7  C   UNL     1      34.245 -11.598 -25.079  0.00  0.00    +0.303 C 
ATOM      8  H   UNL     1      34.814 -11.995 -23.154  0.00  0.00    +0.159 HD
ATOM      9  H   UNL     1      35.173  -9.897 -25.783  0.00  0.00    +0.146 HD
ATOM     10  H   UNL     1      35.584 -10.313 -24.181  0.00  0.00    +0.146 HD
ENDBRANCH   1   6
BRANCH   1  11
ATOM     11  C   UNL     1      34.349 -15.410 -22.286  0.00  0.00    -0.014 C 
ATOM     12  C   UNL     1      34.719 -15.930 -23.510  0.00  0.00    -0.004 C 
ATOM     13  C   UNL     1      34.536 -16.107 -21.109  0.00  0.00    -0.004 C 
ATOM     14  C   UNL     1      35.301 -17.198 -23.560  0.00  0.00    -0.000 C 
ATOM     15  C   UNL     1      35.116 -17.375 -21.158  0.00  0.00    -0.000 C 
ATOM     16  C   UNL     1      35.499 -17.920 -22.383  0.00  0.00    -0.000 C 
ENDBRANCH   1  11
BRANCH   1  17
ATOM     17  C   UNL     1      32.389 -14.008 -21.449  0.00  0.00    +0.013 C 
ATOM     18  C   UNL     1      31.955 -12.602 -21.051  0.00  0.00    +0.001 C 
ENDBRANCH   1  17
TORSDOF 3
ENDMDL
MODEL 7
REMARK VINA RESULT:      -7.4      3.656      5.525
REMARK  Name = 72060
REMARK  3 active torsions:
REMARK  status: ('A' for Active; 'I' for Inactive)
REMARK    1  A    between atoms: C_1  and  C_6
REMARK    2  A    between atoms: C_1  and  C_11
REMARK    3  A    between atoms: C_1  and  C_17
REMARK                            x       y       z     vdW  Elec       q    Type
REMARK                         _______ _______ _______ _____ _____    ______ ____
ROOT
ATOM      1  C   UNL     1      33.706 -14.048 -22.243  0.00  0.00    +0.099 C 
ENDROOT
BRANCH   1   6
ATOM      2  O   UNL     1      32.765 -14.069 -24.483  0.00  0.00    -0.274 OA
ATOM      3  O   UNL     1      33.604 -11.936 -26.116  0.00  0.00    -0.253 OA
ATOM      4  N   UNL     1      34.239 -12.358 -23.908  0.00  0.00    -0.240 N 
ATOM      5  N   UNL     1      35.072 -10.534 -25.039  0.00  0.00    -0.313 N 
ATOM      6  C   UNL     1      33.504 -13.522 -23.668  0.00  0.00    +0.233 C 
ATOM      7  C   UNL     1      34.245 -11.641 -25.108  0.00  0.00    +0.303 C 
ATOM      8  H   UNL     1      34.798 -12.015 -23.174  0.00  0.00    +0.159 HD
ATOM      9  H   UNL     1      35.167  -9.941 -25.819  0.00  0.00    +0.146 HD
ATOM     10  H   UNL     1      35.566 -10.338 -24.210  0.00  0.00    +0.146 HD
ENDBRANCH   1   6
BRANCH   1  11
ATOM     11  C   UNL     1      34.343 -15.428 -22.277  0.00  0.00    -0.014 C 
ATOM     12  C   UNL     1      34.532 -16.106 -21.089  0.00  0.00    -0.004 C 
ATOM     13  C   UNL     1      34.716 -15.965 -23.493  0.00  0.00    -0.004 C 
ATOM     14  C   UNL     1      35.116 -17.373 -21.118  0.00  0.00    -0.000 C 
ATOM     15  C   UNL     1      35.301 -17.231 -23.522  0.00  0.00    -0.000 C 
ATOM     16  C   UNL     1      35.501 -17.935 -22.335  0.00  0.00    -0.000 C 
ENDBRANCH   1  11
BRANCH   1  17
ATOM     17  C   UNL     1      32.373 -14.022 -21.470  0.00  0.00    +0.013 C 
ATOM     18  C   UNL     1      31.964 -12.619 -21.035  0.00  0.00    +0.001 C 
ENDBRANCH   1  17
TORSDOF 3
ENDMDL
MODEL 8
REMARK VINA RESULT:      -7.3      4.762      7.754
REMARK  Name = 72060
REMARK  3 active torsions:
REMARK  status: ('A' for Active; 'I' for Inactive)
REMARK    1  A    between atoms: C_1  and  C_6
REMARK    2  A    between atoms: C_1  and  C_11
REMARK    3  A    between atoms: C_1  and  C_17
REMARK                            x       y       z     vdW  Elec       q    Type
REMARK                         _______ _______ _______ _____ _____    ______ ____
ROOT
ATOM      1  C   UNL     1      32.809 -14.014 -22.806  0.00  0.00    +0.099 C 
ENDROOT
BRANCH   1   6
ATOM      2  O   UNL     1      32.927 -14.499 -25.183  0.00  0.00    -0.274 OA
ATOM      3  O   UNL     1      34.598 -16.664 -25.846  0.00  0.00    -0.253 OA
ATOM      4  N   UNL     1      34.149 -15.830 -23.711  0.00  0.00    -0.240 N 
ATOM      5  N   UNL     1      35.561 -17.626 -23.995  0.00  0.00    -0.313 N 
ATOM      6  C   UNL     1      33.278 -14.789 -24.042  0.00  0.00    +0.233 C 
ATOM      7  C   UNL     1      34.752 -16.698 -24.626  0.00  0.00    +0.303 C 
ATOM      8  H   UNL     1      34.355 -15.963 -22.758  0.00  0.00    +0.159 HD
ATOM      9  H   UNL     1      36.047 -18.298 -24.526  0.00  0.00    +0.146 HD
ATOM     10  H   UNL     1      35.653 -17.614 -23.014  0.00  0.00    +0.146 HD
ENDBRANCH   1   6
BRANCH   1  11
ATOM     11  C   UNL     1      32.876 -12.518 -23.064  0.00  0.00    -0.014 C 
ATOM     12  C   UNL     1      32.000 -11.684 -22.398  0.00  0.00    -0.004 C 
ATOM     13  C   UNL     1      33.809 -12.033 -23.959  0.00  0.00    -0.004 C 
ATOM     14  C   UNL     1      32.060 -10.310 -22.635  0.00  0.00    -0.000 C 
ATOM     15  C   UNL     1      33.869 -10.660 -24.197  0.00  0.00    -0.000 C 
ATOM     16  C   UNL     1      32.995  -9.798 -23.534  0.00  0.00    -0.000 C 
ENDBRANCH   1  11
BRANCH   1  17
ATOM     17  C   UNL     1      33.618 -14.445 -21.566  0.00  0.00    +0.013 C 
ATOM     18  C   UNL     1      32.742 -14.982 -20.440  0.00  0.00    +0.001 C 
ENDBRANCH   1  17
TORSDOF 3
ENDMDL
MODEL 9
REMARK VINA RESULT:      -7.3      7.331      9.831
REMARK  Name = 72060
REMARK  3 active torsions:
REMARK  status: ('A' for Active; 'I' for Inactive)
REMARK    1  A    between atoms: C_1  and  C_6
REMARK    2  A    between atoms: C_1  and  C_11
REMARK    3  A    between atoms: C_1  and  C_17
REMARK                            x       y       z     vdW  Elec       q    Type
REMARK                         _______ _______ _______ _____ _____    ______ ____
ROOT
ATOM      1  C   UNL     1      35.427 -24.029 -14.852  0.00  0.00    +0.099 C 
ENDROOT
BRANCH   1   6
ATOM      2  O   UNL     1      35.843 -26.299 -15.608  0.00  0.00    -0.274 OA
ATOM      3  O   UNL     1      38.334 -27.348 -14.824  0.00  0.00    -0.253 OA
ATOM      4  N   UNL     1      37.475 -25.232 -14.332  0.00  0.00    -0.240 N 
ATOM      5  N   UNL     1      39.554 -25.860 -13.567  0.00  0.00    -0.313 N 
ATOM      6  C   UNL     1      36.242 -25.319 -14.984  0.00  0.00    +0.233 C 
ATOM      7  C   UNL     1      38.439 -26.244 -14.291  0.00  0.00    +0.303 C 
ATOM      8  H   UNL     1      37.682 -24.391 -13.863  0.00  0.00    +0.159 HD
ATOM      9  H   UNL     1      40.310 -26.481 -13.461  0.00  0.00    +0.146 HD
ATOM     10  H   UNL     1      39.592 -24.965 -13.158  0.00  0.00    +0.146 HD
ENDBRANCH   1   6
BRANCH   1  11
ATOM     11  C   UNL     1      35.515 -23.217 -16.133  0.00  0.00    -0.014 C 
ATOM     12  C   UNL     1      36.682 -22.534 -16.414  0.00  0.00    -0.004 C 
ATOM     13  C   UNL     1      34.426 -23.183 -16.982  0.00  0.00    -0.004 C 
ATOM     14  C   UNL     1      36.763 -21.788 -17.591  0.00  0.00    -0.000 C 
ATOM     15  C   UNL     1      34.506 -22.437 -18.157  0.00  0.00    -0.000 C 
ATOM     16  C   UNL     1      35.676 -21.739 -18.462  0.00  0.00    -0.000 C 
ENDBRANCH   1  11
BRANCH   1  17
ATOM     17  C   UNL     1      35.878 -23.237 -13.608  0.00  0.00    +0.013 C 
ATOM     18  C   UNL     1      35.268 -23.762 -12.314  0.00  0.00    +0.001 C 
ENDBRANCH   1  17
TORSDOF 3
ENDMDL
