MODEL 1
REMARK VINA RESULT:      -7.4      0.000      0.000
REMARK  Name = 3610
REMARK  7 active torsions:
REMARK  status: ('A' for Active; 'I' for Inactive)
REMARK    1  A    between atoms: C_1  and  C_11
REMARK    2  A    between atoms: C_2  and  O_7
REMARK    3  A    between atoms: C_6  and  O_9
REMARK    4  A    between atoms: C_11  and  C_12
REMARK    5  A    between atoms: C_12  and  C_13
REMARK    6  A    between atoms: C_13  and  C_14
REMARK    7  A    between atoms: C_14  and  C_15
REMARK                            x       y       z     vdW  Elec       q    Type
REMARK                         _______ _______ _______ _____ _____    ______ ____
ROOT
ATOM      1  C   UNL     1      34.805 -18.629 -22.287  0.00  0.00    +0.012 C 
ATOM      2  C   UNL     1      34.927 -17.248 -22.284  0.00  0.00    +0.133 C 
ATOM      3  C   UNL     1      34.668 -19.333 -23.475  0.00  0.00    +0.002 C 
ATOM      4  C   UNL     1      34.912 -16.554 -23.494  0.00  0.00    +0.073 C 
ATOM      5  C   UNL     1      34.654 -18.640 -24.685  0.00  0.00    +0.036 C 
ATOM      6  C   UNL     1      34.775 -17.251 -24.694  0.00  0.00    +0.137 C 
ENDROOT
BRANCH   2   7
ATOM      7  O   UNL     1      35.063 -16.552 -21.119  0.00  0.00    -0.506 OA
ATOM      8  H   UNL     1      34.491 -15.834 -20.933  0.00  0.00    +0.292 HD
ENDBRANCH   2   7
BRANCH   6   9
ATOM      9  O   UNL     1      34.760 -16.575 -25.876  0.00  0.00    -0.505 OA
ATOM     10  H   UNL     1      34.015 -16.056 -26.109  0.00  0.00    +0.292 HD
ENDBRANCH   6   9
BRANCH   1  11
ATOM     11  C   UNL     1      34.819 -19.396 -20.988  0.00  0.00    +0.029 C 
BRANCH  11  12
ATOM     12  C   UNL     1      33.436 -19.957 -20.648  0.00  0.00    +0.005 C 
BRANCH  12  13
ATOM     13  C   UNL     1      33.541 -21.164 -19.714  0.00  0.00    +0.000 C 
BRANCH  13  14
ATOM     14  C   UNL     1      34.982 -21.666 -19.614  0.00  0.00    +0.000 C 
BRANCH  14  15
ATOM     15  C   UNL     1      35.320 -22.107 -18.190  0.00  0.00    +0.000 C 
ATOM     16  C   UNL     1      36.751 -21.750 -17.821  0.00  0.00    +0.000 C 
ENDBRANCH  14  15
ENDBRANCH  13  14
ENDBRANCH  12  13
ENDBRANCH  11  12
ENDBRANCH   1  11
TORSDOF 7
ENDMDL
MODEL 2
REMARK VINA RESULT:      -7.3      1.237      1.604
REMARK  Name = 3610
REMARK  7 active torsions:
REMARK  status: ('A' for Active; 'I' for Inactive)
REMARK    1  A    between atoms: C_1  and  C_11
REMARK    2  A    between atoms: C_2  and  O_7
REMARK    3  A    between atoms: C_6  and  O_9
REMARK    4  A    between atoms: C_11  and  C_12
REMARK    5  A    between atoms: C_12  and  C_13
REMARK    6  A    between atoms: C_13  and  C_14
REMARK    7  A    between atoms: C_14  and  C_15
REMARK                            x       y       z     vdW  Elec       q    Type
REMARK                         _______ _______ _______ _____ _____    ______ ____
ROOT
ATOM      1  C   UNL     1      35.098 -17.710 -22.735  0.00  0.00    +0.012 C 
ATOM      2  C   UNL     1      34.740 -16.370 -22.703  0.00  0.00    +0.133 C 
ATOM      3  C   UNL     1      35.048 -18.435 -23.917  0.00  0.00    +0.002 C 
ATOM      4  C   UNL     1      34.323 -15.742 -23.876  0.00  0.00    +0.073 C 
ATOM      5  C   UNL     1      34.632 -17.807 -25.091  0.00  0.00    +0.036 C 
ATOM      6  C   UNL     1      34.269 -16.461 -25.070  0.00  0.00    +0.137 C 
ENDROOT
BRANCH   2   7
ATOM      7  O   UNL     1      34.788 -15.653 -21.544  0.00  0.00    -0.506 OA
ATOM      8  H   UNL     1      35.446 -15.841 -20.905  0.00  0.00    +0.292 HD
ENDBRANCH   2   7
BRANCH   6   9
ATOM      9  O   UNL     1      33.862 -15.849 -26.216  0.00  0.00    -0.505 OA
ATOM     10  H   UNL     1      34.441 -15.265 -26.667  0.00  0.00    +0.292 HD
ENDBRANCH   6   9
BRANCH   1  11
ATOM     11  C   UNL     1      35.551 -18.406 -21.477  0.00  0.00    +0.029 C 
BRANCH  11  12
ATOM     12  C   UNL     1      34.880 -19.772 -21.314  0.00  0.00    +0.005 C 
BRANCH  12  13
ATOM     13  C   UNL     1      33.405 -19.624 -20.935  0.00  0.00    +0.000 C 
BRANCH  13  14
ATOM     14  C   UNL     1      33.003 -20.636 -19.862  0.00  0.00    +0.000 C 
BRANCH  14  15
ATOM     15  C   UNL     1      34.180 -21.534 -19.477  0.00  0.00    +0.000 C 
ATOM     16  C   UNL     1      33.728 -22.709 -18.624  0.00  0.00    +0.000 C 
ENDBRANCH  14  15
ENDBRANCH  13  14
ENDBRANCH  12  13
ENDBRANCH  11  12
ENDBRANCH   1  11
TORSDOF 7
ENDMDL
MODEL 3
REMARK VINA RESULT:      -7.3      2.558      5.700
REMARK  Name = 3610
REMARK  7 active torsions:
REMARK  status: ('A' for Active; 'I' for Inactive)
REMARK    1  A    between atoms: C_1  and  C_11
REMARK    2  A    between atoms: C_2  and  O_7
REMARK    3  A    between atoms: C_6  and  O_9
REMARK    4  A    between atoms: C_11  and  C_12
REMARK    5  A    between atoms: C_12  and  C_13
REMARK    6  A    between atoms: C_13  and  C_14
REMARK    7  A    between atoms: C_14  and  C_15
REMARK                            x       y       z     vdW  Elec       q    Type
REMARK                         _______ _______ _______ _____ _____    ______ ____
ROOT
ATOM      1  C   UNL     1      34.977 -19.533 -20.998  0.00  0.00    +0.012 C 
ATOM      2  C   UNL     1      35.610 -20.512 -20.247  0.00  0.00    +0.133 C 
ATOM      3  C   UNL     1      33.593 -19.443 -21.036  0.00  0.00    +0.002 C 
ATOM      4  C   UNL     1      34.844 -21.422 -19.519  0.00  0.00    +0.073 C 
ATOM      5  C   UNL     1      32.826 -20.352 -20.308  0.00  0.00    +0.036 C 
ATOM      6  C   UNL     1      33.452 -21.342 -19.550  0.00  0.00    +0.137 C 
ENDROOT
BRANCH   2   7
ATOM      7  O   UNL     1      36.970 -20.604 -20.206  0.00  0.00    -0.506 OA
ATOM      8  H   UNL     1      37.385 -21.441 -20.263  0.00  0.00    +0.292 HD
ENDBRANCH   2   7
BRANCH   6   9
ATOM      9  O   UNL     1      32.703 -22.229 -18.840  0.00  0.00    -0.505 OA
ATOM     10  H   UNL     1      32.346 -21.983 -18.008  0.00  0.00    +0.292 HD
ENDBRANCH   6   9
BRANCH   1  11
ATOM     11  C   UNL     1      35.789 -18.541 -21.791  0.00  0.00    +0.029 C 
BRANCH  11  12
ATOM     12  C   UNL     1      35.338 -18.481 -23.252  0.00  0.00    +0.005 C 
BRANCH  12  13
ATOM     13  C   UNL     1      34.964 -17.053 -23.659  0.00  0.00    +0.000 C 
BRANCH  13  14
ATOM     14  C   UNL     1      34.922 -16.123 -22.447  0.00  0.00    +0.000 C 
BRANCH  14  15
ATOM     15  C   UNL     1      33.556 -15.448 -22.313  0.00  0.00    +0.000 C 
ATOM     16  C   UNL     1      32.941 -15.703 -20.945  0.00  0.00    +0.000 C 
ENDBRANCH  14  15
ENDBRANCH  13  14
ENDBRANCH  12  13
ENDBRANCH  11  12
ENDBRANCH   1  11
TORSDOF 7
ENDMDL
MODEL 4
REMARK VINA RESULT:      -7.2      2.823      6.108
REMARK  Name = 3610
REMARK  7 active torsions:
REMARK  status: ('A' for Active; 'I' for Inactive)
REMARK    1  A    between atoms: C_1  and  C_11
REMARK    2  A    between atoms: C_2  and  O_7
REMARK    3  A    between atoms: C_6  and  O_9
REMARK    4  A    between atoms: C_11  and  C_12
REMARK    5  A    between atoms: C_12  and  C_13
REMARK    6  A    between atoms: C_13  and  C_14
REMARK    7  A    between atoms: C_14  and  C_15
REMARK                            x       y       z     vdW  Elec       q    Type
REMARK                         _______ _______ _______ _____ _____    ______ ____
ROOT
ATOM      1  C   UNL     1      34.642 -20.002 -20.765  0.00  0.00    +0.012 C 
ATOM      2  C   UNL     1      33.470 -20.596 -20.321  0.00  0.00    +0.133 C 
ATOM      3  C   UNL     1      35.876 -20.400 -20.273  0.00  0.00    +0.002 C 
ATOM      4  C   UNL     1      33.533 -21.610 -19.365  0.00  0.00    +0.073 C 
ATOM      5  C   UNL     1      35.941 -21.414 -19.317  0.00  0.00    +0.036 C 
ATOM      6  C   UNL     1      34.769 -22.018 -18.864  0.00  0.00    +0.137 C 
ENDROOT
BRANCH   2   7
ATOM      7  O   UNL     1      32.254 -20.209 -20.802  0.00  0.00    -0.506 OA
ATOM      8  H   UNL     1      32.168 -19.395 -21.257  0.00  0.00    +0.292 HD
ENDBRANCH   2   7
BRANCH   6   9
ATOM      9  O   UNL     1      34.831 -23.007 -17.930  0.00  0.00    -0.505 OA
ATOM     10  H   UNL     1      35.507 -22.997 -17.281  0.00  0.00    +0.292 HD
ENDBRANCH   6   9
BRANCH   1  11
ATOM     11  C   UNL     1      34.593 -18.904 -21.798  0.00  0.00    +0.029 C 
BRANCH  11  12
ATOM     12  C   UNL     1      35.458 -17.709 -21.394  0.00  0.00    +0.005 C 
BRANCH  12  13
ATOM     13  C   UNL     1      34.789 -16.386 -21.774  0.00  0.00    +0.000 C 
BRANCH  13  14
ATOM     14  C   UNL     1      34.428 -15.569 -20.533  0.00  0.00    +0.000 C 
BRANCH  14  15
ATOM     15  C   UNL     1      32.947 -15.188 -20.530  0.00  0.00    +0.000 C 
ATOM     16  C   UNL     1      32.544 -14.512 -21.832  0.00  0.00    +0.000 C 
ENDBRANCH  14  15
ENDBRANCH  13  14
ENDBRANCH  12  13
ENDBRANCH  11  12
ENDBRANCH   1  11
TORSDOF 7
ENDMDL
MODEL 5
REMARK VINA RESULT:      -7.2      2.599      6.032
REMARK  Name = 3610
REMARK  7 active torsions:
REMARK  status: ('A' for Active; 'I' for Inactive)
REMARK    1  A    between atoms: C_1  and  C_11
REMARK    2  A    between atoms: C_2  and  O_7
REMARK    3  A    between atoms: C_6  and  O_9
REMARK    4  A    between atoms: C_11  and  C_12
REMARK    5  A    between atoms: C_12  and  C_13
REMARK    6  A    between atoms: C_13  and  C_14
REMARK    7  A    between atoms: C_14  and  C_15
REMARK                            x       y       z     vdW  Elec       q    Type
REMARK                         _______ _______ _______ _____ _____    ______ ____
ROOT
ATOM      1  C   UNL     1      34.987 -19.659 -20.886  0.00  0.00    +0.012 C 
ATOM      2  C   UNL     1      35.614 -20.644 -20.138  0.00  0.00    +0.133 C 
ATOM      3  C   UNL     1      33.603 -19.569 -20.933  0.00  0.00    +0.002 C 
ATOM      4  C   UNL     1      34.843 -21.558 -19.421  0.00  0.00    +0.073 C 
ATOM      5  C   UNL     1      32.831 -20.483 -20.217  0.00  0.00    +0.036 C 
ATOM      6  C   UNL     1      33.451 -21.478 -19.461  0.00  0.00    +0.137 C 
ENDROOT
BRANCH   2   7
ATOM      7  O   UNL     1      36.974 -20.735 -20.087  0.00  0.00    -0.506 OA
ATOM      8  H   UNL     1      37.501 -19.983 -20.272  0.00  0.00    +0.292 HD
ENDBRANCH   2   7
BRANCH   6   9
ATOM      9  O   UNL     1      32.698 -22.371 -18.763  0.00  0.00    -0.505 OA
ATOM     10  H   UNL     1      32.475 -23.197 -19.145  0.00  0.00    +0.292 HD
ENDBRANCH   6   9
BRANCH   1  11
ATOM     11  C   UNL     1      35.804 -18.661 -21.667  0.00  0.00    +0.029 C 
BRANCH  11  12
ATOM     12  C   UNL     1      35.267 -17.238 -21.502  0.00  0.00    +0.005 C 
BRANCH  12  13
ATOM     13  C   UNL     1      34.878 -16.631 -22.852  0.00  0.00    +0.000 C 
BRANCH  13  14
ATOM     14  C   UNL     1      35.001 -17.658 -23.979  0.00  0.00    +0.000 C 
BRANCH  14  15
ATOM     15  C   UNL     1      34.650 -17.042 -25.333  0.00  0.00    +0.000 C 
ATOM     16  C   UNL     1      33.795 -15.794 -25.172  0.00  0.00    +0.000 C 
ENDBRANCH  14  15
ENDBRANCH  13  14
ENDBRANCH  12  13
ENDBRANCH  11  12
ENDBRANCH   1  11
TORSDOF 7
ENDMDL
MODEL 6
REMARK VINA RESULT:      -7.1      1.905      3.227
REMARK  Name = 3610
REMARK  7 active torsions:
REMARK  status: ('A' for Active; 'I' for Inactive)
REMARK    1  A    between atoms: C_1  and  C_11
REMARK    2  A    between atoms: C_2  and  O_7
REMARK    3  A    between atoms: C_6  and  O_9
REMARK    4  A    between atoms: C_11  and  C_12
REMARK    5  A    between atoms: C_12  and  C_13
REMARK    6  A    between atoms: C_13  and  C_14
REMARK    7  A    between atoms: C_14  and  C_15
REMARK                            x       y       z     vdW  Elec       q    Type
REMARK                         _______ _______ _______ _____ _____    ______ ____
ROOT
ATOM      1  C   UNL     1      34.960 -17.030 -23.483  0.00  0.00    +0.012 C 
ATOM      2  C   UNL     1      34.443 -16.818 -24.752  0.00  0.00    +0.133 C 
ATOM      3  C   UNL     1      34.869 -16.054 -22.501  0.00  0.00    +0.002 C 
ATOM      4  C   UNL     1      33.822 -15.605 -25.048  0.00  0.00    +0.073 C 
ATOM      5  C   UNL     1      34.247 -14.840 -22.796  0.00  0.00    +0.036 C 
ATOM      6  C   UNL     1      33.724 -14.616 -24.069  0.00  0.00    +0.137 C 
ENDROOT
BRANCH   2   7
ATOM      7  O   UNL     1      34.529 -17.775 -25.720  0.00  0.00    -0.506 OA
ATOM      8  H   UNL     1      34.066 -17.669 -26.526  0.00  0.00    +0.292 HD
ENDBRANCH   2   7
BRANCH   6   9
ATOM      9  O   UNL     1      33.119 -13.432 -24.356  0.00  0.00    -0.505 OA
ATOM     10  H   UNL     1      33.592 -12.628 -24.262  0.00  0.00    +0.292 HD
ENDBRANCH   6   9
BRANCH   1  11
ATOM     11  C   UNL     1      35.635 -18.335 -23.145  0.00  0.00    +0.029 C 
BRANCH  11  12
ATOM     12  C   UNL     1      35.901 -18.463 -21.644  0.00  0.00    +0.005 C 
BRANCH  12  13
ATOM     13  C   UNL     1      35.155 -19.659 -21.048  0.00  0.00    +0.000 C 
BRANCH  13  14
ATOM     14  C   UNL     1      33.648 -19.408 -21.002  0.00  0.00    +0.000 C 
BRANCH  14  15
ATOM     15  C   UNL     1      32.933 -20.466 -20.162  0.00  0.00    +0.000 C 
ATOM     16  C   UNL     1      33.920 -21.445 -19.544  0.00  0.00    +0.000 C 
ENDBRANCH  14  15
ENDBRANCH  13  14
ENDBRANCH  12  13
ENDBRANCH  11  12
ENDBRANCH   1  11
TORSDOF 7
ENDMDL
MODEL 7
REMARK VINA RESULT:      -7.0      2.305      3.455
REMARK  Name = 3610
REMARK  7 active torsions:
REMARK  status: ('A' for Active; 'I' for Inactive)
REMARK    1  A    between atoms: C_1  and  C_11
REMARK    2  A    between atoms: C_2  and  O_7
REMARK    3  A    between atoms: C_6  and  O_9
REMARK    4  A    between atoms: C_11  and  C_12
REMARK    5  A    between atoms: C_12  and  C_13
REMARK    6  A    between atoms: C_13  and  C_14
REMARK    7  A    between atoms: C_14  and  C_15
REMARK                            x       y       z     vdW  Elec       q    Type
REMARK                         _______ _______ _______ _____ _____    ______ ____
ROOT
ATOM      1  C   UNL     1      34.362 -16.179 -21.663  0.00  0.00    +0.012 C 
ATOM      2  C   UNL     1      34.608 -15.557 -22.878  0.00  0.00    +0.133 C 
ATOM      3  C   UNL     1      33.318 -15.768 -20.847  0.00  0.00    +0.002 C 
ATOM      4  C   UNL     1      33.793 -14.502 -23.287  0.00  0.00    +0.073 C 
ATOM      5  C   UNL     1      32.502 -14.713 -21.256  0.00  0.00    +0.036 C 
ATOM      6  C   UNL     1      32.740 -14.081 -22.475  0.00  0.00    +0.137 C 
ENDROOT
BRANCH   2   7
ATOM      7  O   UNL     1      35.633 -15.958 -23.683  0.00  0.00    -0.506 OA
ATOM      8  H   UNL     1      35.561 -15.867 -24.612  0.00  0.00    +0.292 HD
ENDBRANCH   2   7
BRANCH   6   9
ATOM      9  O   UNL     1      31.944 -13.051 -22.873  0.00  0.00    -0.505 OA
ATOM     10  H   UNL     1      31.967 -12.234 -22.413  0.00  0.00    +0.292 HD
ENDBRANCH   6   9
BRANCH   1  11
ATOM     11  C   UNL     1      35.233 -17.321 -21.204  0.00  0.00    +0.029 C 
BRANCH  11  12
ATOM     12  C   UNL     1      35.105 -18.535 -22.126  0.00  0.00    +0.005 C 
BRANCH  12  13
ATOM     13  C   UNL     1      34.772 -19.802 -21.334  0.00  0.00    +0.000 C 
BRANCH  13  14
ATOM     14  C   UNL     1      33.382 -19.712 -20.702  0.00  0.00    +0.000 C 
BRANCH  14  15
ATOM     15  C   UNL     1      33.068 -20.957 -19.873  0.00  0.00    +0.000 C 
ATOM     16  C   UNL     1      34.338 -21.662 -19.422  0.00  0.00    +0.000 C 
ENDBRANCH  14  15
ENDBRANCH  13  14
ENDBRANCH  12  13
ENDBRANCH  11  12
ENDBRANCH   1  11
TORSDOF 7
ENDMDL
MODEL 8
REMARK VINA RESULT:      -6.9      2.128      3.450
REMARK  Name = 3610
REMARK  7 active torsions:
REMARK  status: ('A' for Active; 'I' for Inactive)
REMARK    1  A    between atoms: C_1  and  C_11
REMARK    2  A    between atoms: C_2  and  O_7
REMARK    3  A    between atoms: C_6  and  O_9
REMARK    4  A    between atoms: C_11  and  C_12
REMARK    5  A    between atoms: C_12  and  C_13
REMARK    6  A    between atoms: C_13  and  C_14
REMARK    7  A    between atoms: C_14  and  C_15
REMARK                            x       y       z     vdW  Elec       q    Type
REMARK                         _______ _______ _______ _____ _____    ______ ____
ROOT
ATOM      1  C   UNL     1      34.599 -16.178 -22.523  0.00  0.00    +0.012 C 
ATOM      2  C   UNL     1      34.356 -15.703 -21.243  0.00  0.00    +0.133 C 
ATOM      3  C   UNL     1      33.952 -15.635 -23.623  0.00  0.00    +0.002 C 
ATOM      4  C   UNL     1      33.447 -14.661 -21.058  0.00  0.00    +0.073 C 
ATOM      5  C   UNL     1      33.042 -14.593 -23.439  0.00  0.00    +0.036 C 
ATOM      6  C   UNL     1      32.790 -14.107 -22.156  0.00  0.00    +0.137 C 
ENDROOT
BRANCH   2   7
ATOM      7  O   UNL     1      34.991 -16.233 -20.159  0.00  0.00    -0.506 OA
ATOM      8  H   UNL     1      34.520 -16.369 -19.360  0.00  0.00    +0.292 HD
ENDBRANCH   2   7
BRANCH   6   9
ATOM      9  O   UNL     1      31.902 -13.092 -21.977  0.00  0.00    -0.505 OA
ATOM     10  H   UNL     1      31.936 -12.571 -21.197  0.00  0.00    +0.292 HD
ENDBRANCH   6   9
BRANCH   1  11
ATOM     11  C   UNL     1      35.579 -17.303 -22.742  0.00  0.00    +0.029 C 
BRANCH  11  12
ATOM     12  C   UNL     1      34.866 -18.643 -22.941  0.00  0.00    +0.005 C 
BRANCH  12  13
ATOM     13  C   UNL     1      34.874 -19.472 -21.655  0.00  0.00    +0.000 C 
BRANCH  13  14
ATOM     14  C   UNL     1      33.536 -19.374 -20.922  0.00  0.00    +0.000 C 
BRANCH  14  15
ATOM     15  C   UNL     1      33.219 -20.666 -20.168  0.00  0.00    +0.000 C 
ATOM     16  C   UNL     1      34.484 -21.328 -19.643  0.00  0.00    +0.000 C 
ENDBRANCH  14  15
ENDBRANCH  13  14
ENDBRANCH  12  13
ENDBRANCH  11  12
ENDBRANCH   1  11
TORSDOF 7
ENDMDL
MODEL 9
REMARK VINA RESULT:      -6.7      3.052      4.681
REMARK  Name = 3610
REMARK  7 active torsions:
REMARK  status: ('A' for Active; 'I' for Inactive)
REMARK    1  A    between atoms: C_1  and  C_11
REMARK    2  A    between atoms: C_2  and  O_7
REMARK    3  A    between atoms: C_6  and  O_9
REMARK    4  A    between atoms: C_11  and  C_12
REMARK    5  A    between atoms: C_12  and  C_13
REMARK    6  A    between atoms: C_13  and  C_14
REMARK    7  A    between atoms: C_14  and  C_15
REMARK                            x       y       z     vdW  Elec       q    Type
REMARK                         _______ _______ _______ _____ _____    ______ ____
ROOT
ATOM      1  C   UNL     1      34.263 -21.390 -19.598  0.00  0.00    +0.012 C 
ATOM      2  C   UNL     1      35.469 -20.877 -20.051  0.00  0.00    +0.133 C 
ATOM      3  C   UNL     1      33.059 -20.778 -19.918  0.00  0.00    +0.002 C 
ATOM      4  C   UNL     1      35.473 -19.728 -20.842  0.00  0.00    +0.073 C 
ATOM      5  C   UNL     1      33.062 -19.630 -20.709  0.00  0.00    +0.036 C 
ATOM      6  C   UNL     1      34.269 -19.105 -21.171  0.00  0.00    +0.137 C 
ENDROOT
BRANCH   2   7
ATOM      7  O   UNL     1      36.654 -21.475 -19.740  0.00  0.00    -0.506 OA
ATOM      8  H   UNL     1      36.951 -22.211 -20.237  0.00  0.00    +0.292 HD
ENDBRANCH   2   7
BRANCH   6   9
ATOM      9  O   UNL     1      34.272 -17.983 -21.942  0.00  0.00    -0.505 OA
ATOM     10  H   UNL     1      33.555 -17.809 -22.520  0.00  0.00    +0.292 HD
ENDBRANCH   6   9
BRANCH   1  11
ATOM     11  C   UNL     1      34.239 -22.631 -18.742  0.00  0.00    +0.029 C 
BRANCH  11  12
ATOM     12  C   UNL     1      32.986 -22.690 -17.866  0.00  0.00    +0.005 C 
BRANCH  12  13
ATOM     13  C   UNL     1      33.267 -23.406 -16.543  0.00  0.00    +0.000 C 
BRANCH  13  14
ATOM     14  C   UNL     1      32.122 -23.206 -15.549  0.00  0.00    +0.000 C 
BRANCH  14  15
ATOM     15  C   UNL     1      30.786 -23.027 -16.270  0.00  0.00    +0.000 C 
ATOM     16  C   UNL     1      29.646 -22.816 -15.285  0.00  0.00    +0.000 C 
ENDBRANCH  14  15
ENDBRANCH  13  14
ENDBRANCH  12  13
ENDBRANCH  11  12
ENDBRANCH   1  11
TORSDOF 7
ENDMDL
