MODEL 1
REMARK VINA RESULT:      -5.4      0.000      0.000
REMARK  Name = 656655
REMARK  9 active torsions:
REMARK  status: ('A' for Active; 'I' for Inactive)
REMARK    1  A    between atoms: C_1  and  O_2
REMARK    2  A    between atoms: C_1  and  C_4
REMARK    3  A    between atoms: C_1  and  C_12
REMARK    4  A    between atoms: C_4  and  O_5
REMARK    5  A    between atoms: C_4  and  C_7
REMARK    6  A    between atoms: C_7  and  C_9
REMARK    7  A    between atoms: C_7  and  O_10
REMARK    8  A    between atoms: C_12  and  C_14
REMARK    9  A    between atoms: C_12  and  O_15
REMARK                            x       y       z     vdW  Elec       q    Type
REMARK                         _______ _______ _______ _____ _____    ______ ____
ROOT
ATOM      1  C   UNL     1      35.840 -24.539 -14.381  0.00  0.00    +0.167 C 
ENDROOT
BRANCH   1   2
ATOM      2  O   UNL     1      34.553 -25.109 -14.119  0.00  0.00    -0.379 OA
ATOM      3  H   UNL     1      34.663 -25.968 -13.682  0.00  0.00    +0.211 HD
ENDBRANCH   1   2
BRANCH   1   4
ATOM      4  C   UNL     1      36.782 -25.672 -14.839  0.00  0.00    +0.167 C 
BRANCH   4   5
ATOM      5  O   UNL     1      36.029 -26.674 -15.535  0.00  0.00    -0.379 OA
ATOM      6  H   UNL     1      35.450 -27.136 -14.909  0.00  0.00    +0.211 HD
ENDBRANCH   4   5
BRANCH   4   7
ATOM      7  C   UNL     1      37.585 -26.363 -13.724  0.00  0.00    +0.151 C 
BRANCH   7   9
ATOM      8 BR   UNL     1      40.012 -25.412 -14.900  0.00  0.00    -0.078 Br
ATOM      9  C   UNL     1      38.852 -25.613 -13.337  0.00  0.00    +0.099 C 
ENDBRANCH   7   9
BRANCH   7  10
ATOM     10  O   UNL     1      36.724 -26.420 -12.578  0.00  0.00    -0.381 OA
ATOM     11  H   UNL     1      35.812 -26.236 -12.849  0.00  0.00    +0.210 HD
ENDBRANCH   7  10
ENDBRANCH   4   7
ENDBRANCH   1   4
BRANCH   1  12
ATOM     12  C   UNL     1      35.673 -23.363 -15.363  0.00  0.00    +0.151 C 
BRANCH  12  14
ATOM     13 BR   UNL     1      36.841 -21.733 -17.404  0.00  0.00    -0.078 Br
ATOM     14  C   UNL     1      37.024 -22.774 -15.760  0.00  0.00    +0.099 C 
ENDBRANCH  12  14
BRANCH  12  15
ATOM     15  O   UNL     1      35.008 -23.817 -16.541  0.00  0.00    -0.381 OA
ATOM     16  H   UNL     1      34.159 -23.356 -16.632  0.00  0.00    +0.210 HD
ENDBRANCH  12  15
ENDBRANCH   1  12
TORSDOF 9
ENDMDL
MODEL 2
REMARK VINA RESULT:      -5.4      1.842      2.051
REMARK  Name = 656655
REMARK  9 active torsions:
REMARK  status: ('A' for Active; 'I' for Inactive)
REMARK    1  A    between atoms: C_1  and  O_2
REMARK    2  A    between atoms: C_1  and  C_4
REMARK    3  A    between atoms: C_1  and  C_12
REMARK    4  A    between atoms: C_4  and  O_5
REMARK    5  A    between atoms: C_4  and  C_7
REMARK    6  A    between atoms: C_7  and  C_9
REMARK    7  A    between atoms: C_7  and  O_10
REMARK    8  A    between atoms: C_12  and  C_14
REMARK    9  A    between atoms: C_12  and  O_15
REMARK                            x       y       z     vdW  Elec       q    Type
REMARK                         _______ _______ _______ _____ _____    ______ ____
ROOT
ATOM      1  C   UNL     1      36.369 -25.597 -14.693  0.00  0.00    +0.167 C 
ENDROOT
BRANCH   1   2
ATOM      2  O   UNL     1      36.132 -26.478 -15.797  0.00  0.00    -0.379 OA
ATOM      3  H   UNL     1      35.774 -25.972 -16.543  0.00  0.00    +0.211 HD
ENDBRANCH   1   2
BRANCH   1   4
ATOM      4  C   UNL     1      37.801 -25.850 -14.178  0.00  0.00    +0.167 C 
BRANCH   4   5
ATOM      5  O   UNL     1      38.269 -27.119 -14.652  0.00  0.00    -0.379 OA
ATOM      6  H   UNL     1      37.634 -27.810 -14.406  0.00  0.00    +0.211 HD
ENDBRANCH   4   5
BRANCH   4   7
ATOM      7  C   UNL     1      37.975 -25.815 -12.649  0.00  0.00    +0.151 C 
BRANCH   7   9
ATOM      8 BR   UNL     1      36.593 -23.645 -11.401  0.00  0.00    -0.078 Br
ATOM      9  C   UNL     1      38.247 -24.420 -12.103  0.00  0.00    +0.099 C 
ENDBRANCH   7   9
BRANCH   7  10
ATOM     10  O   UNL     1      36.741 -26.289 -12.089  0.00  0.00    -0.381 OA
ATOM     11  H   UNL     1      36.621 -27.224 -12.315  0.00  0.00    +0.210 HD
ENDBRANCH   7  10
ENDBRANCH   4   7
ENDBRANCH   1   4
BRANCH   1  12
ATOM     12  C   UNL     1      36.057 -24.153 -15.133  0.00  0.00    +0.151 C 
BRANCH  12  14
ATOM     13 BR   UNL     1      36.939 -22.006 -16.804  0.00  0.00    -0.078 Br
ATOM     14  C   UNL     1      37.332 -23.391 -15.483  0.00  0.00    +0.099 C 
ENDBRANCH  12  14
BRANCH  12  15
ATOM     15  O   UNL     1      35.208 -24.177 -16.280  0.00  0.00    -0.381 OA
ATOM     16  H   UNL     1      34.559 -24.891 -16.188  0.00  0.00    +0.210 HD
ENDBRANCH  12  15
ENDBRANCH   1  12
TORSDOF 9
ENDMDL
MODEL 3
REMARK VINA RESULT:      -5.4      9.537     11.603
REMARK  Name = 656655
REMARK  9 active torsions:
REMARK  status: ('A' for Active; 'I' for Inactive)
REMARK    1  A    between atoms: C_1  and  O_2
REMARK    2  A    between atoms: C_1  and  C_4
REMARK    3  A    between atoms: C_1  and  C_12
REMARK    4  A    between atoms: C_4  and  O_5
REMARK    5  A    between atoms: C_4  and  C_7
REMARK    6  A    between atoms: C_7  and  C_9
REMARK    7  A    between atoms: C_7  and  O_10
REMARK    8  A    between atoms: C_12  and  C_14
REMARK    9  A    between atoms: C_12  and  O_15
REMARK                            x       y       z     vdW  Elec       q    Type
REMARK                         _______ _______ _______ _____ _____    ______ ____
ROOT
ATOM      1  C   UNL     1      35.232 -16.606 -23.440  0.00  0.00    +0.167 C 
ENDROOT
BRANCH   1   2
ATOM      2  O   UNL     1      34.855 -15.761 -22.347  0.00  0.00    -0.379 OA
ATOM      3  H   UNL     1      34.319 -16.267 -21.717  0.00  0.00    +0.211 HD
ENDBRANCH   1   2
BRANCH   1   4
ATOM      4  C   UNL     1      35.434 -18.035 -22.894  0.00  0.00    +0.167 C 
BRANCH   4   5
ATOM      5  O   UNL     1      34.934 -18.989 -23.840  0.00  0.00    -0.379 OA
ATOM      6  H   UNL     1      35.181 -18.715 -24.737  0.00  0.00    +0.211 HD
ENDBRANCH   4   5
BRANCH   4   7
ATOM      7  C   UNL     1      34.783 -18.325 -21.530  0.00  0.00    +0.151 C 
BRANCH   7   9
ATOM      8 BR   UNL     1      32.991 -20.276 -20.455  0.00  0.00    -0.078 Br
ATOM      9  C   UNL     1      34.746 -19.806 -21.181  0.00  0.00    +0.099 C 
ENDBRANCH   7   9
BRANCH   7  10
ATOM     10  O   UNL     1      35.579 -17.647 -20.547  0.00  0.00    -0.381 OA
ATOM     11  H   UNL     1      36.467 -18.035 -20.526  0.00  0.00    +0.210 HD
ENDBRANCH   7  10
ENDBRANCH   4   7
ENDBRANCH   1   4
BRANCH   1  12
ATOM     12  C   UNL     1      34.190 -16.457 -24.566  0.00  0.00    +0.151 C 
BRANCH  12  14
ATOM     13 BR   UNL     1      32.945 -14.626 -26.378  0.00  0.00    -0.078 Br
ATOM     14  C   UNL     1      33.586 -15.055 -24.583  0.00  0.00    +0.099 C 
ENDBRANCH  12  14
BRANCH  12  15
ATOM     15  O   UNL     1      34.812 -16.702 -25.827  0.00  0.00    -0.381 OA
ATOM     16  H   UNL     1      35.414 -17.458 -25.749  0.00  0.00    +0.210 HD
ENDBRANCH  12  15
ENDBRANCH   1  12
TORSDOF 9
ENDMDL
MODEL 4
REMARK VINA RESULT:      -5.3      9.689     12.481
REMARK  Name = 656655
REMARK  9 active torsions:
REMARK  status: ('A' for Active; 'I' for Inactive)
REMARK    1  A    between atoms: C_1  and  O_2
REMARK    2  A    between atoms: C_1  and  C_4
REMARK    3  A    between atoms: C_1  and  C_12
REMARK    4  A    between atoms: C_4  and  O_5
REMARK    5  A    between atoms: C_4  and  C_7
REMARK    6  A    between atoms: C_7  and  C_9
REMARK    7  A    between atoms: C_7  and  O_10
REMARK    8  A    between atoms: C_12  and  C_14
REMARK    9  A    between atoms: C_12  and  O_15
REMARK                            x       y       z     vdW  Elec       q    Type
REMARK                         _______ _______ _______ _____ _____    ______ ____
ROOT
ATOM      1  C   UNL     1      35.489 -17.751 -22.833  0.00  0.00    +0.167 C 
ENDROOT
BRANCH   1   2
ATOM      2  O   UNL     1      35.058 -18.777 -23.734  0.00  0.00    -0.379 OA
ATOM      3  H   UNL     1      34.144 -19.025 -23.528  0.00  0.00    +0.211 HD
ENDBRANCH   1   2
BRANCH   1   4
ATOM      4  C   UNL     1      35.281 -16.387 -23.524  0.00  0.00    +0.167 C 
BRANCH   4   5
ATOM      5  O   UNL     1      35.042 -15.376 -22.536  0.00  0.00    -0.379 OA
ATOM      6  H   UNL     1      34.632 -15.778 -21.754  0.00  0.00    +0.211 HD
ENDBRANCH   4   5
BRANCH   4   7
ATOM      7  C   UNL     1      34.139 -16.330 -24.555  0.00  0.00    +0.151 C 
BRANCH   7   9
ATOM      8 BR   UNL     1      32.961 -14.580 -26.484  0.00  0.00    -0.078 Br
ATOM      9  C   UNL     1      33.464 -14.968 -24.634  0.00  0.00    +0.099 C 
ENDBRANCH   7   9
BRANCH   7  10
ATOM     10  O   UNL     1      34.729 -16.619 -25.830  0.00  0.00    -0.381 OA
ATOM     11  H   UNL     1      35.609 -17.004 -25.700  0.00  0.00    +0.210 HD
ENDBRANCH   7  10
ENDBRANCH   4   7
ENDBRANCH   1   4
BRANCH   1  12
ATOM     12  C   UNL     1      34.767 -17.939 -21.484  0.00  0.00    +0.151 C 
BRANCH  12  14
ATOM     13 BR   UNL     1      32.977 -20.008 -20.649  0.00  0.00    -0.078 Br
ATOM     14  C   UNL     1      34.792 -19.399 -21.038  0.00  0.00    +0.099 C 
ENDBRANCH  12  14
BRANCH  12  15
ATOM     15  O   UNL     1      35.408 -17.145 -20.486  0.00  0.00    -0.381 OA
ATOM     16  H   UNL     1      34.786 -16.971 -19.762  0.00  0.00    +0.210 HD
ENDBRANCH  12  15
ENDBRANCH   1  12
TORSDOF 9
ENDMDL
MODEL 5
REMARK VINA RESULT:      -5.3      2.220      4.099
REMARK  Name = 656655
REMARK  9 active torsions:
REMARK  status: ('A' for Active; 'I' for Inactive)
REMARK    1  A    between atoms: C_1  and  O_2
REMARK    2  A    between atoms: C_1  and  C_4
REMARK    3  A    between atoms: C_1  and  C_12
REMARK    4  A    between atoms: C_4  and  O_5
REMARK    5  A    between atoms: C_4  and  C_7
REMARK    6  A    between atoms: C_7  and  C_9
REMARK    7  A    between atoms: C_7  and  O_10
REMARK    8  A    between atoms: C_12  and  C_14
REMARK    9  A    between atoms: C_12  and  O_15
REMARK                            x       y       z     vdW  Elec       q    Type
REMARK                         _______ _______ _______ _____ _____    ______ ____
ROOT
ATOM      1  C   UNL     1      36.673 -25.363 -12.960  0.00  0.00    +0.167 C 
ENDROOT
BRANCH   1   2
ATOM      2  O   UNL     1      36.850 -26.466 -12.064  0.00  0.00    -0.379 OA
ATOM      3  H   UNL     1      36.183 -27.144 -12.250  0.00  0.00    +0.211 HD
ENDBRANCH   1   2
BRANCH   1   4
ATOM      4  C   UNL     1      35.539 -24.475 -12.408  0.00  0.00    +0.167 C 
BRANCH   4   5
ATOM      5  O   UNL     1      34.946 -25.103 -11.264  0.00  0.00    -0.379 OA
ATOM      6  H   UNL     1      34.148 -24.617 -11.005  0.00  0.00    +0.211 HD
ENDBRANCH   4   5
BRANCH   4   7
ATOM      7  C   UNL     1      34.416 -24.132 -13.402  0.00  0.00    +0.151 C 
BRANCH   7   9
ATOM      8 BR   UNL     1      35.459 -22.977 -15.801  0.00  0.00    -0.078 Br
ATOM      9  C   UNL     1      34.741 -24.521 -14.838  0.00  0.00    +0.099 C 
ENDBRANCH   7   9
BRANCH   7  10
ATOM     10  O   UNL     1      33.261 -24.872 -12.982  0.00  0.00    -0.381 OA
ATOM     11  H   UNL     1      33.324 -25.783 -13.306  0.00  0.00    +0.210 HD
ENDBRANCH   7  10
ENDBRANCH   4   7
ENDBRANCH   1   4
BRANCH   1  12
ATOM     12  C   UNL     1      38.032 -24.668 -13.168  0.00  0.00    +0.151 C 
BRANCH  12  14
ATOM     13 BR   UNL     1      40.311 -25.778 -14.495  0.00  0.00    -0.078 Br
ATOM     14  C   UNL     1      38.566 -24.902 -14.579  0.00  0.00    +0.099 C 
ENDBRANCH  12  14
BRANCH  12  15
ATOM     15  O   UNL     1      37.886 -23.263 -12.963  0.00  0.00    -0.381 OA
ATOM     16  H   UNL     1      36.969 -23.066 -12.717  0.00  0.00    +0.210 HD
ENDBRANCH  12  15
ENDBRANCH   1  12
TORSDOF 9
ENDMDL
MODEL 6
REMARK VINA RESULT:      -5.2      2.329      2.734
REMARK  Name = 656655
REMARK  9 active torsions:
REMARK  status: ('A' for Active; 'I' for Inactive)
REMARK    1  A    between atoms: C_1  and  O_2
REMARK    2  A    between atoms: C_1  and  C_4
REMARK    3  A    between atoms: C_1  and  C_12
REMARK    4  A    between atoms: C_4  and  O_5
REMARK    5  A    between atoms: C_4  and  C_7
REMARK    6  A    between atoms: C_7  and  C_9
REMARK    7  A    between atoms: C_7  and  O_10
REMARK    8  A    between atoms: C_12  and  C_14
REMARK    9  A    between atoms: C_12  and  O_15
REMARK                            x       y       z     vdW  Elec       q    Type
REMARK                         _______ _______ _______ _____ _____    ______ ____
ROOT
ATOM      1  C   UNL     1      35.549 -24.476 -12.417  0.00  0.00    +0.167 C 
ENDROOT
BRANCH   1   2
ATOM      2  O   UNL     1      34.979 -25.086 -11.254  0.00  0.00    -0.379 OA
ATOM      3  H   UNL     1      34.086 -24.736 -11.110  0.00  0.00    +0.211 HD
ENDBRANCH   1   2
BRANCH   1   4
ATOM      4  C   UNL     1      36.679 -25.390 -12.934  0.00  0.00    +0.167 C 
BRANCH   4   5
ATOM      5  O   UNL     1      36.866 -26.486 -12.029  0.00  0.00    -0.379 OA
ATOM      6  H   UNL     1      37.558 -27.074 -12.371  0.00  0.00    +0.211 HD
ENDBRANCH   4   5
BRANCH   4   7
ATOM      7  C   UNL     1      38.041 -24.709 -13.151  0.00  0.00    +0.151 C 
BRANCH   7   9
ATOM      8 BR   UNL     1      40.307 -25.776 -14.530  0.00  0.00    -0.078 Br
ATOM      9  C   UNL     1      38.576 -24.864 -14.567  0.00  0.00    +0.099 C 
ENDBRANCH   7   9
BRANCH   7  10
ATOM     10  O   UNL     1      37.842 -23.311 -12.891  0.00  0.00    -0.381 OA
ATOM     11  H   UNL     1      38.510 -23.001 -12.261  0.00  0.00    +0.210 HD
ENDBRANCH   7  10
ENDBRANCH   4   7
ENDBRANCH   1   4
BRANCH   1  12
ATOM     12  C   UNL     1      34.420 -24.168 -13.421  0.00  0.00    +0.151 C 
BRANCH  12  14
ATOM     13 BR   UNL     1      34.042 -23.370 -16.142  0.00  0.00    -0.078 Br
ATOM     14  C   UNL     1      34.796 -24.610 -14.833  0.00  0.00    +0.099 C 
ENDBRANCH  12  14
BRANCH  12  15
ATOM     15  O   UNL     1      33.232 -24.854 -13.028  0.00  0.00    -0.381 OA
ATOM     16  H   UNL     1      32.782 -24.350 -12.333  0.00  0.00    +0.210 HD
ENDBRANCH  12  15
ENDBRANCH   1  12
TORSDOF 9
ENDMDL
MODEL 7
REMARK VINA RESULT:      -5.2      9.175     11.887
REMARK  Name = 656655
REMARK  9 active torsions:
REMARK  status: ('A' for Active; 'I' for Inactive)
REMARK    1  A    between atoms: C_1  and  O_2
REMARK    2  A    between atoms: C_1  and  C_4
REMARK    3  A    between atoms: C_1  and  C_12
REMARK    4  A    between atoms: C_4  and  O_5
REMARK    5  A    between atoms: C_4  and  C_7
REMARK    6  A    between atoms: C_7  and  C_9
REMARK    7  A    between atoms: C_7  and  O_10
REMARK    8  A    between atoms: C_12  and  C_14
REMARK    9  A    between atoms: C_12  and  O_15
REMARK                            x       y       z     vdW  Elec       q    Type
REMARK                         _______ _______ _______ _____ _____    ______ ____
ROOT
ATOM      1  C   UNL     1      34.574 -17.334 -21.504  0.00  0.00    +0.167 C 
ENDROOT
BRANCH   1   2
ATOM      2  O   UNL     1      35.308 -16.822 -20.387  0.00  0.00    -0.379 OA
ATOM      3  H   UNL     1      34.690 -16.538 -19.696  0.00  0.00    +0.211 HD
ENDBRANCH   1   2
BRANCH   1   4
ATOM      4  C   UNL     1      34.564 -16.255 -22.607  0.00  0.00    +0.167 C 
BRANCH   4   5
ATOM      5  O   UNL     1      35.745 -16.376 -23.411  0.00  0.00    -0.379 OA
ATOM      6  H   UNL     1      35.504 -16.706 -24.292  0.00  0.00    +0.211 HD
ENDBRANCH   4   5
BRANCH   4   7
ATOM      7  C   UNL     1      34.466 -14.800 -22.115  0.00  0.00    +0.151 C 
BRANCH   7   9
ATOM      8 BR   UNL     1      32.341 -12.955 -22.619  0.00  0.00    -0.078 Br
ATOM      9  C   UNL     1      33.996 -13.829 -23.189  0.00  0.00    +0.099 C 
ENDBRANCH   7   9
BRANCH   7  10
ATOM     10  O   UNL     1      33.507 -14.796 -21.048  0.00  0.00    -0.381 OA
ATOM     11  H   UNL     1      33.718 -15.504 -20.420  0.00  0.00    +0.210 HD
ENDBRANCH   7  10
ENDBRANCH   4   7
ENDBRANCH   1   4
BRANCH   1  12
ATOM     12  C   UNL     1      35.164 -18.700 -21.904  0.00  0.00    +0.151 C 
BRANCH  12  14
ATOM     13 BR   UNL     1      33.017 -20.078 -20.610  0.00  0.00    -0.078 Br
ATOM     14  C   UNL     1      34.931 -19.746 -20.817  0.00  0.00    +0.099 C 
ENDBRANCH  12  14
BRANCH  12  15
ATOM     15  O   UNL     1      34.550 -19.150 -23.111  0.00  0.00    -0.381 OA
ATOM     16  H   UNL     1      33.606 -19.309 -22.954  0.00  0.00    +0.210 HD
ENDBRANCH  12  15
ENDBRANCH   1  12
TORSDOF 9
ENDMDL
MODEL 8
REMARK VINA RESULT:      -5.2      9.176     11.385
REMARK  Name = 656655
REMARK  9 active torsions:
REMARK  status: ('A' for Active; 'I' for Inactive)
REMARK    1  A    between atoms: C_1  and  O_2
REMARK    2  A    between atoms: C_1  and  C_4
REMARK    3  A    between atoms: C_1  and  C_12
REMARK    4  A    between atoms: C_4  and  O_5
REMARK    5  A    between atoms: C_4  and  C_7
REMARK    6  A    between atoms: C_7  and  C_9
REMARK    7  A    between atoms: C_7  and  O_10
REMARK    8  A    between atoms: C_12  and  C_14
REMARK    9  A    between atoms: C_12  and  O_15
REMARK                            x       y       z     vdW  Elec       q    Type
REMARK                         _______ _______ _______ _____ _____    ______ ____
ROOT
ATOM      1  C   UNL     1      34.535 -16.229 -22.624  0.00  0.00    +0.167 C 
ENDROOT
BRANCH   1   2
ATOM      2  O   UNL     1      35.694 -16.373 -23.452  0.00  0.00    -0.379 OA
ATOM      3  H   UNL     1      35.894 -17.314 -23.568  0.00  0.00    +0.211 HD
ENDBRANCH   1   2
BRANCH   1   4
ATOM      4  C   UNL     1      34.601 -17.302 -21.517  0.00  0.00    +0.167 C 
BRANCH   4   5
ATOM      5  O   UNL     1      35.319 -16.789 -20.388  0.00  0.00    -0.379 OA
ATOM      6  H   UNL     1      35.161 -15.835 -20.310  0.00  0.00    +0.211 HD
ENDBRANCH   4   5
BRANCH   4   7
ATOM      7  C   UNL     1      35.240 -18.641 -21.925  0.00  0.00    +0.151 C 
BRANCH   7   9
ATOM      8 BR   UNL     1      33.188 -20.149 -20.626  0.00  0.00    -0.078 Br
ATOM      9  C   UNL     1      35.083 -19.731 -20.874  0.00  0.00    +0.099 C 
ENDBRANCH   7   9
BRANCH   7  10
ATOM     10  O   UNL     1      34.570 -19.064 -23.121  0.00  0.00    -0.381 OA
ATOM     11  H   UNL     1      33.850 -18.447 -23.325  0.00  0.00    +0.210 HD
ENDBRANCH   7  10
ENDBRANCH   4   7
ENDBRANCH   1   4
BRANCH   1  12
ATOM     12  C   UNL     1      34.447 -14.768 -22.140  0.00  0.00    +0.151 C 
BRANCH  12  14
ATOM     13 BR   UNL     1      32.319 -12.891 -22.501  0.00  0.00    -0.078 Br
ATOM     14  C   UNL     1      33.857 -13.861 -23.216  0.00  0.00    +0.099 C 
ENDBRANCH  12  14
BRANCH  12  15
ATOM     15  O   UNL     1      33.620 -14.699 -20.979  0.00  0.00    -0.381 OA
ATOM     16  H   UNL     1      33.696 -13.819 -20.579  0.00  0.00    +0.210 HD
ENDBRANCH  12  15
ENDBRANCH   1  12
TORSDOF 9
ENDMDL
MODEL 9
REMARK VINA RESULT:      -5.0      7.796      9.914
REMARK  Name = 656655
REMARK  9 active torsions:
REMARK  status: ('A' for Active; 'I' for Inactive)
REMARK    1  A    between atoms: C_1  and  O_2
REMARK    2  A    between atoms: C_1  and  C_4
REMARK    3  A    between atoms: C_1  and  C_12
REMARK    4  A    between atoms: C_4  and  O_5
REMARK    5  A    between atoms: C_4  and  C_7
REMARK    6  A    between atoms: C_7  and  C_9
REMARK    7  A    between atoms: C_7  and  O_10
REMARK    8  A    between atoms: C_12  and  C_14
REMARK    9  A    between atoms: C_12  and  O_15
REMARK                            x       y       z     vdW  Elec       q    Type
REMARK                         _______ _______ _______ _____ _____    ______ ____
ROOT
ATOM      1  C   UNL     1      34.930 -18.005 -22.586  0.00  0.00    +0.167 C 
ENDROOT
BRANCH   1   2
ATOM      2  O   UNL     1      36.256 -18.231 -23.078  0.00  0.00    -0.379 OA
ATOM      3  H   UNL     1      36.417 -17.661 -23.845  0.00  0.00    +0.211 HD
ENDBRANCH   1   2
BRANCH   1   4
ATOM      4  C   UNL     1      34.850 -18.561 -21.149  0.00  0.00    +0.167 C 
BRANCH   4   5
ATOM      5  O   UNL     1      36.168 -18.647 -20.590  0.00  0.00    -0.379 OA
ATOM      6  H   UNL     1      36.621 -19.426 -20.948  0.00  0.00    +0.211 HD
ENDBRANCH   4   5
BRANCH   4   7
ATOM      7  C   UNL     1      34.177 -19.938 -21.004  0.00  0.00    +0.151 C 
BRANCH   7   9
ATOM      8 BR   UNL     1      33.614 -22.034 -19.143  0.00  0.00    -0.078 Br
ATOM      9  C   UNL     1      34.903 -20.866 -20.040  0.00  0.00    +0.099 C 
ENDBRANCH   7   9
BRANCH   7  10
ATOM     10  O   UNL     1      32.859 -19.693 -20.493  0.00  0.00    -0.381 OA
ATOM     11  H   UNL     1      32.217 -20.229 -20.984  0.00  0.00    +0.210 HD
ENDBRANCH   7  10
ENDBRANCH   4   7
ENDBRANCH   1   4
BRANCH   1  12
ATOM     12  C   UNL     1      34.586 -16.512 -22.750  0.00  0.00    +0.151 C 
BRANCH  12  14
ATOM     13 BR   UNL     1      32.745 -15.344 -20.898  0.00  0.00    -0.078 Br
ATOM     14  C   UNL     1      34.578 -15.792 -21.403  0.00  0.00    +0.099 C 
ENDBRANCH  12  14
BRANCH  12  15
ATOM     15  O   UNL     1      35.553 -15.889 -23.595  0.00  0.00    -0.381 OA
ATOM     16  H   UNL     1      36.310 -15.601 -23.063  0.00  0.00    +0.210 HD
ENDBRANCH  12  15
ENDBRANCH   1  12
TORSDOF 9
ENDMDL
