MODEL 1
REMARK VINA RESULT:      -7.3      0.000      0.000
REMARK  Name = 11499
REMARK  12 active torsions:
REMARK  status: ('A' for Active; 'I' for Inactive)
REMARK    1  A    between atoms: N_1  and  C_3
REMARK    2  A    between atoms: N_1  and  C_9
REMARK    3  A    between atoms: N_1  and  C_15
REMARK    4  A    between atoms: C_3  and  C_4
REMARK    5  A    between atoms: C_4  and  O_5
REMARK    6  A    between atoms: O_5  and  N_8
REMARK    7  A    between atoms: C_9  and  C_10
REMARK    8  A    between atoms: C_10  and  O_11
REMARK    9  A    between atoms: O_11  and  N_14
REMARK   10  A    between atoms: C_15  and  C_16
REMARK   11  A    between atoms: C_16  and  O_17
REMARK   12  A    between atoms: O_17  and  N_20
REMARK                            x       y       z     vdW  Elec       q    Type
REMARK                         _______ _______ _______ _____ _____    ______ ____
ROOT
ATOM      1  N   UNL     1      36.425 -24.645 -15.043  0.00  0.00    +0.395 N 
ATOM      2  H   UNL     1      35.949 -24.505 -15.935  0.00  0.00    -0.079 HD
ENDROOT
BRANCH   1   3
ATOM      3  C   UNL     1      37.384 -23.559 -14.855  0.00  0.00    -0.026 C 
BRANCH   3   4
ATOM      4  C   UNL     1      37.494 -22.715 -16.115  0.00  0.00    +0.221 C 
BRANCH   4   5
ATOM      5  O   UNL     1      36.229 -22.695 -16.763  0.00  0.00    -0.338 OA
BRANCH   5   8
ATOM      6  O   UNL     1      35.485 -22.381 -18.824  0.00  0.00    -0.090 OA
ATOM      7  O   UNL     1      36.898 -20.884 -17.965  0.00  0.00    -0.090 OA
ATOM      8  N   UNL     1      36.211 -21.909 -17.949  0.00  0.00    +0.218 N 
ENDBRANCH   5   8
ENDBRANCH   4   5
ENDBRANCH   3   4
ENDBRANCH   1   3
BRANCH   1   9
ATOM      9  C   UNL     1      35.423 -24.633 -13.976  0.00  0.00    -0.026 C 
BRANCH   9  10
ATOM     10  C   UNL     1      35.729 -23.539 -12.966  0.00  0.00    +0.221 C 
BRANCH  10  11
ATOM     11  O   UNL     1      35.003 -23.803 -11.773  0.00  0.00    -0.338 OA
BRANCH  11  14
ATOM     12  O   UNL     1      37.003 -24.035 -10.853  0.00  0.00    -0.090 OA
ATOM     13  O   UNL     1      35.246 -24.938  -9.818  0.00  0.00    -0.090 OA
ATOM     14  N   UNL     1      35.809 -24.308 -10.716  0.00  0.00    +0.218 N 
ENDBRANCH  11  14
ENDBRANCH  10  11
ENDBRANCH   9  10
ENDBRANCH   1   9
BRANCH   1  15
ATOM     15  C   UNL     1      37.113 -25.935 -15.082  0.00  0.00    -0.026 C 
BRANCH  15  16
ATOM     16  C   UNL     1      38.329 -25.923 -14.170  0.00  0.00    +0.221 C 
BRANCH  16  17
ATOM     17  O   UNL     1      39.385 -26.631 -14.804  0.00  0.00    -0.338 OA
BRANCH  17  20
ATOM     18  O   UNL     1      40.846 -24.972 -14.689  0.00  0.00    -0.090 OA
ATOM     19  O   UNL     1      41.459 -26.980 -13.940  0.00  0.00    -0.090 OA
ATOM     20  N   UNL     1      40.679 -26.166 -14.442  0.00  0.00    +0.218 N 
ENDBRANCH  17  20
ENDBRANCH  16  17
ENDBRANCH  15  16
ENDBRANCH   1  15
TORSDOF 12
ENDMDL
MODEL 2
REMARK VINA RESULT:      -7.3      0.637      6.033
REMARK  Name = 11499
REMARK  12 active torsions:
REMARK  status: ('A' for Active; 'I' for Inactive)
REMARK    1  A    between atoms: N_1  and  C_3
REMARK    2  A    between atoms: N_1  and  C_9
REMARK    3  A    between atoms: N_1  and  C_15
REMARK    4  A    between atoms: C_3  and  C_4
REMARK    5  A    between atoms: C_4  and  O_5
REMARK    6  A    between atoms: O_5  and  N_8
REMARK    7  A    between atoms: C_9  and  C_10
REMARK    8  A    between atoms: C_10  and  O_11
REMARK    9  A    between atoms: O_11  and  N_14
REMARK   10  A    between atoms: C_15  and  C_16
REMARK   11  A    between atoms: C_16  and  O_17
REMARK   12  A    between atoms: O_17  and  N_20
REMARK                            x       y       z     vdW  Elec       q    Type
REMARK                         _______ _______ _______ _____ _____    ______ ____
ROOT
ATOM      1  N   UNL     1      36.487 -24.014 -15.145  0.00  0.00    +0.395 N 
ATOM      2  H   UNL     1      35.783 -24.167 -15.868  0.00  0.00    -0.079 HD
ENDROOT
BRANCH   1   3
ATOM      3  C   UNL     1      35.854 -23.325 -14.021  0.00  0.00    -0.026 C 
BRANCH   3   4
ATOM      4  C   UNL     1      35.081 -24.308 -13.156  0.00  0.00    +0.221 C 
BRANCH   4   5
ATOM      5  O   UNL     1      34.943 -23.759 -11.852  0.00  0.00    -0.338 OA
BRANCH   5   8
ATOM      6  O   UNL     1      35.204 -25.253 -10.239  0.00  0.00    -0.090 OA
ATOM      7  O   UNL     1      36.948 -23.984 -10.803  0.00  0.00    -0.090 OA
ATOM      8  N   UNL     1      35.782 -24.378 -10.884  0.00  0.00    +0.218 N 
ENDBRANCH   5   8
ENDBRANCH   4   5
ENDBRANCH   3   4
ENDBRANCH   1   3
BRANCH   1   9
ATOM      9  C   UNL     1      37.005 -25.315 -14.720  0.00  0.00    -0.026 C 
BRANCH   9  10
ATOM     10  C   UNL     1      38.385 -25.164 -14.097  0.00  0.00    +0.221 C 
BRANCH  10  11
ATOM     11  O   UNL     1      39.198 -26.250 -14.521  0.00  0.00    -0.338 OA
BRANCH  11  14
ATOM     12  O   UNL     1      41.260 -26.960 -14.143  0.00  0.00    -0.090 OA
ATOM     13  O   UNL     1      40.960 -24.828 -14.721  0.00  0.00    -0.090 OA
ATOM     14  N   UNL     1      40.592 -25.975 -14.460  0.00  0.00    +0.218 N 
ENDBRANCH  11  14
ENDBRANCH  10  11
ENDBRANCH   9  10
ENDBRANCH   1   9
BRANCH   1  15
ATOM     15  C   UNL     1      37.560 -23.196 -15.707  0.00  0.00    -0.026 C 
BRANCH  15  16
ATOM     16  C   UNL     1      36.989 -22.034 -16.503  0.00  0.00    +0.221 C 
BRANCH  16  17
ATOM     17  O   UNL     1      35.929 -22.515 -17.319  0.00  0.00    -0.338 OA
BRANCH  17  20
ATOM     18  O   UNL     1      36.559 -20.882 -18.675  0.00  0.00    -0.090 OA
ATOM     19  O   UNL     1      35.192 -22.454 -19.469  0.00  0.00    -0.090 OA
ATOM     20  N   UNL     1      35.881 -21.907 -18.604  0.00  0.00    +0.218 N 
ENDBRANCH  17  20
ENDBRANCH  16  17
ENDBRANCH  15  16
ENDBRANCH   1  15
TORSDOF 12
ENDMDL
MODEL 3
REMARK VINA RESULT:      -7.3      0.861      5.963
REMARK  Name = 11499
REMARK  12 active torsions:
REMARK  status: ('A' for Active; 'I' for Inactive)
REMARK    1  A    between atoms: N_1  and  C_3
REMARK    2  A    between atoms: N_1  and  C_9
REMARK    3  A    between atoms: N_1  and  C_15
REMARK    4  A    between atoms: C_3  and  C_4
REMARK    5  A    between atoms: C_4  and  O_5
REMARK    6  A    between atoms: O_5  and  N_8
REMARK    7  A    between atoms: C_9  and  C_10
REMARK    8  A    between atoms: C_10  and  O_11
REMARK    9  A    between atoms: O_11  and  N_14
REMARK   10  A    between atoms: C_15  and  C_16
REMARK   11  A    between atoms: C_16  and  O_17
REMARK   12  A    between atoms: O_17  and  N_20
REMARK                            x       y       z     vdW  Elec       q    Type
REMARK                         _______ _______ _______ _____ _____    ______ ____
ROOT
ATOM      1  N   UNL     1      36.555 -24.270 -14.000  0.00  0.00    +0.395 N 
ATOM      2  H   UNL     1      36.018 -24.786 -13.302  0.00  0.00    -0.079 HD
ENDROOT
BRANCH   1   3
ATOM      3  C   UNL     1      37.276 -25.231 -14.833  0.00  0.00    -0.026 C 
BRANCH   3   4
ATOM      4  C   UNL     1      38.228 -26.065 -13.990  0.00  0.00    +0.221 C 
BRANCH   4   5
ATOM      5  O   UNL     1      39.303 -26.501 -14.811  0.00  0.00    -0.338 OA
BRANCH   5   8
ATOM      6  O   UNL     1      41.343 -26.881 -14.037  0.00  0.00    -0.090 OA
ATOM      7  O   UNL     1      40.742 -24.775 -14.459  0.00  0.00    -0.090 OA
ATOM      8  N   UNL     1      40.569 -25.996 -14.402  0.00  0.00    +0.218 N 
ENDBRANCH   5   8
ENDBRANCH   4   5
ENDBRANCH   3   4
ENDBRANCH   1   3
BRANCH   1   9
ATOM      9  C   UNL     1      35.626 -23.485 -14.813  0.00  0.00    -0.026 C 
BRANCH   9  10
ATOM     10  C   UNL     1      36.371 -22.746 -15.915  0.00  0.00    +0.221 C 
BRANCH  10  11
ATOM     11  O   UNL     1      35.546 -22.702 -17.072  0.00  0.00    -0.338 OA
BRANCH  11  14
ATOM     12  O   UNL     1      35.636 -22.193 -19.224  0.00  0.00    -0.090 OA
ATOM     13  O   UNL     1      36.865 -20.998 -17.798  0.00  0.00    -0.090 OA
ATOM     14  N   UNL     1      36.069 -21.886 -18.112  0.00  0.00    +0.218 N 
ENDBRANCH  11  14
ENDBRANCH  10  11
ENDBRANCH   9  10
ENDBRANCH   1   9
BRANCH   1  15
ATOM     15  C   UNL     1      37.494 -23.391 -13.305  0.00  0.00    -0.026 C 
BRANCH  15  16
ATOM     16  C   UNL     1      37.078 -23.198 -11.856  0.00  0.00    +0.221 C 
BRANCH  16  17
ATOM     17  O   UNL     1      36.829 -24.472 -11.278  0.00  0.00    -0.338 OA
BRANCH  17  20
ATOM     18  O   UNL     1      34.688 -24.877 -11.667  0.00  0.00    -0.090 OA
ATOM     19  O   UNL     1      35.330 -24.487  -9.568  0.00  0.00    -0.090 OA
ATOM     20  N   UNL     1      35.505 -24.622 -10.782  0.00  0.00    +0.218 N 
ENDBRANCH  17  20
ENDBRANCH  16  17
ENDBRANCH  15  16
ENDBRANCH   1  15
TORSDOF 12
ENDMDL
MODEL 4
REMARK VINA RESULT:      -7.3      0.395      5.835
REMARK  Name = 11499
REMARK  12 active torsions:
REMARK  status: ('A' for Active; 'I' for Inactive)
REMARK    1  A    between atoms: N_1  and  C_3
REMARK    2  A    between atoms: N_1  and  C_9
REMARK    3  A    between atoms: N_1  and  C_15
REMARK    4  A    between atoms: C_3  and  C_4
REMARK    5  A    between atoms: C_4  and  O_5
REMARK    6  A    between atoms: O_5  and  N_8
REMARK    7  A    between atoms: C_9  and  C_10
REMARK    8  A    between atoms: C_10  and  O_11
REMARK    9  A    between atoms: O_11  and  N_14
REMARK   10  A    between atoms: C_15  and  C_16
REMARK   11  A    between atoms: C_16  and  O_17
REMARK   12  A    between atoms: O_17  and  N_20
REMARK                            x       y       z     vdW  Elec       q    Type
REMARK                         _______ _______ _______ _____ _____    ______ ____
ROOT
ATOM      1  N   UNL     1      36.147 -24.670 -15.140  0.00  0.00    +0.395 N 
ATOM      2  H   UNL     1      35.826 -24.527 -16.098  0.00  0.00    -0.079 HD
ENDROOT
BRANCH   1   3
ATOM      3  C   UNL     1      36.837 -25.957 -15.069  0.00  0.00    -0.026 C 
BRANCH   3   4
ATOM      4  C   UNL     1      38.022 -25.879 -14.119  0.00  0.00    +0.221 C 
BRANCH   4   5
ATOM      5  O   UNL     1      39.093 -26.639 -14.662  0.00  0.00    -0.338 OA
BRANCH   5   8
ATOM      6  O   UNL     1      40.372 -24.831 -14.684  0.00  0.00    -0.090 OA
ATOM      7  O   UNL     1      41.293 -26.778 -14.103  0.00  0.00    -0.090 OA
ATOM      8  N   UNL     1      40.369 -26.043 -14.462  0.00  0.00    +0.218 N 
ENDBRANCH   5   8
ENDBRANCH   4   5
ENDBRANCH   3   4
ENDBRANCH   1   3
BRANCH   1   9
ATOM      9  C   UNL     1      37.060 -23.581 -14.790  0.00  0.00    -0.026 C 
BRANCH   9  10
ATOM     10  C   UNL     1      37.263 -22.650 -15.975  0.00  0.00    +0.221 C 
BRANCH  10  11
ATOM     11  O   UNL     1      36.119 -22.726 -16.816  0.00  0.00    -0.338 OA
BRANCH  11  14
ATOM     12  O   UNL     1      36.915 -20.914 -17.808  0.00  0.00    -0.090 OA
ATOM     13  O   UNL     1      35.607 -22.283 -18.987  0.00  0.00    -0.090 OA
ATOM     14  N   UNL     1      36.213 -21.913 -17.979  0.00  0.00    +0.218 N 
ENDBRANCH  11  14
ENDBRANCH  10  11
ENDBRANCH   9  10
ENDBRANCH   1   9
BRANCH   1  15
ATOM     15  C   UNL     1      34.983 -24.664 -14.255  0.00  0.00    -0.026 C 
BRANCH  15  16
ATOM     16  C   UNL     1      35.292 -23.920 -12.966  0.00  0.00    +0.221 C 
BRANCH  16  17
ATOM     17  O   UNL     1      35.017 -24.777 -11.866  0.00  0.00    -0.338 OA
BRANCH  17  20
ATOM     18  O   UNL     1      37.007 -24.275 -11.035  0.00  0.00    -0.090 OA
ATOM     19  O   UNL     1      35.315 -24.595  -9.619  0.00  0.00    -0.090 OA
ATOM     20  N   UNL     1      35.841 -24.530 -10.733  0.00  0.00    +0.218 N 
ENDBRANCH  17  20
ENDBRANCH  16  17
ENDBRANCH  15  16
ENDBRANCH   1  15
TORSDOF 12
ENDMDL
MODEL 5
REMARK VINA RESULT:      -7.2      1.492      5.019
REMARK  Name = 11499
REMARK  12 active torsions:
REMARK  status: ('A' for Active; 'I' for Inactive)
REMARK    1  A    between atoms: N_1  and  C_3
REMARK    2  A    between atoms: N_1  and  C_9
REMARK    3  A    between atoms: N_1  and  C_15
REMARK    4  A    between atoms: C_3  and  C_4
REMARK    5  A    between atoms: C_4  and  O_5
REMARK    6  A    between atoms: O_5  and  N_8
REMARK    7  A    between atoms: C_9  and  C_10
REMARK    8  A    between atoms: C_10  and  O_11
REMARK    9  A    between atoms: O_11  and  N_14
REMARK   10  A    between atoms: C_15  and  C_16
REMARK   11  A    between atoms: C_16  and  O_17
REMARK   12  A    between atoms: O_17  and  N_20
REMARK                            x       y       z     vdW  Elec       q    Type
REMARK                         _______ _______ _______ _____ _____    ______ ____
ROOT
ATOM      1  N   UNL     1      37.400 -23.871 -14.346  0.00  0.00    +0.395 N 
ATOM      2  H   UNL     1      38.001 -23.364 -14.996  0.00  0.00    -0.079 HD
ENDROOT
BRANCH   1   3
ATOM      3  C   UNL     1      37.959 -23.743 -13.001  0.00  0.00    -0.026 C 
BRANCH   3   4
ATOM      4  C   UNL     1      36.930 -23.161 -12.045  0.00  0.00    +0.221 C 
BRANCH   4   5
ATOM      5  O   UNL     1      36.874 -23.976 -10.882  0.00  0.00    -0.338 OA
BRANCH   5   8
ATOM      6  O   UNL     1      35.305 -24.599  -9.449  0.00  0.00    -0.090 OA
ATOM      7  O   UNL     1      34.931 -24.892 -11.628  0.00  0.00    -0.090 OA
ATOM      8  N   UNL     1      35.589 -24.540 -10.646  0.00  0.00    +0.218 N 
ENDBRANCH   5   8
ENDBRANCH   4   5
ENDBRANCH   3   4
ENDBRANCH   1   3
BRANCH   1   9
ATOM      9  C   UNL     1      36.060 -23.283 -14.399  0.00  0.00    -0.026 C 
BRANCH   9  10
ATOM     10  C   UNL     1      35.140 -24.126 -15.269  0.00  0.00    +0.221 C 
BRANCH  10  11
ATOM     11  O   UNL     1      35.153 -23.601 -16.590  0.00  0.00    -0.338 OA
BRANCH  11  14
ATOM     12  O   UNL     1      33.863 -23.253 -18.354  0.00  0.00    -0.090 OA
ATOM     13  O   UNL     1      32.905 -23.362 -16.344  0.00  0.00    -0.090 OA
ATOM     14  N   UNL     1      33.855 -23.388 -17.130  0.00  0.00    +0.218 N 
ENDBRANCH  11  14
ENDBRANCH  10  11
ENDBRANCH   9  10
ENDBRANCH   1   9
BRANCH   1  15
ATOM     15  C   UNL     1      37.357 -25.275 -14.751  0.00  0.00    -0.026 C 
BRANCH  15  16
ATOM     16  C   UNL     1      38.327 -26.103 -13.923  0.00  0.00    +0.221 C 
BRANCH  16  17
ATOM     17  O   UNL     1      39.351 -26.596 -14.776  0.00  0.00    -0.338 OA
BRANCH  17  20
ATOM     18  O   UNL     1      41.381 -26.983 -13.984  0.00  0.00    -0.090 OA
ATOM     19  O   UNL     1      40.880 -24.918 -14.657  0.00  0.00    -0.090 OA
ATOM     20  N   UNL     1      40.647 -26.111 -14.448  0.00  0.00    +0.218 N 
ENDBRANCH  17  20
ENDBRANCH  16  17
ENDBRANCH  15  16
ENDBRANCH   1  15
TORSDOF 12
ENDMDL
MODEL 6
REMARK VINA RESULT:      -7.1      1.462      6.465
REMARK  Name = 11499
REMARK  12 active torsions:
REMARK  status: ('A' for Active; 'I' for Inactive)
REMARK    1  A    between atoms: N_1  and  C_3
REMARK    2  A    between atoms: N_1  and  C_9
REMARK    3  A    between atoms: N_1  and  C_15
REMARK    4  A    between atoms: C_3  and  C_4
REMARK    5  A    between atoms: C_4  and  O_5
REMARK    6  A    between atoms: O_5  and  N_8
REMARK    7  A    between atoms: C_9  and  C_10
REMARK    8  A    between atoms: C_10  and  O_11
REMARK    9  A    between atoms: O_11  and  N_14
REMARK   10  A    between atoms: C_15  and  C_16
REMARK   11  A    between atoms: C_16  and  O_17
REMARK   12  A    between atoms: O_17  and  N_20
REMARK                            x       y       z     vdW  Elec       q    Type
REMARK                         _______ _______ _______ _____ _____    ______ ____
ROOT
ATOM      1  N   UNL     1      36.046 -24.249 -15.164  0.00  0.00    +0.395 N 
ATOM      2  H   UNL     1      36.021 -25.033 -15.817  0.00  0.00    -0.079 HD
ENDROOT
BRANCH   1   3
ATOM      3  C   UNL     1      35.002 -24.449 -14.160  0.00  0.00    -0.026 C 
BRANCH   3   4
ATOM      4  C   UNL     1      35.355 -23.731 -12.868  0.00  0.00    +0.221 C 
BRANCH   4   5
ATOM      5  O   UNL     1      34.949 -24.538 -11.771  0.00  0.00    -0.338 OA
BRANCH   5   8
ATOM      6  O   UNL     1      36.961 -24.148 -10.932  0.00  0.00    -0.090 OA
ATOM      7  O   UNL     1      35.291 -24.598  -9.523  0.00  0.00    -0.090 OA
ATOM      8  N   UNL     1      35.797 -24.420 -10.634  0.00  0.00    +0.218 N 
ENDBRANCH   5   8
ENDBRANCH   4   5
ENDBRANCH   3   4
ENDBRANCH   1   3
BRANCH   1   9
ATOM      9  C   UNL     1      37.364 -24.215 -14.529  0.00  0.00    -0.026 C 
BRANCH   9  10
ATOM     10  C   UNL     1      38.032 -25.579 -14.607  0.00  0.00    +0.221 C 
BRANCH  10  11
ATOM     11  O   UNL     1      39.103 -25.616 -13.673  0.00  0.00    -0.338 OA
BRANCH  11  14
ATOM     12  O   UNL     1      40.956 -24.574 -14.289  0.00  0.00    -0.090 OA
ATOM     13  O   UNL     1      40.772 -26.754 -14.719  0.00  0.00    -0.090 OA
ATOM     14  N   UNL     1      40.387 -25.666 -14.282  0.00  0.00    +0.218 N 
ENDBRANCH  11  14
ENDBRANCH  10  11
ENDBRANCH   9  10
ENDBRANCH   1   9
BRANCH   1  15
ATOM     15  C   UNL     1      35.807 -23.016 -15.911  0.00  0.00    -0.026 C 
BRANCH  15  16
ATOM     16  C   UNL     1      34.532 -23.122 -16.732  0.00  0.00    +0.221 C 
BRANCH  16  17
ATOM     17  O   UNL     1      34.761 -22.547 -18.011  0.00  0.00    -0.338 OA
BRANCH  17  20
ATOM     18  O   UNL     1      34.002 -23.911 -19.581  0.00  0.00    -0.090 OA
ATOM     19  O   UNL     1      32.798 -22.106 -19.070  0.00  0.00    -0.090 OA
ATOM     20  N   UNL     1      33.760 -22.872 -18.968  0.00  0.00    +0.218 N 
ENDBRANCH  17  20
ENDBRANCH  16  17
ENDBRANCH  15  16
ENDBRANCH   1  15
TORSDOF 12
ENDMDL
MODEL 7
REMARK VINA RESULT:      -7.0      1.407      5.114
REMARK  Name = 11499
REMARK  12 active torsions:
REMARK  status: ('A' for Active; 'I' for Inactive)
REMARK    1  A    between atoms: N_1  and  C_3
REMARK    2  A    between atoms: N_1  and  C_9
REMARK    3  A    between atoms: N_1  and  C_15
REMARK    4  A    between atoms: C_3  and  C_4
REMARK    5  A    between atoms: C_4  and  O_5
REMARK    6  A    between atoms: O_5  and  N_8
REMARK    7  A    between atoms: C_9  and  C_10
REMARK    8  A    between atoms: C_10  and  O_11
REMARK    9  A    between atoms: O_11  and  N_14
REMARK   10  A    between atoms: C_15  and  C_16
REMARK   11  A    between atoms: C_16  and  O_17
REMARK   12  A    between atoms: O_17  and  N_20
REMARK                            x       y       z     vdW  Elec       q    Type
REMARK                         _______ _______ _______ _____ _____    ______ ____
ROOT
ATOM      1  N   UNL     1      36.245 -24.292 -14.578  0.00  0.00    +0.395 N 
ATOM      2  H   UNL     1      36.702 -23.915 -13.748  0.00  0.00    -0.079 HD
ENDROOT
BRANCH   1   3
ATOM      3  C   UNL     1      36.756 -25.641 -14.816  0.00  0.00    -0.026 C 
BRANCH   3   4
ATOM      4  C   UNL     1      37.868 -25.974 -13.834  0.00  0.00    +0.221 C 
BRANCH   4   5
ATOM      5  O   UNL     1      38.913 -26.636 -14.535  0.00  0.00    -0.338 OA
BRANCH   5   8
ATOM      6  O   UNL     1      40.215 -24.940 -13.957  0.00  0.00    -0.090 OA
ATOM      7  O   UNL     1      40.649 -26.012 -15.864  0.00  0.00    -0.090 OA
ATOM      8  N   UNL     1      40.025 -25.796 -14.822  0.00  0.00    +0.218 N 
ENDBRANCH   5   8
ENDBRANCH   4   5
ENDBRANCH   3   4
ENDBRANCH   1   3
BRANCH   1   9
ATOM      9  C   UNL     1      34.802 -24.328 -14.338  0.00  0.00    -0.026 C 
BRANCH   9  10
ATOM     10  C   UNL     1      34.509 -24.412 -12.848  0.00  0.00    +0.221 C 
BRANCH  10  11
ATOM     11  O   UNL     1      35.462 -23.621 -12.150  0.00  0.00    -0.338 OA
BRANCH  11  14
ATOM     12  O   UNL     1      37.234 -24.030 -10.888  0.00  0.00    -0.090 OA
ATOM     13  O   UNL     1      35.300 -24.998 -10.348  0.00  0.00    -0.090 OA
ATOM     14  N   UNL     1      36.035 -24.279 -11.028  0.00  0.00    +0.218 N 
ENDBRANCH  11  14
ENDBRANCH  10  11
ENDBRANCH   9  10
ENDBRANCH   1   9
BRANCH   1  15
ATOM     15  C   UNL     1      36.552 -23.421 -15.712  0.00  0.00    -0.026 C 
BRANCH  15  16
ATOM     16  C   UNL     1      35.312 -22.663 -16.158  0.00  0.00    +0.221 C 
BRANCH  16  17
ATOM     17  O   UNL     1      35.189 -22.775 -17.569  0.00  0.00    -0.338 OA
BRANCH  17  20
ATOM     18  O   UNL     1      33.868 -23.571 -19.158  0.00  0.00    -0.090 OA
ATOM     19  O   UNL     1      32.963 -23.043 -17.190  0.00  0.00    -0.090 OA
ATOM     20  N   UNL     1      33.888 -23.160 -17.998  0.00  0.00    +0.218 N 
ENDBRANCH  17  20
ENDBRANCH  16  17
ENDBRANCH  15  16
ENDBRANCH   1  15
TORSDOF 12
ENDMDL
MODEL 8
REMARK VINA RESULT:      -6.8      1.830      4.200
REMARK  Name = 11499
REMARK  12 active torsions:
REMARK  status: ('A' for Active; 'I' for Inactive)
REMARK    1  A    between atoms: N_1  and  C_3
REMARK    2  A    between atoms: N_1  and  C_9
REMARK    3  A    between atoms: N_1  and  C_15
REMARK    4  A    between atoms: C_3  and  C_4
REMARK    5  A    between atoms: C_4  and  O_5
REMARK    6  A    between atoms: O_5  and  N_8
REMARK    7  A    between atoms: C_9  and  C_10
REMARK    8  A    between atoms: C_10  and  O_11
REMARK    9  A    between atoms: O_11  and  N_14
REMARK   10  A    between atoms: C_15  and  C_16
REMARK   11  A    between atoms: C_16  and  O_17
REMARK   12  A    between atoms: O_17  and  N_20
REMARK                            x       y       z     vdW  Elec       q    Type
REMARK                         _______ _______ _______ _____ _____    ______ ____
ROOT
ATOM      1  N   UNL     1      35.713 -23.220 -14.161  0.00  0.00    +0.395 N 
ATOM      2  H   UNL     1      35.812 -22.527 -13.419  0.00  0.00    -0.079 HD
ENDROOT
BRANCH   1   3
ATOM      3  C   UNL     1      34.497 -22.921 -14.915  0.00  0.00    -0.026 C 
BRANCH   3   4
ATOM      4  C   UNL     1      34.432 -23.758 -16.183  0.00  0.00    +0.221 C 
BRANCH   4   5
ATOM      5  O   UNL     1      34.569 -22.898 -17.306  0.00  0.00    -0.338 OA
BRANCH   5   8
ATOM      6  O   UNL     1      33.904 -23.804 -19.214  0.00  0.00    -0.090 OA
ATOM      7  O   UNL     1      32.474 -22.506 -18.099  0.00  0.00    -0.090 OA
ATOM      8  N   UNL     1      33.552 -23.077 -18.285  0.00  0.00    +0.218 N 
ENDBRANCH   5   8
ENDBRANCH   4   5
ENDBRANCH   3   4
ENDBRANCH   1   3
BRANCH   1   9
ATOM      9  C   UNL     1      36.886 -23.139 -15.031  0.00  0.00    -0.026 C 
BRANCH   9  10
ATOM     10  C   UNL     1      37.658 -24.449 -15.013  0.00  0.00    +0.221 C 
BRANCH  10  11
ATOM     11  O   UNL     1      39.050 -24.160 -15.012  0.00  0.00    -0.338 OA
BRANCH  11  14
ATOM     12  O   UNL     1      41.058 -24.997 -14.607  0.00  0.00    -0.090 OA
ATOM     13  O   UNL     1      39.308 -26.378 -14.587  0.00  0.00    -0.090 OA
ATOM     14  N   UNL     1      39.865 -25.285 -14.709  0.00  0.00    +0.218 N 
ENDBRANCH  11  14
ENDBRANCH  10  11
ENDBRANCH   9  10
ENDBRANCH   1   9
BRANCH   1  15
ATOM     15  C   UNL     1      35.622 -24.545 -13.549  0.00  0.00    -0.026 C 
BRANCH  15  16
ATOM     16  C   UNL     1      35.670 -24.441 -12.033  0.00  0.00    +0.221 C 
BRANCH  16  17
ATOM     17  O   UNL     1      37.016 -24.601 -11.606  0.00  0.00    -0.338 OA
BRANCH  17  20
ATOM     18  O   UNL     1      38.956 -23.539 -11.704  0.00  0.00    -0.090 OA
ATOM     19  O   UNL     1      37.105 -22.342 -11.368  0.00  0.00    -0.090 OA
ATOM     20  N   UNL     1      37.744 -23.381 -11.552  0.00  0.00    +0.218 N 
ENDBRANCH  17  20
ENDBRANCH  16  17
ENDBRANCH  15  16
ENDBRANCH   1  15
TORSDOF 12
ENDMDL
MODEL 9
REMARK VINA RESULT:      -6.7      4.630      6.621
REMARK  Name = 11499
REMARK  12 active torsions:
REMARK  status: ('A' for Active; 'I' for Inactive)
REMARK    1  A    between atoms: N_1  and  C_3
REMARK    2  A    between atoms: N_1  and  C_9
REMARK    3  A    between atoms: N_1  and  C_15
REMARK    4  A    between atoms: C_3  and  C_4
REMARK    5  A    between atoms: C_4  and  O_5
REMARK    6  A    between atoms: O_5  and  N_8
REMARK    7  A    between atoms: C_9  and  C_10
REMARK    8  A    between atoms: C_10  and  O_11
REMARK    9  A    between atoms: O_11  and  N_14
REMARK   10  A    between atoms: C_15  and  C_16
REMARK   11  A    between atoms: C_16  and  O_17
REMARK   12  A    between atoms: O_17  and  N_20
REMARK                            x       y       z     vdW  Elec       q    Type
REMARK                         _______ _______ _______ _____ _____    ______ ____
ROOT
ATOM      1  N   UNL     1      32.012 -23.905 -15.192  0.00  0.00    +0.395 N 
ATOM      2  H   UNL     1      32.084 -24.919 -15.268  0.00  0.00    -0.079 HD
ENDROOT
BRANCH   1   3
ATOM      3  C   UNL     1      30.737 -23.577 -14.556  0.00  0.00    -0.026 C 
BRANCH   3   4
ATOM      4  C   UNL     1      29.872 -22.741 -15.486  0.00  0.00    +0.221 C 
BRANCH   4   5
ATOM      5  O   UNL     1      28.648 -23.425 -15.710  0.00  0.00    -0.338 OA
BRANCH   5   8
ATOM      6  O   UNL     1      27.850 -21.779 -16.957  0.00  0.00    -0.090 OA
ATOM      7  O   UNL     1      27.587 -23.875 -17.671  0.00  0.00    -0.090 OA
ATOM      8  N   UNL     1      27.967 -23.003 -16.886  0.00  0.00    +0.218 N 
ENDBRANCH   5   8
ENDBRANCH   4   5
ENDBRANCH   3   4
ENDBRANCH   1   3
BRANCH   1   9
ATOM      9  C   UNL     1      33.128 -23.420 -14.379  0.00  0.00    -0.026 C 
BRANCH   9  10
ATOM     10  C   UNL     1      33.701 -24.545 -13.531  0.00  0.00    +0.221 C 
BRANCH  10  11
ATOM     11  O   UNL     1      34.248 -23.987 -12.343  0.00  0.00    -0.338 OA
BRANCH  11  14
ATOM     12  O   UNL     1      36.187 -25.007 -12.658  0.00  0.00    -0.090 OA
ATOM     13  O   UNL     1      35.303 -25.015 -10.612  0.00  0.00    -0.090 OA
ATOM     14  N   UNL     1      35.335 -24.734 -11.812  0.00  0.00    +0.218 N 
ENDBRANCH  11  14
ENDBRANCH  10  11
ENDBRANCH   9  10
ENDBRANCH   1   9
BRANCH   1  15
ATOM     15  C   UNL     1      32.074 -23.334 -16.537  0.00  0.00    -0.026 C 
BRANCH  15  16
ATOM     16  C   UNL     1      33.514 -23.241 -17.015  0.00  0.00    +0.221 C 
BRANCH  16  17
ATOM     17  O   UNL     1      33.582 -23.705 -18.356  0.00  0.00    -0.338 OA
BRANCH  17  20
ATOM     18  O   UNL     1      35.096 -22.561 -19.495  0.00  0.00    -0.090 OA
ATOM     19  O   UNL     1      32.944 -22.059 -19.789  0.00  0.00    -0.090 OA
ATOM     20  N   UNL     1      33.888 -22.683 -19.297  0.00  0.00    +0.218 N 
ENDBRANCH  17  20
ENDBRANCH  16  17
ENDBRANCH  15  16
ENDBRANCH   1  15
TORSDOF 12
ENDMDL
