MODEL 1
REMARK VINA RESULT:     -10.3      0.000      0.000
REMARK  Name = 2732
REMARK  4 active torsions:
REMARK  status: ('A' for Active; 'I' for Inactive)
REMARK    1  A    between atoms: C_3  and  C_13
REMARK    2  A    between atoms: C_3  and  O_25
REMARK    3  A    between atoms: C_16  and  S_19
REMARK    4  A    between atoms: S_19  and  N_22
REMARK                            x       y       z     vdW  Elec       q    Type
REMARK                         _______ _______ _______ _____ _____    ______ ____
ROOT
ATOM      1  O   UNL     1      32.156 -19.989 -20.579  0.00  0.00    -0.270 OA
ATOM      2  N   UNL     1      32.825 -21.954 -19.473  0.00  0.00    -0.276 N 
ATOM      3  C   UNL     1      34.080 -22.590 -19.082  0.00  0.00    +0.188 C 
ATOM      4  C   UNL     1      35.090 -21.587 -19.572  0.00  0.00    +0.028 C 
ATOM      5  C   UNL     1      34.445 -20.509 -20.185  0.00  0.00    +0.054 C 
ATOM      6  C   UNL     1      32.999 -20.742 -20.128  0.00  0.00    +0.248 C 
ATOM      7  C   UNL     1      36.473 -21.617 -19.504  0.00  0.00    +0.000 C 
ATOM      8  C   UNL     1      35.127 -19.441 -20.732  0.00  0.00    +0.004 C 
ATOM      9  C   UNL     1      37.188 -20.546 -20.051  0.00  0.00    -0.000 C 
ATOM     10  C   UNL     1      36.521 -19.467 -20.658  0.00  0.00    +0.000 C 
ATOM     11  H   UNL     1      31.940 -22.347 -19.290  0.00  0.00    +0.152 HD
ENDROOT
BRANCH   3  13
ATOM     12 CL   UNL     1      34.490 -23.666 -13.155  0.00  0.00    -0.081 Cl
ATOM     13  C   UNL     1      34.168 -22.864 -17.592  0.00  0.00    +0.025 C 
ATOM     14  C   UNL     1      33.036 -23.277 -16.885  0.00  0.00    +0.021 C 
ATOM     15  C   UNL     1      35.383 -22.704 -16.922  0.00  0.00    +0.001 C 
ATOM     16  C   UNL     1      33.119 -23.528 -15.515  0.00  0.00    +0.132 C 
ATOM     17  C   UNL     1      35.466 -22.956 -15.552  0.00  0.00    +0.013 C 
ATOM     18  C   UNL     1      34.334 -23.368 -14.850  0.00  0.00    +0.076 C 
BRANCH  16  19
ATOM     19  S   UNL     1      31.665 -24.044 -14.685  0.00  0.00    +0.058 S 
ATOM     20  O   UNL     1      31.872 -25.403 -14.212  0.00  0.00    -0.153 OA
ATOM     21  O   UNL     1      31.278 -22.998 -13.751  0.00  0.00    -0.153 OA
BRANCH  19  22
ATOM     22  N   UNL     1      30.551 -24.069 -15.979  0.00  0.00    -0.203 NA
ATOM     23  H   UNL     1      31.054 -23.979 -16.862  0.00  0.00    +0.144 HD
ATOM     24  H   UNL     1      29.897 -23.295 -15.880  0.00  0.00    +0.144 HD
ENDBRANCH  19  22
ENDBRANCH  16  19
ENDBRANCH   3  13
BRANCH   3  25
ATOM     25  O   UNL     1      34.217 -23.776 -19.857  0.00  0.00    -0.364 OA
ATOM     26  H   UNL     1      33.833 -24.524 -19.375  0.00  0.00    +0.213 HD
ENDBRANCH   3  25
TORSDOF 4
ENDMDL
MODEL 2
REMARK VINA RESULT:     -10.1      2.479      2.926
REMARK  Name = 2732
REMARK  4 active torsions:
REMARK  status: ('A' for Active; 'I' for Inactive)
REMARK    1  A    between atoms: C_3  and  C_13
REMARK    2  A    between atoms: C_3  and  O_25
REMARK    3  A    between atoms: C_16  and  S_19
REMARK    4  A    between atoms: S_19  and  N_22
REMARK                            x       y       z     vdW  Elec       q    Type
REMARK                         _______ _______ _______ _____ _____    ______ ____
ROOT
ATOM      1  O   UNL     1      32.150 -19.999 -20.535  0.00  0.00    -0.270 OA
ATOM      2  N   UNL     1      32.826 -21.980 -19.462  0.00  0.00    -0.276 N 
ATOM      3  C   UNL     1      34.084 -22.617 -19.081  0.00  0.00    +0.188 C 
ATOM      4  C   UNL     1      35.090 -21.602 -19.553  0.00  0.00    +0.028 C 
ATOM      5  C   UNL     1      34.441 -20.516 -20.148  0.00  0.00    +0.054 C 
ATOM      6  C   UNL     1      32.996 -20.756 -20.096  0.00  0.00    +0.248 C 
ATOM      7  C   UNL     1      36.473 -21.627 -19.485  0.00  0.00    +0.000 C 
ATOM      8  C   UNL     1      35.119 -19.435 -20.675  0.00  0.00    +0.004 C 
ATOM      9  C   UNL     1      37.183 -20.544 -20.012  0.00  0.00    -0.000 C 
ATOM     10  C   UNL     1      36.512 -19.457 -20.601  0.00  0.00    +0.000 C 
ATOM     11  H   UNL     1      31.943 -22.380 -19.286  0.00  0.00    +0.152 HD
ENDROOT
BRANCH   3  13
ATOM     12 CL   UNL     1      34.378 -23.807 -13.169  0.00  0.00    -0.081 Cl
ATOM     13  C   UNL     1      34.173 -22.917 -17.596  0.00  0.00    +0.025 C 
ATOM     14  C   UNL     1      35.419 -23.080 -16.986  0.00  0.00    +0.021 C 
ATOM     15  C   UNL     1      33.008 -23.031 -16.834  0.00  0.00    +0.001 C 
ATOM     16  C   UNL     1      35.499 -23.355 -15.620  0.00  0.00    +0.132 C 
ATOM     17  C   UNL     1      33.088 -23.305 -15.469  0.00  0.00    +0.013 C 
ATOM     18  C   UNL     1      34.334 -23.467 -14.862  0.00  0.00    +0.076 C 
BRANCH  16  19
ATOM     19  S   UNL     1      37.091 -23.549 -14.913  0.00  0.00    +0.058 S 
ATOM     20  O   UNL     1      37.188 -22.657 -13.769  0.00  0.00    -0.153 OA
ATOM     21  O   UNL     1      37.349 -24.971 -14.753  0.00  0.00    -0.153 OA
BRANCH  19  22
ATOM     22  N   UNL     1      38.074 -22.946 -16.172  0.00  0.00    -0.203 NA
ATOM     23  H   UNL     1      38.499 -22.067 -15.880  0.00  0.00    +0.144 HD
ATOM     24  H   UNL     1      37.505 -22.789 -17.003  0.00  0.00    +0.144 HD
ENDBRANCH  19  22
ENDBRANCH  16  19
ENDBRANCH   3  13
BRANCH   3  25
ATOM     25  O   UNL     1      34.227 -23.789 -19.876  0.00  0.00    -0.364 OA
ATOM     26  H   UNL     1      35.128 -23.833 -20.230  0.00  0.00    +0.213 HD
ENDBRANCH   3  25
TORSDOF 4
ENDMDL
MODEL 3
REMARK VINA RESULT:      -9.8      6.476      9.096
REMARK  Name = 2732
REMARK  4 active torsions:
REMARK  status: ('A' for Active; 'I' for Inactive)
REMARK    1  A    between atoms: C_3  and  C_13
REMARK    2  A    between atoms: C_3  and  O_25
REMARK    3  A    between atoms: C_16  and  S_19
REMARK    4  A    between atoms: S_19  and  N_22
REMARK                            x       y       z     vdW  Elec       q    Type
REMARK                         _______ _______ _______ _____ _____    ______ ____
ROOT
ATOM      1  O   UNL     1      37.953 -19.264 -21.036  0.00  0.00    -0.270 OA
ATOM      2  N   UNL     1      36.316 -18.067 -22.228  0.00  0.00    -0.276 N 
ATOM      3  C   UNL     1      34.862 -18.085 -22.365  0.00  0.00    +0.188 C 
ATOM      4  C   UNL     1      34.485 -19.195 -21.421  0.00  0.00    +0.028 C 
ATOM      5  C   UNL     1      35.630 -19.741 -20.832  0.00  0.00    +0.054 C 
ATOM      6  C   UNL     1      36.801 -19.027 -21.349  0.00  0.00    +0.248 C 
ATOM      7  C   UNL     1      33.237 -19.706 -21.107  0.00  0.00    +0.000 C 
ATOM      8  C   UNL     1      35.583 -20.781 -19.925  0.00  0.00    +0.004 C 
ATOM      9  C   UNL     1      33.162 -20.760 -20.191  0.00  0.00    -0.000 C 
ATOM     10  C   UNL     1      34.324 -21.291 -19.604  0.00  0.00    +0.000 C 
ATOM     11  H   UNL     1      36.896 -17.435 -22.712  0.00  0.00    +0.152 HD
ENDROOT
BRANCH   3  13
ATOM     12 CL   UNL     1      32.295 -12.803 -20.962  0.00  0.00    -0.081 Cl
ATOM     13  C   UNL     1      34.217 -16.754 -22.026  0.00  0.00    +0.025 C 
ATOM     14  C   UNL     1      33.913 -15.843 -23.041  0.00  0.00    +0.021 C 
ATOM     15  C   UNL     1      33.924 -16.435 -20.698  0.00  0.00    +0.001 C 
ATOM     16  C   UNL     1      33.320 -14.619 -22.728  0.00  0.00    +0.132 C 
ATOM     17  C   UNL     1      33.331 -15.212 -20.386  0.00  0.00    +0.013 C 
ATOM     18  C   UNL     1      33.028 -14.304 -21.402  0.00  0.00    +0.076 C 
BRANCH  16  19
ATOM     19  S   UNL     1      32.963 -13.519 -24.045  0.00  0.00    +0.058 S 
ATOM     20  O   UNL     1      33.131 -14.241 -25.296  0.00  0.00    -0.153 OA
ATOM     21  O   UNL     1      31.705 -12.851 -23.753  0.00  0.00    -0.153 OA
BRANCH  19  22
ATOM     22  N   UNL     1      34.238 -12.396 -23.877  0.00  0.00    -0.203 NA
ATOM     23  H   UNL     1      33.900 -11.461 -24.106  0.00  0.00    +0.144 HD
ATOM     24  H   UNL     1      34.997 -12.647 -24.509  0.00  0.00    +0.144 HD
ENDBRANCH  19  22
ENDBRANCH  16  19
ENDBRANCH   3  13
BRANCH   3  25
ATOM     25  O   UNL     1      34.564 -18.507 -23.691  0.00  0.00    -0.364 OA
ATOM     26  H   UNL     1      33.606 -18.468 -23.835  0.00  0.00    +0.213 HD
ENDBRANCH   3  25
TORSDOF 4
ENDMDL
MODEL 4
REMARK VINA RESULT:      -9.7      4.200      6.212
REMARK  Name = 2732
REMARK  4 active torsions:
REMARK  status: ('A' for Active; 'I' for Inactive)
REMARK    1  A    between atoms: C_3  and  C_13
REMARK    2  A    between atoms: C_3  and  O_25
REMARK    3  A    between atoms: C_16  and  S_19
REMARK    4  A    between atoms: S_19  and  N_22
REMARK                            x       y       z     vdW  Elec       q    Type
REMARK                         _______ _______ _______ _____ _____    ______ ____
ROOT
ATOM      1  O   UNL     1      34.229 -17.402 -25.798  0.00  0.00    -0.270 OA
ATOM      2  N   UNL     1      35.236 -18.469 -23.959  0.00  0.00    -0.276 N 
ATOM      3  C   UNL     1      35.530 -18.150 -22.565  0.00  0.00    +0.188 C 
ATOM      4  C   UNL     1      34.958 -16.763 -22.446  0.00  0.00    +0.028 C 
ATOM      5  C   UNL     1      34.413 -16.357 -23.668  0.00  0.00    +0.054 C 
ATOM      6  C   UNL     1      34.592 -17.441 -24.637  0.00  0.00    +0.248 C 
ATOM      7  C   UNL     1      34.928 -15.907 -21.358  0.00  0.00    +0.000 C 
ATOM      8  C   UNL     1      33.821 -15.123 -23.851  0.00  0.00    +0.004 C 
ATOM      9  C   UNL     1      34.334 -14.651 -21.518  0.00  0.00    -0.000 C 
ATOM     10  C   UNL     1      33.784 -14.263 -22.753  0.00  0.00    +0.000 C 
ATOM     11  H   UNL     1      35.471 -19.329 -24.378  0.00  0.00    +0.152 HD
ENDROOT
BRANCH   3  13
ATOM     12 CL   UNL     1      33.074 -22.085 -18.699  0.00  0.00    -0.081 Cl
ATOM     13  C   UNL     1      34.926 -19.143 -21.588  0.00  0.00    +0.025 C 
ATOM     14  C   UNL     1      35.752 -19.883 -20.739  0.00  0.00    +0.021 C 
ATOM     15  C   UNL     1      33.542 -19.320 -21.536  0.00  0.00    +0.001 C 
ATOM     16  C   UNL     1      35.196 -20.795 -19.842  0.00  0.00    +0.132 C 
ATOM     17  C   UNL     1      32.986 -20.231 -20.638  0.00  0.00    +0.013 C 
ATOM     18  C   UNL     1      33.813 -20.968 -19.791  0.00  0.00    +0.076 C 
BRANCH  16  19
ATOM     19  S   UNL     1      36.284 -21.693 -18.802  0.00  0.00    +0.058 S 
ATOM     20  O   UNL     1      35.481 -22.487 -17.886  0.00  0.00    -0.153 OA
ATOM     21  O   UNL     1      37.286 -22.336 -19.637  0.00  0.00    -0.153 OA
BRANCH  19  22
ATOM     22  N   UNL     1      37.020 -20.419 -17.935  0.00  0.00    -0.203 NA
ATOM     23  H   UNL     1      36.553 -19.541 -18.159  0.00  0.00    +0.144 HD
ATOM     24  H   UNL     1      38.004 -20.357 -18.192  0.00  0.00    +0.144 HD
ENDBRANCH  19  22
ENDBRANCH  16  19
ENDBRANCH   3  13
BRANCH   3  25
ATOM     25  O   UNL     1      36.945 -18.061 -22.437  0.00  0.00    -0.364 OA
ATOM     26  H   UNL     1      37.364 -18.717 -23.014  0.00  0.00    +0.213 HD
ENDBRANCH   3  25
TORSDOF 4
ENDMDL
MODEL 5
REMARK VINA RESULT:      -9.6      9.971     12.666
REMARK  Name = 2732
REMARK  4 active torsions:
REMARK  status: ('A' for Active; 'I' for Inactive)
REMARK    1  A    between atoms: C_3  and  C_13
REMARK    2  A    between atoms: C_3  and  O_25
REMARK    3  A    between atoms: C_16  and  S_19
REMARK    4  A    between atoms: S_19  and  N_22
REMARK                            x       y       z     vdW  Elec       q    Type
REMARK                         _______ _______ _______ _____ _____    ______ ____
ROOT
ATOM      1  O   UNL     1      34.201 -16.040 -25.879  0.00  0.00    -0.270 OA
ATOM      2  N   UNL     1      33.076 -14.110 -25.144  0.00  0.00    -0.276 N 
ATOM      3  C   UNL     1      32.832 -13.430 -23.875  0.00  0.00    +0.188 C 
ATOM      4  C   UNL     1      33.578 -14.313 -22.912  0.00  0.00    +0.028 C 
ATOM      5  C   UNL     1      34.165 -15.385 -23.592  0.00  0.00    +0.054 C 
ATOM      6  C   UNL     1      33.842 -15.261 -25.016  0.00  0.00    +0.248 C 
ATOM      7  C   UNL     1      33.725 -14.203 -21.539  0.00  0.00    +0.000 C 
ATOM      8  C   UNL     1      34.909 -16.358 -22.956  0.00  0.00    +0.004 C 
ATOM      9  C   UNL     1      34.474 -15.177 -20.871  0.00  0.00    -0.000 C 
ATOM     10  C   UNL     1      35.062 -16.244 -21.573  0.00  0.00    +0.000 C 
ATOM     11  H   UNL     1      32.729 -13.784 -26.006  0.00  0.00    +0.152 HD
ENDROOT
BRANCH   3  13
ATOM     12 CL   UNL     1      34.769  -7.711 -23.907  0.00  0.00    -0.081 Cl
ATOM     13  C   UNL     1      33.309 -11.988 -23.873  0.00  0.00    +0.025 C 
ATOM     14  C   UNL     1      32.710 -11.052 -23.026  0.00  0.00    +0.021 C 
ATOM     15  C   UNL     1      34.349 -11.594 -24.717  0.00  0.00    +0.001 C 
ATOM     16  C   UNL     1      33.149  -9.728 -23.026  0.00  0.00    +0.132 C 
ATOM     17  C   UNL     1      34.788 -10.270 -24.716  0.00  0.00    +0.013 C 
ATOM     18  C   UNL     1      34.188  -9.337 -23.869  0.00  0.00    +0.076 C 
BRANCH  16  19
ATOM     19  S   UNL     1      32.358  -8.601 -21.941  0.00  0.00    +0.058 S 
ATOM     20  O   UNL     1      33.388  -7.860 -21.230  0.00  0.00    -0.153 OA
ATOM     21  O   UNL     1      31.334  -7.890 -22.690  0.00  0.00    -0.153 OA
BRANCH  19  22
ATOM     22  N   UNL     1      31.601  -9.680 -20.856  0.00  0.00    -0.203 NA
ATOM     23  H   UNL     1      32.270 -10.392 -20.563  0.00  0.00    +0.144 HD
ATOM     24  H   UNL     1      30.810 -10.126 -21.317  0.00  0.00    +0.144 HD
ENDBRANCH  19  22
ENDBRANCH  16  19
ENDBRANCH   3  13
BRANCH   3  25
ATOM     25  O   UNL     1      31.441 -13.537 -23.592  0.00  0.00    -0.364 OA
ATOM     26  H   UNL     1      31.267 -13.215 -22.695  0.00  0.00    +0.213 HD
ENDBRANCH   3  25
TORSDOF 4
ENDMDL
MODEL 6
REMARK VINA RESULT:      -9.0      1.719      2.038
REMARK  Name = 2732
REMARK  4 active torsions:
REMARK  status: ('A' for Active; 'I' for Inactive)
REMARK    1  A    between atoms: C_3  and  C_13
REMARK    2  A    between atoms: C_3  and  O_25
REMARK    3  A    between atoms: C_16  and  S_19
REMARK    4  A    between atoms: S_19  and  N_22
REMARK                            x       y       z     vdW  Elec       q    Type
REMARK                         _______ _______ _______ _____ _____    ______ ____
ROOT
ATOM      1  O   UNL     1      32.884 -20.160 -21.262  0.00  0.00    -0.270 OA
ATOM      2  N   UNL     1      32.745 -22.064 -19.887  0.00  0.00    -0.276 N 
ATOM      3  C   UNL     1      33.619 -22.787 -18.968  0.00  0.00    +0.188 C 
ATOM      4  C   UNL     1      34.871 -21.954 -19.022  0.00  0.00    +0.028 C 
ATOM      5  C   UNL     1      34.700 -20.880 -19.902  0.00  0.00    +0.054 C 
ATOM      6  C   UNL     1      33.346 -20.950 -20.459  0.00  0.00    +0.248 C 
ATOM      7  C   UNL     1      36.079 -22.124 -18.368  0.00  0.00    +0.000 C 
ATOM      8  C   UNL     1      35.690 -19.951 -20.151  0.00  0.00    +0.004 C 
ATOM      9  C   UNL     1      37.099 -21.197 -18.603  0.00  0.00    -0.000 C 
ATOM     10  C   UNL     1      36.906 -20.119 -19.486  0.00  0.00    +0.000 C 
ATOM     11  H   UNL     1      31.821 -22.339 -20.083  0.00  0.00    +0.152 HD
ENDROOT
BRANCH   3  13
ATOM     12 CL   UNL     1      31.355 -23.314 -13.395  0.00  0.00    -0.081 Cl
ATOM     13  C   UNL     1      33.036 -22.918 -17.572  0.00  0.00    +0.025 C 
ATOM     14  C   UNL     1      31.657 -22.810 -17.374  0.00  0.00    +0.021 C 
ATOM     15  C   UNL     1      33.877 -23.146 -16.481  0.00  0.00    +0.001 C 
ATOM     16  C   UNL     1      31.123 -22.930 -16.091  0.00  0.00    +0.132 C 
ATOM     17  C   UNL     1      33.342 -23.266 -15.198  0.00  0.00    +0.013 C 
ATOM     18  C   UNL     1      31.965 -23.158 -15.004  0.00  0.00    +0.076 C 
BRANCH  16  19
ATOM     19  S   UNL     1      29.386 -22.786 -15.908  0.00  0.00    +0.058 S 
ATOM     20  O   UNL     1      29.121 -21.850 -14.827  0.00  0.00    -0.153 OA
ATOM     21  O   UNL     1      28.806 -22.564 -17.223  0.00  0.00    -0.153 OA
BRANCH  19  22
ATOM     22  N   UNL     1      28.989 -24.363 -15.386  0.00  0.00    -0.203 NA
ATOM     23  H   UNL     1      29.843 -24.867 -15.148  0.00  0.00    +0.144 HD
ATOM     24  H   UNL     1      28.500 -24.855 -16.133  0.00  0.00    +0.144 HD
ENDBRANCH  19  22
ENDBRANCH  16  19
ENDBRANCH   3  13
BRANCH   3  25
ATOM     25  O   UNL     1      33.901 -24.054 -19.554  0.00  0.00    -0.364 OA
ATOM     26  H   UNL     1      33.854 -23.982 -20.519  0.00  0.00    +0.213 HD
ENDBRANCH   3  25
TORSDOF 4
ENDMDL
MODEL 7
REMARK VINA RESULT:      -9.0      1.830      2.070
REMARK  Name = 2732
REMARK  4 active torsions:
REMARK  status: ('A' for Active; 'I' for Inactive)
REMARK    1  A    between atoms: C_3  and  C_13
REMARK    2  A    between atoms: C_3  and  O_25
REMARK    3  A    between atoms: C_16  and  S_19
REMARK    4  A    between atoms: S_19  and  N_22
REMARK                            x       y       z     vdW  Elec       q    Type
REMARK                         _______ _______ _______ _____ _____    ______ ____
ROOT
ATOM      1  O   UNL     1      31.974 -20.014 -20.014  0.00  0.00    -0.270 OA
ATOM      2  N   UNL     1      33.390 -21.743 -19.278  0.00  0.00    -0.276 N 
ATOM      3  C   UNL     1      34.816 -22.052 -19.325  0.00  0.00    +0.188 C 
ATOM      4  C   UNL     1      35.363 -20.845 -20.038  0.00  0.00    +0.028 C 
ATOM      5  C   UNL     1      34.327 -19.964 -20.363  0.00  0.00    +0.054 C 
ATOM      6  C   UNL     1      33.066 -20.536 -19.884  0.00  0.00    +0.248 C 
ATOM      7  C   UNL     1      36.666 -20.541 -20.395  0.00  0.00    +0.000 C 
ATOM      8  C   UNL     1      34.539 -18.772 -21.027  0.00  0.00    +0.004 C 
ATOM      9  C   UNL     1      36.907 -19.340 -21.069  0.00  0.00    -0.000 C 
ATOM     10  C   UNL     1      35.853 -18.462 -21.381  0.00  0.00    +0.000 C 
ATOM     11  H   UNL     1      32.723 -22.333 -18.859  0.00  0.00    +0.152 HD
ENDROOT
BRANCH   3  13
ATOM     12 CL   UNL     1      37.272 -22.895 -13.874  0.00  0.00    -0.081 Cl
ATOM     13  C   UNL     1      35.421 -22.272 -17.950  0.00  0.00    +0.025 C 
ATOM     14  C   UNL     1      34.723 -22.999 -16.983  0.00  0.00    +0.021 C 
ATOM     15  C   UNL     1      36.680 -21.748 -17.648  0.00  0.00    +0.001 C 
ATOM     16  C   UNL     1      35.280 -23.199 -15.720  0.00  0.00    +0.132 C 
ATOM     17  C   UNL     1      37.238 -21.949 -16.385  0.00  0.00    +0.013 C 
ATOM     18  C   UNL     1      36.537 -22.676 -15.422  0.00  0.00    +0.076 C 
BRANCH  16  19
ATOM     19  S   UNL     1      34.355 -24.120 -14.550  0.00  0.00    +0.058 S 
ATOM     20  O   UNL     1      34.589 -23.545 -13.235  0.00  0.00    -0.153 OA
ATOM     21  O   UNL     1      32.997 -24.261 -15.052  0.00  0.00    -0.153 OA
BRANCH  19  22
ATOM     22  N   UNL     1      35.140 -25.633 -14.642  0.00  0.00    -0.203 NA
ATOM     23  H   UNL     1      35.988 -25.611 -14.077  0.00  0.00    +0.144 HD
ATOM     24  H   UNL     1      35.383 -25.831 -15.612  0.00  0.00    +0.144 HD
ENDBRANCH  19  22
ENDBRANCH  16  19
ENDBRANCH   3  13
BRANCH   3  25
ATOM     25  O   UNL     1      34.980 -23.184 -20.173  0.00  0.00    -0.364 OA
ATOM     26  H   UNL     1      34.844 -23.995 -19.660  0.00  0.00    +0.213 HD
ENDBRANCH   3  25
TORSDOF 4
ENDMDL
MODEL 8
REMARK VINA RESULT:      -8.9      9.287     11.877
REMARK  Name = 2732
REMARK  4 active torsions:
REMARK  status: ('A' for Active; 'I' for Inactive)
REMARK    1  A    between atoms: C_3  and  C_13
REMARK    2  A    between atoms: C_3  and  O_25
REMARK    3  A    between atoms: C_16  and  S_19
REMARK    4  A    between atoms: S_19  and  N_22
REMARK                            x       y       z     vdW  Elec       q    Type
REMARK                         _______ _______ _______ _____ _____    ______ ____
ROOT
ATOM      1  O   UNL     1      32.011  -9.900 -18.350  0.00  0.00    -0.270 OA
ATOM      2  N   UNL     1      31.492 -11.372 -20.109  0.00  0.00    -0.276 N 
ATOM      3  C   UNL     1      31.467 -11.331 -21.569  0.00  0.00    +0.188 C 
ATOM      4  C   UNL     1      31.940  -9.928 -21.839  0.00  0.00    +0.028 C 
ATOM      5  C   UNL     1      32.189  -9.261 -20.635  0.00  0.00    +0.054 C 
ATOM      6  C   UNL     1      31.899 -10.177 -19.529  0.00  0.00    +0.248 C 
ATOM      7  C   UNL     1      32.127  -9.272 -23.044  0.00  0.00    +0.000 C 
ATOM      8  C   UNL     1      32.631  -7.954 -20.581  0.00  0.00    +0.004 C 
ATOM      9  C   UNL     1      32.575  -7.948 -23.016  0.00  0.00    -0.000 C 
ATOM     10  C   UNL     1      32.826  -7.295 -21.796  0.00  0.00    +0.000 C 
ATOM     11  H   UNL     1      31.243 -12.169 -19.587  0.00  0.00    +0.152 HD
ENDROOT
BRANCH   3  13
ATOM     12 CL   UNL     1      34.928 -15.546 -24.159  0.00  0.00    -0.081 Cl
ATOM     13  C   UNL     1      32.335 -12.400 -22.208  0.00  0.00    +0.025 C 
ATOM     14  C   UNL     1      32.560 -13.609 -21.547  0.00  0.00    +0.021 C 
ATOM     15  C   UNL     1      32.911 -12.176 -23.460  0.00  0.00    +0.001 C 
ATOM     16  C   UNL     1      33.359 -14.590 -22.136  0.00  0.00    +0.132 C 
ATOM     17  C   UNL     1      33.709 -13.157 -24.049  0.00  0.00    +0.013 C 
ATOM     18  C   UNL     1      33.932 -14.365 -23.387  0.00  0.00    +0.076 C 
BRANCH  16  19
ATOM     19  S   UNL     1      33.603 -16.087 -21.258  0.00  0.00    +0.058 S 
ATOM     20  O   UNL     1      32.380 -16.391 -20.533  0.00  0.00    -0.153 OA
ATOM     21  O   UNL     1      34.171 -17.065 -22.172  0.00  0.00    -0.153 OA
BRANCH  19  22
ATOM     22  N   UNL     1      34.805 -15.609 -20.143  0.00  0.00    -0.203 NA
ATOM     23  H   UNL     1      34.966 -16.361 -19.473  0.00  0.00    +0.144 HD
ATOM     24  H   UNL     1      34.497 -14.773 -19.649  0.00  0.00    +0.144 HD
ENDBRANCH  19  22
ENDBRANCH  16  19
ENDBRANCH   3  13
BRANCH   3  25
ATOM     25  O   UNL     1      30.106 -11.428 -21.976  0.00  0.00    -0.364 OA
ATOM     26  H   UNL     1      29.752 -10.540 -22.134  0.00  0.00    +0.213 HD
ENDBRANCH   3  25
TORSDOF 4
ENDMDL
MODEL 9
REMARK VINA RESULT:      -8.9      3.993      6.449
REMARK  Name = 2732
REMARK  4 active torsions:
REMARK  status: ('A' for Active; 'I' for Inactive)
REMARK    1  A    between atoms: C_3  and  C_13
REMARK    2  A    between atoms: C_3  and  O_25
REMARK    3  A    between atoms: C_16  and  S_19
REMARK    4  A    between atoms: S_19  and  N_22
REMARK                            x       y       z     vdW  Elec       q    Type
REMARK                         _______ _______ _______ _____ _____    ______ ____
ROOT
ATOM      1  O   UNL     1      37.099 -26.865 -12.018  0.00  0.00    -0.270 OA
ATOM      2  N   UNL     1      35.766 -24.975 -12.450  0.00  0.00    -0.276 N 
ATOM      3  C   UNL     1      35.796 -23.827 -13.350  0.00  0.00    +0.188 C 
ATOM      4  C   UNL     1      37.049 -24.095 -14.140  0.00  0.00    +0.028 C 
ATOM      5  C   UNL     1      37.654 -25.276 -13.700  0.00  0.00    +0.054 C 
ATOM      6  C   UNL     1      36.841 -25.838 -12.619  0.00  0.00    +0.248 C 
ATOM      7  C   UNL     1      37.631 -23.357 -15.157  0.00  0.00    +0.000 C 
ATOM      8  C   UNL     1      38.825 -25.765 -14.245  0.00  0.00    +0.004 C 
ATOM      9  C   UNL     1      38.817 -23.831 -15.726  0.00  0.00    -0.000 C 
ATOM     10  C   UNL     1      39.408 -25.026 -15.275  0.00  0.00    +0.000 C 
ATOM     11  H   UNL     1      35.053 -25.124 -11.786  0.00  0.00    +0.152 HD
ENDROOT
BRANCH   3  13
ATOM     12 CL   UNL     1      30.803 -23.384 -16.718  0.00  0.00    -0.081 Cl
ATOM     13  C   UNL     1      34.549 -23.713 -14.209  0.00  0.00    +0.025 C 
ATOM     14  C   UNL     1      34.659 -23.438 -15.574  0.00  0.00    +0.021 C 
ATOM     15  C   UNL     1      33.287 -23.882 -13.636  0.00  0.00    +0.001 C 
ATOM     16  C   UNL     1      33.513 -23.333 -16.362  0.00  0.00    +0.132 C 
ATOM     17  C   UNL     1      32.140 -23.778 -14.424  0.00  0.00    +0.013 C 
ATOM     18  C   UNL     1      32.254 -23.503 -15.787  0.00  0.00    +0.076 C 
BRANCH  16  19
ATOM     19  S   UNL     1      33.716 -22.987 -18.068  0.00  0.00    +0.058 S 
ATOM     20  O   UNL     1      33.700 -24.249 -18.790  0.00  0.00    -0.153 OA
ATOM     21  O   UNL     1      32.790 -21.926 -18.432  0.00  0.00    -0.153 OA
BRANCH  19  22
ATOM     22  N   UNL     1      35.306 -22.362 -18.079  0.00  0.00    -0.203 NA
ATOM     23  H   UNL     1      35.290 -21.399 -18.412  0.00  0.00    +0.144 HD
ATOM     24  H   UNL     1      35.888 -22.926 -18.696  0.00  0.00    +0.144 HD
ENDBRANCH  19  22
ENDBRANCH  16  19
ENDBRANCH   3  13
BRANCH   3  25
ATOM     25  O   UNL     1      36.010 -22.666 -12.555  0.00  0.00    -0.364 OA
ATOM     26  H   UNL     1      36.516 -22.904 -11.764  0.00  0.00    +0.213 HD
ENDBRANCH   3  25
TORSDOF 4
ENDMDL
