MODEL 1
REMARK VINA RESULT:     -12.9      0.000      0.000
REMARK  Name = 11282283
REMARK  4 active torsions:
REMARK  status: ('A' for Active; 'I' for Inactive)
REMARK    1  A    between atoms: N_3  and  C_21
REMARK    2  A    between atoms: C_21  and  N_22
REMARK    3  A    between atoms: N_22  and  C_24
REMARK    4  A    between atoms: C_24  and  C_27
REMARK                            x       y       z     vdW  Elec       q    Type
REMARK                         _______ _______ _______ _____ _____    ______ ____
ROOT
ATOM      1  O   UNL     1      33.782 -10.821 -23.394  0.00  0.00    -0.466 OA
ATOM      2  N   UNL     1      32.894 -13.409 -22.311  0.00  0.00    -0.290 N 
ATOM      3  N   UNL     1      34.242 -15.902 -22.818  0.00  0.00    -0.288 N 
ATOM      4  N   UNL     1      31.130 -12.157 -21.297  0.00  0.00    -0.230 NA
ATOM      5  N   UNL     1      30.934  -9.740 -21.586  0.00  0.00    -0.245 NA
ATOM      6  C   UNL     1      32.866 -14.492 -21.323  0.00  0.00    +0.113 C 
ATOM      7  C   UNL     1      33.626 -13.626 -23.564  0.00  0.00    +0.113 C 
ATOM      8  C   UNL     1      34.096 -15.386 -21.465  0.00  0.00    +0.114 C 
ATOM      9  C   UNL     1      33.684 -15.113 -23.906  0.00  0.00    +0.114 C 
ATOM     10  C   UNL     1      32.239 -12.203 -22.067  0.00  0.00    +0.152 C 
ATOM     11  C   UNL     1      32.699 -11.017 -22.599  0.00  0.00    +0.258 C 
ATOM     12  C   UNL     1      32.048  -9.816 -22.355  0.00  0.00    +0.106 C 
ATOM     13  C   UNL     1      32.780  -8.815 -23.045  0.00  0.00    +0.051 C 
ATOM     14  C   UNL     1      33.834  -9.484 -23.667  0.00  0.00    +0.141 C 
ATOM     15  C   UNL     1      30.554 -10.945 -21.107  0.00  0.00    +0.251 C 
ATOM     16  C   UNL     1      32.673  -7.425 -23.217  0.00  0.00    +0.004 C 
ATOM     17  C   UNL     1      34.798  -8.856 -24.454  0.00  0.00    +0.037 C 
ATOM     18  C   UNL     1      33.629  -6.767 -24.004  0.00  0.00    +0.000 C 
ATOM     19  C   UNL     1      34.671  -7.473 -24.610  0.00  0.00    +0.003 C 
ENDROOT
BRANCH   3  21
ATOM     20  S   UNL     1      34.774 -17.829 -24.547  0.00  0.00    -0.019 S 
ATOM     21  C   UNL     1      34.876 -17.078 -23.056  0.00  0.00    +0.135 C 
BRANCH  21  22
ATOM     22  N   UNL     1      35.604 -17.628 -22.032  0.00  0.00    -0.312 N 
ATOM     23  H   UNL     1      35.868 -17.027 -21.298  0.00  0.00    +0.149 HD
BRANCH  22  24
ATOM     24  C   UNL     1      36.021 -19.013 -21.929  0.00  0.00    +0.116 C 
BRANCH  24  27
ATOM     25  O   UNL     1      34.993 -22.532 -18.623  0.00  0.00    -0.435 OA
ATOM     26  O   UNL     1      32.626 -22.094 -18.720  0.00  0.00    -0.435 OA
ATOM     27  C   UNL     1      35.082 -19.820 -21.081  0.00  0.00    +0.001 C 
ATOM     28  C   UNL     1      35.591 -20.813 -20.250  0.00  0.00    +0.038 C 
ATOM     29  C   UNL     1      33.706 -19.559 -21.143  0.00  0.00    +0.001 C 
ATOM     30  C   UNL     1      34.689 -21.528 -19.489  0.00  0.00    +0.176 C 
ATOM     31  C   UNL     1      33.337 -21.277 -19.544  0.00  0.00    +0.176 C 
ATOM     32  C   UNL     1      32.813 -20.297 -20.363  0.00  0.00    +0.040 C 
ATOM     33  C   UNL     1      33.681 -22.885 -18.138  0.00  0.00    +0.429 C 
ENDBRANCH  24  27
ENDBRANCH  22  24
ENDBRANCH  21  22
ENDBRANCH   3  21
TORSDOF 4
ENDMDL
MODEL 2
REMARK VINA RESULT:     -12.4      3.626     11.670
REMARK  Name = 11282283
REMARK  4 active torsions:
REMARK  status: ('A' for Active; 'I' for Inactive)
REMARK    1  A    between atoms: N_3  and  C_21
REMARK    2  A    between atoms: C_21  and  N_22
REMARK    3  A    between atoms: N_22  and  C_24
REMARK    4  A    between atoms: C_24  and  C_27
REMARK                            x       y       z     vdW  Elec       q    Type
REMARK                         _______ _______ _______ _____ _____    ______ ____
ROOT
ATOM      1  O   UNL     1      34.049 -15.134 -22.496  0.00  0.00    -0.466 OA
ATOM      2  N   UNL     1      32.946 -12.692 -23.711  0.00  0.00    -0.290 N 
ATOM      3  N   UNL     1      32.285 -10.321 -22.219  0.00  0.00    -0.288 N 
ATOM      4  N   UNL     1      33.075 -13.895 -25.773  0.00  0.00    -0.230 NA
ATOM      5  N   UNL     1      33.919 -16.184 -25.878  0.00  0.00    -0.245 NA
ATOM      6  C   UNL     1      33.031 -11.366 -24.332  0.00  0.00    +0.113 C 
ATOM      7  C   UNL     1      32.516 -12.782 -22.311  0.00  0.00    +0.113 C 
ATOM      8  C   UNL     1      33.283 -10.291 -23.277  0.00  0.00    +0.114 C 
ATOM      9  C   UNL     1      31.634 -11.592 -21.940  0.00  0.00    +0.114 C 
ATOM     10  C   UNL     1      33.262 -13.840 -24.435  0.00  0.00    +0.152 C 
ATOM     11  C   UNL     1      33.779 -14.959 -23.816  0.00  0.00    +0.258 C 
ATOM     12  C   UNL     1      34.096 -16.102 -24.536  0.00  0.00    +0.106 C 
ATOM     13  C   UNL     1      34.595 -17.042 -23.598  0.00  0.00    +0.051 C 
ATOM     14  C   UNL     1      34.545 -16.399 -22.361  0.00  0.00    +0.141 C 
ATOM     15  C   UNL     1      33.410 -15.046 -26.402  0.00  0.00    +0.251 C 
ATOM     16  C   UNL     1      35.081 -18.359 -23.651  0.00  0.00    +0.004 C 
ATOM     17  C   UNL     1      34.951 -16.985 -21.163  0.00  0.00    +0.037 C 
ATOM     18  C   UNL     1      35.496 -18.973 -22.461  0.00  0.00    +0.000 C 
ATOM     19  C   UNL     1      35.431 -18.296 -21.240  0.00  0.00    +0.003 C 
ENDROOT
BRANCH   3  21
ATOM     20  S   UNL     1      32.000  -9.195 -19.844  0.00  0.00    -0.019 S 
ATOM     21  C   UNL     1      31.974  -9.202 -21.517  0.00  0.00    +0.135 C 
BRANCH  21  22
ATOM     22  N   UNL     1      31.639  -8.077 -22.226  0.00  0.00    -0.312 N 
ATOM     23  H   UNL     1      31.034  -8.196 -22.994  0.00  0.00    +0.149 HD
BRANCH  22  24
ATOM     24  C   UNL     1      32.092  -6.728 -21.949  0.00  0.00    +0.116 C 
BRANCH  24  27
ATOM     25  O   UNL     1      30.424  -2.795 -24.425  0.00  0.00    -0.435 OA
ATOM     26  O   UNL     1      31.680  -3.361 -26.401  0.00  0.00    -0.435 OA
ATOM     27  C   UNL     1      32.004  -5.846 -23.161  0.00  0.00    +0.001 C 
ATOM     28  C   UNL     1      31.198  -4.713 -23.128  0.00  0.00    +0.038 C 
ATOM     29  C   UNL     1      32.739  -6.182 -24.307  0.00  0.00    +0.001 C 
ATOM     30  C   UNL     1      31.151  -3.934 -24.265  0.00  0.00    +0.176 C 
ATOM     31  C   UNL     1      31.869  -4.257 -25.394  0.00  0.00    +0.176 C 
ATOM     32  C   UNL     1      32.674  -5.377 -25.447  0.00  0.00    +0.040 C 
ATOM     33  C   UNL     1      30.765  -2.437 -25.780  0.00  0.00    +0.429 C 
ENDBRANCH  24  27
ENDBRANCH  22  24
ENDBRANCH  21  22
ENDBRANCH   3  21
TORSDOF 4
ENDMDL
MODEL 3
REMARK VINA RESULT:     -12.0      1.200      1.699
REMARK  Name = 11282283
REMARK  4 active torsions:
REMARK  status: ('A' for Active; 'I' for Inactive)
REMARK    1  A    between atoms: N_3  and  C_21
REMARK    2  A    between atoms: C_21  and  N_22
REMARK    3  A    between atoms: N_22  and  C_24
REMARK    4  A    between atoms: C_24  and  C_27
REMARK                            x       y       z     vdW  Elec       q    Type
REMARK                         _______ _______ _______ _____ _____    ______ ____
ROOT
ATOM      1  O   UNL     1      32.896 -10.294 -22.619  0.00  0.00    -0.466 OA
ATOM      2  N   UNL     1      32.697 -12.998 -21.477  0.00  0.00    -0.290 N 
ATOM      3  N   UNL     1      33.751 -15.354 -22.751  0.00  0.00    -0.288 N 
ATOM      4  N   UNL     1      31.549 -11.938 -19.669  0.00  0.00    -0.230 NA
ATOM      5  N   UNL     1      31.156  -9.528 -19.629  0.00  0.00    -0.245 NA
ATOM      6  C   UNL     1      33.164 -14.138 -20.680  0.00  0.00    +0.113 C 
ATOM      7  C   UNL     1      32.780 -13.087 -22.939  0.00  0.00    +0.113 C 
ATOM      8  C   UNL     1      34.223 -14.932 -21.442  0.00  0.00    +0.114 C 
ATOM      9  C   UNL     1      32.729 -14.544 -23.395  0.00  0.00    +0.114 C 
ATOM     10  C   UNL     1      32.183 -11.859 -20.860  0.00  0.00    +0.152 C 
ATOM     11  C   UNL     1      32.306 -10.613 -21.438  0.00  0.00    +0.258 C 
ATOM     12  C   UNL     1      31.796  -9.478 -20.823  0.00  0.00    +0.106 C 
ATOM     13  C   UNL     1      32.094  -8.389 -21.682  0.00  0.00    +0.051 C 
ATOM     14  C   UNL     1      32.769  -8.943 -22.769  0.00  0.00    +0.141 C 
ATOM     15  C   UNL     1      31.081 -10.784 -19.135  0.00  0.00    +0.251 C 
ATOM     16  C   UNL     1      31.870  -7.001 -21.666  0.00  0.00    +0.004 C 
ATOM     17  C   UNL     1      33.242  -8.202 -23.851  0.00  0.00    +0.037 C 
ATOM     18  C   UNL     1      32.335  -6.232 -22.742  0.00  0.00    +0.000 C 
ATOM     19  C   UNL     1      33.008  -6.824 -23.814  0.00  0.00    +0.003 C 
ENDROOT
BRANCH   3  21
ATOM     20  S   UNL     1      34.633 -16.472 -24.979  0.00  0.00    -0.019 S 
ATOM     21  C   UNL     1      34.247 -16.466 -23.351  0.00  0.00    +0.135 C 
BRANCH  21  22
ATOM     22  N   UNL     1      34.424 -17.584 -22.575  0.00  0.00    -0.312 N 
ATOM     23  H   UNL     1      33.612 -18.020 -22.229  0.00  0.00    +0.149 HD
BRANCH  22  24
ATOM     24  C   UNL     1      35.695 -18.182 -22.219  0.00  0.00    +0.116 C 
BRANCH  24  27
ATOM     25  O   UNL     1      33.010 -21.447 -19.668  0.00  0.00    -0.435 OA
ATOM     26  O   UNL     1      34.952 -22.367 -18.578  0.00  0.00    -0.435 OA
ATOM     27  C   UNL     1      35.532 -19.306 -21.237  0.00  0.00    +0.001 C 
ATOM     28  C   UNL     1      34.260 -19.801 -20.969  0.00  0.00    +0.038 C 
ATOM     29  C   UNL     1      36.666 -19.836 -20.607  0.00  0.00    +0.001 C 
ATOM     30  C   UNL     1      34.160 -20.834 -20.059  0.00  0.00    +0.176 C 
ATOM     31  C   UNL     1      35.269 -21.360 -19.437  0.00  0.00    +0.176 C 
ATOM     32  C   UNL     1      36.539 -20.881 -19.690  0.00  0.00    +0.040 C 
ATOM     33  C   UNL     1      33.519 -22.417 -18.730  0.00  0.00    +0.429 C 
ENDBRANCH  24  27
ENDBRANCH  22  24
ENDBRANCH  21  22
ENDBRANCH   3  21
TORSDOF 4
ENDMDL
MODEL 4
REMARK VINA RESULT:     -11.6      2.089      3.309
REMARK  Name = 11282283
REMARK  4 active torsions:
REMARK  status: ('A' for Active; 'I' for Inactive)
REMARK    1  A    between atoms: N_3  and  C_21
REMARK    2  A    between atoms: C_21  and  N_22
REMARK    3  A    between atoms: N_22  and  C_24
REMARK    4  A    between atoms: C_24  and  C_27
REMARK                            x       y       z     vdW  Elec       q    Type
REMARK                         _______ _______ _______ _____ _____    ______ ____
ROOT
ATOM      1  O   UNL     1      32.746 -13.051 -21.966  0.00  0.00    -0.466 OA
ATOM      2  N   UNL     1      34.010 -14.644 -24.092  0.00  0.00    -0.290 N 
ATOM      3  N   UNL     1      34.509 -17.472 -23.891  0.00  0.00    -0.288 N 
ATOM      4  N   UNL     1      34.118 -12.584 -25.300  0.00  0.00    -0.230 NA
ATOM      5  N   UNL     1      33.271 -10.495 -24.361  0.00  0.00    -0.245 NA
ATOM      6  C   UNL     1      34.013 -15.493 -25.288  0.00  0.00    +0.113 C 
ATOM      7  C   UNL     1      34.268 -15.270 -22.791  0.00  0.00    +0.113 C 
ATOM      8  C   UNL     1      33.646 -16.932 -24.930  0.00  0.00    +0.114 C 
ATOM      9  C   UNL     1      35.110 -16.533 -22.956  0.00  0.00    +0.114 C 
ATOM     10  C   UNL     1      33.772 -13.274 -24.190  0.00  0.00    +0.152 C 
ATOM     11  C   UNL     1      33.174 -12.575 -23.163  0.00  0.00    +0.258 C 
ATOM     12  C   UNL     1      32.935 -11.211 -23.261  0.00  0.00    +0.106 C 
ATOM     13  C   UNL     1      32.318 -10.824 -22.043  0.00  0.00    +0.051 C 
ATOM     14  C   UNL     1      32.225 -11.990 -21.283  0.00  0.00    +0.141 C 
ATOM     15  C   UNL     1      33.850 -11.256 -25.317  0.00  0.00    +0.251 C 
ATOM     16  C   UNL     1      31.829  -9.625 -21.496  0.00  0.00    +0.004 C 
ATOM     17  C   UNL     1      31.673 -12.043 -20.004  0.00  0.00    +0.037 C 
ATOM     18  C   UNL     1      31.269  -9.650 -20.212  0.00  0.00    +0.000 C 
ATOM     19  C   UNL     1      31.193 -10.838 -19.482  0.00  0.00    +0.003 C 
ENDROOT
BRANCH   3  21
ATOM     20  S   UNL     1      34.892 -19.755 -25.167  0.00  0.00    -0.019 S 
ATOM     21  C   UNL     1      34.745 -18.805 -23.798  0.00  0.00    +0.135 C 
BRANCH  21  22
ATOM     22  N   UNL     1      34.862 -19.345 -22.542  0.00  0.00    -0.312 N 
ATOM     23  H   UNL     1      35.736 -19.730 -22.301  0.00  0.00    +0.149 HD
BRANCH  22  24
ATOM     24  C   UNL     1      33.819 -19.401 -21.537  0.00  0.00    +0.116 C 
BRANCH  24  27
ATOM     25  O   UNL     1      32.515 -22.649 -18.055  0.00  0.00    -0.435 OA
ATOM     26  O   UNL     1      34.805 -23.195 -17.543  0.00  0.00    -0.435 OA
ATOM     27  C   UNL     1      34.119 -20.415 -20.471  0.00  0.00    +0.001 C 
ATOM     28  C   UNL     1      33.069 -21.026 -19.793  0.00  0.00    +0.038 C 
ATOM     29  C   UNL     1      35.454 -20.727 -20.179  0.00  0.00    +0.001 C 
ATOM     30  C   UNL     1      33.395 -21.952 -18.822  0.00  0.00    +0.176 C 
ATOM     31  C   UNL     1      34.704 -22.264 -18.530  0.00  0.00    +0.176 C 
ATOM     32  C   UNL     1      35.758 -21.667 -19.192  0.00  0.00    +0.040 C 
ATOM     33  C   UNL     1      33.414 -23.436 -17.248  0.00  0.00    +0.429 C 
ENDBRANCH  24  27
ENDBRANCH  22  24
ENDBRANCH  21  22
ENDBRANCH   3  21
TORSDOF 4
ENDMDL
MODEL 5
REMARK VINA RESULT:     -11.5      3.024      4.987
REMARK  Name = 11282283
REMARK  4 active torsions:
REMARK  status: ('A' for Active; 'I' for Inactive)
REMARK    1  A    between atoms: N_3  and  C_21
REMARK    2  A    between atoms: C_21  and  N_22
REMARK    3  A    between atoms: N_22  and  C_24
REMARK    4  A    between atoms: C_24  and  C_27
REMARK                            x       y       z     vdW  Elec       q    Type
REMARK                         _______ _______ _______ _____ _____    ______ ____
ROOT
ATOM      1  O   UNL     1      33.060 -14.741 -21.506  0.00  0.00    -0.466 OA
ATOM      2  N   UNL     1      34.276 -17.199 -22.570  0.00  0.00    -0.290 N 
ATOM      3  N   UNL     1      35.004 -19.458 -20.941  0.00  0.00    -0.288 N 
ATOM      4  N   UNL     1      34.134 -16.116 -24.695  0.00  0.00    -0.230 NA
ATOM      5  N   UNL     1      33.203 -13.871 -24.937  0.00  0.00    -0.245 NA
ATOM      6  C   UNL     1      34.253 -18.559 -23.119  0.00  0.00    +0.113 C 
ATOM      7  C   UNL     1      34.679 -17.017 -21.171  0.00  0.00    +0.113 C 
ATOM      8  C   UNL     1      34.026 -19.585 -22.010  0.00  0.00    +0.114 C 
ATOM      9  C   UNL     1      35.601 -18.149 -20.722  0.00  0.00    +0.114 C 
ATOM     10  C   UNL     1      33.927 -16.105 -23.360  0.00  0.00    +0.152 C 
ATOM     11  C   UNL     1      33.357 -14.976 -22.810  0.00  0.00    +0.258 C 
ATOM     12  C   UNL     1      33.008 -13.887 -23.596  0.00  0.00    +0.106 C 
ATOM     13  C   UNL     1      32.458 -12.918 -22.717  0.00  0.00    +0.051 C 
ATOM     14  C   UNL     1      32.512 -13.491 -21.447  0.00  0.00    +0.141 C 
ATOM     15  C   UNL     1      33.765 -15.014 -25.392  0.00  0.00    +0.251 C 
ATOM     16  C   UNL     1      31.922 -11.626 -22.849  0.00  0.00    +0.004 C 
ATOM     17  C   UNL     1      32.065 -12.858 -20.288  0.00  0.00    +0.037 C 
ATOM     18  C   UNL     1      31.464 -10.966 -21.700  0.00  0.00    +0.000 C 
ATOM     19  C   UNL     1      31.536 -11.574 -20.444  0.00  0.00    +0.003 C 
ENDROOT
BRANCH   3  21
ATOM     20  S   UNL     1      36.952 -20.940 -19.940  0.00  0.00    -0.019 S 
ATOM     21  C   UNL     1      35.348 -20.524 -20.174  0.00  0.00    +0.135 C 
BRANCH  21  22
ATOM     22  N   UNL     1      34.335 -21.247 -19.597  0.00  0.00    -0.312 N 
ATOM     23  H   UNL     1      33.484 -20.778 -19.442  0.00  0.00    +0.149 HD
BRANCH  22  24
ATOM     24  C   UNL     1      34.402 -22.638 -19.195  0.00  0.00    +0.116 C 
BRANCH  24  27
ATOM     25  O   UNL     1      30.742 -23.063 -15.909  0.00  0.00    -0.435 OA
ATOM     26  O   UNL     1      32.270 -23.412 -14.078  0.00  0.00    -0.435 OA
ATOM     27  C   UNL     1      33.864 -22.849 -17.810  0.00  0.00    +0.001 C 
ATOM     28  C   UNL     1      32.488 -22.841 -17.600  0.00  0.00    +0.038 C 
ATOM     29  C   UNL     1      34.759 -23.052 -16.750  0.00  0.00    +0.001 C 
ATOM     30  C   UNL     1      32.042 -23.040 -16.310  0.00  0.00    +0.176 C 
ATOM     31  C   UNL     1      32.915 -23.239 -15.264  0.00  0.00    +0.176 C 
ATOM     32  C   UNL     1      34.282 -23.250 -15.453  0.00  0.00    +0.040 C 
ATOM     33  C   UNL     1      30.894 -23.301 -14.494  0.00  0.00    +0.429 C 
ENDBRANCH  24  27
ENDBRANCH  22  24
ENDBRANCH  21  22
ENDBRANCH   3  21
TORSDOF 4
ENDMDL
MODEL 6
REMARK VINA RESULT:     -11.4      1.906      2.992
REMARK  Name = 11282283
REMARK  4 active torsions:
REMARK  status: ('A' for Active; 'I' for Inactive)
REMARK    1  A    between atoms: N_3  and  C_21
REMARK    2  A    between atoms: C_21  and  N_22
REMARK    3  A    between atoms: N_22  and  C_24
REMARK    4  A    between atoms: C_24  and  C_27
REMARK                            x       y       z     vdW  Elec       q    Type
REMARK                         _______ _______ _______ _____ _____    ______ ____
ROOT
ATOM      1  O   UNL     1      32.736 -12.777 -21.827  0.00  0.00    -0.466 OA
ATOM      2  N   UNL     1      33.980 -14.184 -24.091  0.00  0.00    -0.290 N 
ATOM      3  N   UNL     1      34.629 -16.989 -24.070  0.00  0.00    -0.288 N 
ATOM      4  N   UNL     1      33.930 -12.060 -25.185  0.00  0.00    -0.230 NA
ATOM      5  N   UNL     1      33.022 -10.072 -24.096  0.00  0.00    -0.245 NA
ATOM      6  C   UNL     1      33.971 -14.967 -25.332  0.00  0.00    +0.113 C 
ATOM      7  C   UNL     1      34.328 -14.865 -22.839  0.00  0.00    +0.113 C 
ATOM      8  C   UNL     1      33.694 -16.440 -25.040  0.00  0.00    +0.114 C 
ATOM      9  C   UNL     1      35.224 -16.072 -23.110  0.00  0.00    +0.114 C 
ATOM     10  C   UNL     1      33.670 -12.826 -24.102  0.00  0.00    +0.152 C 
ATOM     11  C   UNL     1      33.084 -12.215 -23.012  0.00  0.00    +0.258 C 
ATOM     12  C   UNL     1      32.773 -10.863 -23.023  0.00  0.00    +0.106 C 
ATOM     13  C   UNL     1      32.194 -10.574 -21.761  0.00  0.00    +0.051 C 
ATOM     14  C   UNL     1      32.194 -11.783 -21.064  0.00  0.00    +0.141 C 
ATOM     15  C   UNL     1      33.595 -10.749 -25.116  0.00  0.00    +0.251 C 
ATOM     16  C   UNL     1      31.671  -9.434 -21.128  0.00  0.00    +0.004 C 
ATOM     17  C   UNL     1      31.703 -11.933 -19.768  0.00  0.00    +0.037 C 
ATOM     18  C   UNL     1      31.171  -9.557 -19.824  0.00  0.00    +0.000 C 
ATOM     19  C   UNL     1      31.188 -10.785 -19.158  0.00  0.00    +0.003 C 
ENDROOT
BRANCH   3  21
ATOM     20  S   UNL     1      34.181 -19.381 -25.103  0.00  0.00    -0.019 S 
ATOM     21  C   UNL     1      34.936 -18.311 -24.061  0.00  0.00    +0.135 C 
BRANCH  21  22
ATOM     22  N   UNL     1      35.888 -18.739 -23.171  0.00  0.00    -0.312 N 
ATOM     23  H   UNL     1      36.639 -19.260 -23.536  0.00  0.00    +0.149 HD
BRANCH  22  24
ATOM     24  C   UNL     1      35.891 -18.493 -21.742  0.00  0.00    +0.116 C 
BRANCH  24  27
ATOM     25  O   UNL     1      35.144 -22.461 -18.900  0.00  0.00    -0.435 OA
ATOM     26  O   UNL     1      32.750 -22.188 -18.948  0.00  0.00    -0.435 OA
ATOM     27  C   UNL     1      35.019 -19.466 -21.003  0.00  0.00    +0.001 C 
ATOM     28  C   UNL     1      35.605 -20.514 -20.300  0.00  0.00    +0.038 C 
ATOM     29  C   UNL     1      33.627 -19.301 -21.035  0.00  0.00    +0.001 C 
ATOM     30  C   UNL     1      34.762 -21.382 -19.636  0.00  0.00    +0.176 C 
ATOM     31  C   UNL     1      33.395 -21.226 -19.663  0.00  0.00    +0.176 C 
ATOM     32  C   UNL     1      32.796 -20.193 -20.356  0.00  0.00    +0.040 C 
ATOM     33  C   UNL     1      33.865 -22.966 -18.466  0.00  0.00    +0.429 C 
ENDBRANCH  24  27
ENDBRANCH  22  24
ENDBRANCH  21  22
ENDBRANCH   3  21
TORSDOF 4
ENDMDL
MODEL 7
REMARK VINA RESULT:     -10.8      4.754     11.970
REMARK  Name = 11282283
REMARK  4 active torsions:
REMARK  status: ('A' for Active; 'I' for Inactive)
REMARK    1  A    between atoms: N_3  and  C_21
REMARK    2  A    between atoms: C_21  and  N_22
REMARK    3  A    between atoms: N_22  and  C_24
REMARK    4  A    between atoms: C_24  and  C_27
REMARK                            x       y       z     vdW  Elec       q    Type
REMARK                         _______ _______ _______ _____ _____    ______ ____
ROOT
ATOM      1  O   UNL     1      32.972 -22.831 -16.601  0.00  0.00    -0.466 OA
ATOM      2  N   UNL     1      35.591 -22.238 -17.805  0.00  0.00    -0.290 N 
ATOM      3  N   UNL     1      35.946 -20.558 -20.115  0.00  0.00    -0.288 N 
ATOM      4  N   UNL     1      36.480 -23.633 -16.080  0.00  0.00    -0.230 NA
ATOM      5  N   UNL     1      35.043 -24.702 -14.420  0.00  0.00    -0.245 NA
ATOM      6  C   UNL     1      36.820 -21.460 -17.985  0.00  0.00    +0.113 C 
ATOM      7  C   UNL     1      34.545 -22.140 -18.829  0.00  0.00    +0.113 C 
ATOM      8  C   UNL     1      36.555 -20.220 -18.838  0.00  0.00    +0.114 C 
ATOM      9  C   UNL     1      35.148 -21.773 -20.184  0.00  0.00    +0.114 C 
ATOM     10  C   UNL     1      35.420 -23.054 -16.688  0.00  0.00    +0.152 C 
ATOM     11  C   UNL     1      34.169 -23.299 -16.162  0.00  0.00    +0.258 C 
ATOM     12  C   UNL     1      33.999 -24.110 -15.049  0.00  0.00    +0.106 C 
ATOM     13  C   UNL     1      32.605 -24.142 -14.786  0.00  0.00    +0.051 C 
ATOM     14  C   UNL     1      32.020 -23.341 -15.766  0.00  0.00    +0.141 C 
ATOM     15  C   UNL     1      36.229 -24.411 -14.999  0.00  0.00    +0.251 C 
ATOM     16  C   UNL     1      31.772 -24.755 -13.834  0.00  0.00    +0.004 C 
ATOM     17  C   UNL     1      30.649 -23.107 -15.863  0.00  0.00    +0.037 C 
ATOM     18  C   UNL     1      30.390 -24.536 -13.908  0.00  0.00    +0.000 C 
ATOM     19  C   UNL     1      29.841 -23.727 -14.906  0.00  0.00    +0.003 C 
ENDROOT
BRANCH   3  21
ATOM     20  S   UNL     1      37.585 -19.032 -21.520  0.00  0.00    -0.019 S 
ATOM     21  C   UNL     1      36.115 -19.766 -21.204  0.00  0.00    +0.135 C 
BRANCH  21  22
ATOM     22  N   UNL     1      35.039 -19.589 -22.037  0.00  0.00    -0.312 N 
ATOM     23  H   UNL     1      34.144 -19.663 -21.633  0.00  0.00    +0.149 HD
BRANCH  22  24
ATOM     24  C   UNL     1      35.098 -19.302 -23.457  0.00  0.00    +0.116 C 
BRANCH  24  27
ATOM     25  O   UNL     1      33.488 -15.773 -26.511  0.00  0.00    -0.435 OA
ATOM     26  O   UNL     1      33.370 -14.137 -24.746  0.00  0.00    -0.435 OA
ATOM     27  C   UNL     1      34.639 -17.907 -23.768  0.00  0.00    +0.001 C 
ATOM     28  C   UNL     1      34.286 -17.577 -25.072  0.00  0.00    +0.038 C 
ATOM     29  C   UNL     1      34.573 -16.961 -22.735  0.00  0.00    +0.001 C 
ATOM     30  C   UNL     1      33.869 -16.283 -25.309  0.00  0.00    +0.176 C 
ATOM     31  C   UNL     1      33.802 -15.349 -24.300  0.00  0.00    +0.176 C 
ATOM     32  C   UNL     1      34.148 -15.658 -23.000  0.00  0.00    +0.040 C 
ATOM     33  C   UNL     1      33.172 -14.414 -26.146  0.00  0.00    +0.429 C 
ENDBRANCH  24  27
ENDBRANCH  22  24
ENDBRANCH  21  22
ENDBRANCH   3  21
TORSDOF 4
ENDMDL
MODEL 8
REMARK VINA RESULT:     -10.4      4.478      7.553
REMARK  Name = 11282283
REMARK  4 active torsions:
REMARK  status: ('A' for Active; 'I' for Inactive)
REMARK    1  A    between atoms: N_3  and  C_21
REMARK    2  A    between atoms: C_21  and  N_22
REMARK    3  A    between atoms: N_22  and  C_24
REMARK    4  A    between atoms: C_24  and  C_27
REMARK                            x       y       z     vdW  Elec       q    Type
REMARK                         _______ _______ _______ _____ _____    ______ ____
ROOT
ATOM      1  O   UNL     1      32.425  -5.052 -25.521  0.00  0.00    -0.466 OA
ATOM      2  N   UNL     1      31.465  -5.795 -22.841  0.00  0.00    -0.290 N 
ATOM      3  N   UNL     1      31.767  -8.423 -21.705  0.00  0.00    -0.288 N 
ATOM      4  N   UNL     1      30.704  -3.534 -22.701  0.00  0.00    -0.230 NA
ATOM      5  N   UNL     1      31.031  -1.950 -24.531  0.00  0.00    -0.245 NA
ATOM      6  C   UNL     1      31.592  -5.976 -21.391  0.00  0.00    +0.113 C 
ATOM      7  C   UNL     1      31.496  -6.985 -23.699  0.00  0.00    +0.113 C 
ATOM      8  C   UNL     1      32.362  -7.256 -21.072  0.00  0.00    +0.114 C 
ATOM      9  C   UNL     1      31.015  -8.216 -22.934  0.00  0.00    +0.114 C 
ATOM     10  C   UNL     1      31.315  -4.523 -23.390  0.00  0.00    +0.152 C 
ATOM     11  C   UNL     1      31.786  -4.227 -24.653  0.00  0.00    +0.258 C 
ATOM     12  C   UNL     1      31.639  -2.960 -25.199  0.00  0.00    +0.106 C 
ATOM     13  C   UNL     1      32.227  -3.009 -26.489  0.00  0.00    +0.051 C 
ATOM     14  C   UNL     1      32.695  -4.315 -26.638  0.00  0.00    +0.141 C 
ATOM     15  C   UNL     1      30.602  -2.325 -23.305  0.00  0.00    +0.251 C 
ATOM     16  C   UNL     1      32.418  -2.103 -27.546  0.00  0.00    +0.004 C 
ATOM     17  C   UNL     1      33.346  -4.783 -27.778  0.00  0.00    +0.037 C 
ATOM     18  C   UNL     1      33.070  -2.547 -28.705  0.00  0.00    +0.000 C 
ATOM     19  C   UNL     1      33.524  -3.864 -28.816  0.00  0.00    +0.003 C 
ENDROOT
BRANCH   3  21
ATOM     20  S   UNL     1      31.868  -9.896 -19.512  0.00  0.00    -0.019 S 
ATOM     21  C   UNL     1      31.909  -9.661 -21.169  0.00  0.00    +0.135 C 
BRANCH  21  22
ATOM     22  N   UNL     1      32.083 -10.714 -22.031  0.00  0.00    -0.312 N 
ATOM     23  H   UNL     1      32.770 -10.610 -22.729  0.00  0.00    +0.149 HD
BRANCH  22  24
ATOM     24  C   UNL     1      31.352 -11.965 -22.009  0.00  0.00    +0.116 C 
BRANCH  24  27
ATOM     25  O   UNL     1      34.188 -15.352 -24.213  0.00  0.00    -0.435 OA
ATOM     26  O   UNL     1      34.783 -16.386 -22.119  0.00  0.00    -0.435 OA
ATOM     27  C   UNL     1      32.270 -13.153 -22.002  0.00  0.00    +0.001 C 
ATOM     28  C   UNL     1      32.767 -13.642 -23.206  0.00  0.00    +0.038 C 
ATOM     29  C   UNL     1      32.612 -13.749 -20.780  0.00  0.00    +0.001 C 
ATOM     30  C   UNL     1      33.608 -14.734 -23.149  0.00  0.00    +0.176 C 
ATOM     31  C   UNL     1      33.947 -15.324 -21.953  0.00  0.00    +0.176 C 
ATOM     32  C   UNL     1      33.464 -14.854 -20.748  0.00  0.00    +0.040 C 
ATOM     33  C   UNL     1      34.932 -16.397 -23.553  0.00  0.00    +0.429 C 
ENDBRANCH  24  27
ENDBRANCH  22  24
ENDBRANCH  21  22
ENDBRANCH   3  21
TORSDOF 4
ENDMDL
MODEL 9
REMARK VINA RESULT:     -10.3      4.368      6.826
REMARK  Name = 11282283
REMARK  4 active torsions:
REMARK  status: ('A' for Active; 'I' for Inactive)
REMARK    1  A    between atoms: N_3  and  C_21
REMARK    2  A    between atoms: C_21  and  N_22
REMARK    3  A    between atoms: N_22  and  C_24
REMARK    4  A    between atoms: C_24  and  C_27
REMARK                            x       y       z     vdW  Elec       q    Type
REMARK                         _______ _______ _______ _____ _____    ______ ____
ROOT
ATOM      1  O   UNL     1      32.426  -5.736 -25.037  0.00  0.00    -0.466 OA
ATOM      2  N   UNL     1      31.382  -6.945 -22.566  0.00  0.00    -0.290 N 
ATOM      3  N   UNL     1      31.694  -9.725 -21.889  0.00  0.00    -0.288 N 
ATOM      4  N   UNL     1      30.572  -4.752 -22.069  0.00  0.00    -0.230 NA
ATOM      5  N   UNL     1      30.935  -2.871 -23.583  0.00  0.00    -0.245 NA
ATOM      6  C   UNL     1      31.458  -7.372 -21.165  0.00  0.00    +0.113 C 
ATOM      7  C   UNL     1      31.468  -7.967 -23.614  0.00  0.00    +0.113 C 
ATOM      8  C   UNL     1      32.241  -8.678 -21.041  0.00  0.00    +0.114 C 
ATOM      9  C   UNL     1      30.984  -9.318 -23.093  0.00  0.00    +0.114 C 
ATOM     10  C   UNL     1      31.228  -5.599 -22.893  0.00  0.00    +0.152 C 
ATOM     11  C   UNL     1      31.739  -5.082 -24.066  0.00  0.00    +0.258 C 
ATOM     12  C   UNL     1      31.587  -3.742 -24.391  0.00  0.00    +0.106 C 
ATOM     13  C   UNL     1      32.224  -3.559 -25.646  0.00  0.00    +0.051 C 
ATOM     14  C   UNL     1      32.723  -4.813 -25.998  0.00  0.00    +0.141 C 
ATOM     15  C   UNL     1      30.468  -3.459 -22.459  0.00  0.00    +0.251 C 
ATOM     16  C   UNL     1      32.436  -2.482 -26.522  0.00  0.00    +0.004 C 
ATOM     17  C   UNL     1      33.425  -5.068 -27.175  0.00  0.00    +0.037 C 
ATOM     18  C   UNL     1      33.139  -2.710 -27.713  0.00  0.00    +0.000 C 
ATOM     19  C   UNL     1      33.624  -3.981 -28.031  0.00  0.00    +0.003 C 
ENDROOT
BRANCH   3  21
ATOM     20  S   UNL     1      31.809 -11.545 -19.975  0.00  0.00    -0.019 S 
ATOM     21  C   UNL     1      31.839 -11.036 -21.569  0.00  0.00    +0.135 C 
BRANCH  21  22
ATOM     22  N   UNL     1      32.010 -11.928 -22.597  0.00  0.00    -0.312 N 
ATOM     23  H   UNL     1      31.246 -12.507 -22.817  0.00  0.00    +0.149 HD
BRANCH  22  24
ATOM     24  C   UNL     1      33.213 -12.096 -23.389  0.00  0.00    +0.116 C 
BRANCH  24  27
ATOM     25  O   UNL     1      33.781 -16.392 -25.754  0.00  0.00    -0.435 OA
ATOM     26  O   UNL     1      34.747 -17.461 -23.823  0.00  0.00    -0.435 OA
ATOM     27  C   UNL     1      33.636 -13.534 -23.471  0.00  0.00    +0.001 C 
ATOM     28  C   UNL     1      33.464 -14.232 -24.663  0.00  0.00    +0.038 C 
ATOM     29  C   UNL     1      34.197 -14.148 -22.343  0.00  0.00    +0.001 C 
ATOM     30  C   UNL     1      33.868 -15.551 -24.689  0.00  0.00    +0.176 C 
ATOM     31  C   UNL     1      34.420 -16.161 -23.586  0.00  0.00    +0.176 C 
ATOM     32  C   UNL     1      34.598 -15.485 -22.395  0.00  0.00    +0.040 C 
ATOM     33  C   UNL     1      34.340 -17.600 -25.199  0.00  0.00    +0.429 C 
ENDBRANCH  24  27
ENDBRANCH  22  24
ENDBRANCH  21  22
ENDBRANCH   3  21
TORSDOF 4
ENDMDL
