MODEL 1
REMARK VINA RESULT:      -8.0      0.000      0.000
REMARK  Name = 3000323
REMARK  2 active torsions:
REMARK  status: ('A' for Active; 'I' for Inactive)
REMARK    1  A    between atoms: N_3  and  C_19
REMARK    2  A    between atoms: C_19  and  C_20
REMARK                            x       y       z     vdW  Elec       q    Type
REMARK                         _______ _______ _______ _____ _____    ______ ____
ROOT
ATOM      1 CL   UNL     1      33.451 -22.189 -19.532  0.00  0.00    -0.083 Cl
ATOM      2  S   UNL     1      37.541 -24.107 -13.027  0.00  0.00    -0.013 S 
ATOM      3  N   UNL     1      32.479 -23.815 -15.736  0.00  0.00    +0.395 N 
ATOM      4  N   UNL     1      35.607 -23.885 -15.026  0.00  0.00    -0.310 N 
ATOM      5  N   UNL     1      37.497 -22.652 -15.329  0.00  0.00    -0.333 N 
ATOM      6  C   UNL     1      33.180 -24.048 -14.456  0.00  0.00    -0.034 C 
ATOM      7  C   UNL     1      34.550 -24.759 -14.534  0.00  0.00    +0.087 C 
ATOM      8  C   UNL     1      33.235 -24.015 -16.978  0.00  0.00    -0.047 C 
ATOM      9  C   UNL     1      35.496 -23.180 -16.238  0.00  0.00    +0.072 A 
ATOM     10  C   UNL     1      34.459 -23.162 -17.152  0.00  0.00    -0.015 C 
ATOM     11  C   UNL     1      36.651 -22.422 -16.413  0.00  0.00    +0.074 A 
ATOM     12  C   UNL     1      32.241 -24.878 -13.569  0.00  0.00    -0.021 C 
ATOM     13  C   UNL     1      36.866 -23.566 -14.447  0.00  0.00    +0.159 A 
ATOM     14  C   UNL     1      34.636 -22.338 -18.275  0.00  0.00    +0.053 C 
ATOM     15  C   UNL     1      36.840 -21.607 -17.505  0.00  0.00    +0.019 C 
ATOM     16  C   UNL     1      35.809 -21.571 -18.447  0.00  0.00    +0.013 C 
ATOM     17  H   UNL     1      31.818 -24.591 -15.763  0.00  0.00    -0.079 HD
ATOM     18  H   UNL     1      38.385 -22.248 -15.197  0.00  0.00    +0.168 HD
ENDROOT
BRANCH   3  19
ATOM     19  C   UNL     1      31.743 -22.551 -15.737  0.00  0.00    -0.050 C 
BRANCH  19  20
ATOM     20  C   UNL     1      30.517 -22.630 -16.598  0.00  0.00    -0.058 C 
ATOM     21  C   UNL     1      29.351 -23.250 -16.336  0.00  0.00    -0.050 C 
ATOM     22  C   UNL     1      28.157 -23.291 -17.248  0.00  0.00    +0.026 C 
ATOM     23  C   UNL     1      29.158 -23.987 -15.036  0.00  0.00    +0.026 C 
ENDBRANCH  19  20
ENDBRANCH   3  19
TORSDOF 2
ENDMDL
MODEL 2
REMARK VINA RESULT:      -7.7      2.635      5.996
REMARK  Name = 3000323
REMARK  2 active torsions:
REMARK  status: ('A' for Active; 'I' for Inactive)
REMARK    1  A    between atoms: N_3  and  C_19
REMARK    2  A    between atoms: C_19  and  C_20
REMARK                            x       y       z     vdW  Elec       q    Type
REMARK                         _______ _______ _______ _____ _____    ______ ____
ROOT
ATOM      1 CL   UNL     1      36.916 -21.952 -17.882  0.00  0.00    -0.083 Cl
ATOM      2  S   UNL     1      30.862 -24.559 -13.493  0.00  0.00    -0.013 S 
ATOM      3  N   UNL     1      36.543 -24.107 -14.247  0.00  0.00    +0.395 N 
ATOM      4  N   UNL     1      33.362 -23.727 -14.412  0.00  0.00    -0.310 N 
ATOM      5  N   UNL     1      31.680 -23.709 -15.947  0.00  0.00    -0.333 N 
ATOM      6  C   UNL     1      35.448 -24.735 -13.478  0.00  0.00    -0.034 C 
ATOM      7  C   UNL     1      34.192 -23.870 -13.224  0.00  0.00    +0.087 C 
ATOM      8  C   UNL     1      36.259 -22.844 -14.936  0.00  0.00    -0.047 C 
ATOM      9  C   UNL     1      33.876 -23.268 -15.639  0.00  0.00    +0.072 A 
ATOM     10  C   UNL     1      35.162 -22.880 -15.962  0.00  0.00    -0.015 C 
ATOM     11  C   UNL     1      32.844 -23.267 -16.574  0.00  0.00    +0.074 A 
ATOM     12  C   UNL     1      36.032 -25.168 -12.126  0.00  0.00    -0.021 C 
ATOM     13  C   UNL     1      31.978 -24.003 -14.592  0.00  0.00    +0.159 A 
ATOM     14  C   UNL     1      35.374 -22.479 -17.290  0.00  0.00    +0.053 C 
ATOM     15  C   UNL     1      33.034 -22.880 -17.881  0.00  0.00    +0.019 C 
ATOM     16  C   UNL     1      34.325 -22.481 -18.235  0.00  0.00    +0.013 C 
ATOM     17  H   UNL     1      37.179 -23.807 -13.508  0.00  0.00    -0.079 HD
ATOM     18  H   UNL     1      30.798 -23.802 -16.374  0.00  0.00    +0.168 HD
ENDROOT
BRANCH   3  19
ATOM     19  C   UNL     1      37.225 -25.067 -15.115  0.00  0.00    -0.050 C 
BRANCH  19  20
ATOM     20  C   UNL     1      38.339 -25.764 -14.392  0.00  0.00    -0.058 C 
ATOM     21  C   UNL     1      39.667 -25.625 -14.570  0.00  0.00    -0.050 C 
ATOM     22  C   UNL     1      40.734 -26.358 -13.808  0.00  0.00    +0.026 C 
ATOM     23  C   UNL     1      40.198 -24.669 -15.607  0.00  0.00    +0.026 C 
ENDBRANCH  19  20
ENDBRANCH   3  19
TORSDOF 2
ENDMDL
MODEL 3
REMARK VINA RESULT:      -7.6     11.804     13.676
REMARK  Name = 3000323
REMARK  2 active torsions:
REMARK  status: ('A' for Active; 'I' for Inactive)
REMARK    1  A    between atoms: N_3  and  C_19
REMARK    2  A    between atoms: C_19  and  C_20
REMARK                            x       y       z     vdW  Elec       q    Type
REMARK                         _______ _______ _______ _____ _____    ______ ____
ROOT
ATOM      1 CL   UNL     1      30.490 -11.058 -20.271  0.00  0.00    -0.083 Cl
ATOM      2  S   UNL     1      35.687 -10.280 -26.196  0.00  0.00    -0.013 S 
ATOM      3  N   UNL     1      32.847 -13.727 -22.576  0.00  0.00    +0.395 N 
ATOM      4  N   UNL     1      33.824 -11.242 -24.355  0.00  0.00    -0.310 N 
ATOM      5  N   UNL     1      34.406  -9.052 -24.131  0.00  0.00    -0.333 N 
ATOM      6  C   UNL     1      33.927 -13.614 -23.579  0.00  0.00    -0.034 C 
ATOM      7  C   UNL     1      33.687 -12.637 -24.752  0.00  0.00    +0.087 C 
ATOM      8  C   UNL     1      31.775 -12.727 -22.609  0.00  0.00    -0.047 C 
ATOM      9  C   UNL     1      33.109 -10.694 -23.275  0.00  0.00    +0.072 A 
ATOM     10  C   UNL     1      32.197 -11.297 -22.429  0.00  0.00    -0.015 C 
ATOM     11  C   UNL     1      33.476  -9.357 -23.138  0.00  0.00    +0.074 A 
ATOM     12  C   UNL     1      34.168 -15.020 -24.147  0.00  0.00    -0.021 C 
ATOM     13  C   UNL     1      34.640 -10.216 -24.907  0.00  0.00    +0.159 A 
ATOM     14  C   UNL     1      31.653 -10.484 -21.422  0.00  0.00    +0.053 C 
ATOM     15  C   UNL     1      32.956  -8.547 -22.156  0.00  0.00    +0.019 C 
ATOM     16  C   UNL     1      32.030  -9.129 -21.287  0.00  0.00    +0.013 C 
ATOM     17  H   UNL     1      32.360 -14.571 -22.880  0.00  0.00    -0.079 HD
ATOM     18  H   UNL     1      34.831  -8.175 -24.270  0.00  0.00    +0.168 HD
ENDROOT
BRANCH   3  19
ATOM     19  C   UNL     1      33.372 -13.928 -21.226  0.00  0.00    -0.050 C 
BRANCH  19  20
ATOM     20  C   UNL     1      34.383 -15.036 -21.190  0.00  0.00    -0.058 C 
ATOM     21  C   UNL     1      34.170 -16.357 -21.034  0.00  0.00    -0.050 C 
ATOM     22  C   UNL     1      35.233 -17.418 -21.007  0.00  0.00    +0.026 C 
ATOM     23  C   UNL     1      32.769 -16.885 -20.865  0.00  0.00    +0.026 C 
ENDBRANCH  19  20
ENDBRANCH   3  19
TORSDOF 2
ENDMDL
MODEL 4
REMARK VINA RESULT:      -7.6     15.273     17.080
REMARK  Name = 3000323
REMARK  2 active torsions:
REMARK  status: ('A' for Active; 'I' for Inactive)
REMARK    1  A    between atoms: N_3  and  C_19
REMARK    2  A    between atoms: C_19  and  C_20
REMARK                            x       y       z     vdW  Elec       q    Type
REMARK                         _______ _______ _______ _____ _____    ______ ____
ROOT
ATOM      1 CL   UNL     1      31.237  -8.637 -19.136  0.00  0.00    -0.083 Cl
ATOM      2  S   UNL     1      34.296 -11.684 -25.774  0.00  0.00    -0.013 S 
ATOM      3  N   UNL     1      32.897  -7.035 -22.696  0.00  0.00    +0.395 N 
ATOM      4  N   UNL     1      33.591 -10.019 -23.650  0.00  0.00    -0.310 N 
ATOM      5  N   UNL     1      32.712 -12.119 -23.602  0.00  0.00    -0.333 N 
ATOM      6  C   UNL     1      33.338  -7.559 -24.006  0.00  0.00    -0.034 C 
ATOM      7  C   UNL     1      34.284  -8.781 -23.983  0.00  0.00    +0.087 C 
ATOM      8  C   UNL     1      33.152  -7.857 -21.508  0.00  0.00    -0.047 C 
ATOM      9  C   UNL     1      32.800 -10.150 -22.494  0.00  0.00    +0.072 A 
ATOM     10  C   UNL     1      32.532  -9.225 -21.503  0.00  0.00    -0.015 C 
ATOM     11  C   UNL     1      32.260 -11.434 -22.476  0.00  0.00    +0.074 A 
ATOM     12  C   UNL     1      34.035  -6.408 -24.744  0.00  0.00    -0.021 C 
ATOM     13  C   UNL     1      33.549 -11.254 -24.353  0.00  0.00    +0.159 A 
ATOM     14  C   UNL     1      31.684  -9.651 -20.469  0.00  0.00    +0.053 C 
ATOM     15  C   UNL     1      31.425 -11.868 -21.472  0.00  0.00    +0.019 C 
ATOM     16  C   UNL     1      31.137 -10.954 -20.455  0.00  0.00    +0.013 C 
ATOM     17  H   UNL     1      33.534  -6.251 -22.553  0.00  0.00    -0.079 HD
ATOM     18  H   UNL     1      32.489 -13.048 -23.838  0.00  0.00    +0.168 HD
ENDROOT
BRANCH   3  19
ATOM     19  C   UNL     1      31.521  -6.541 -22.739  0.00  0.00    -0.050 C 
BRANCH  19  20
ATOM     20  C   UNL     1      31.466  -5.054 -22.546  0.00  0.00    -0.058 C 
ATOM     21  C   UNL     1      31.229  -4.100 -23.467  0.00  0.00    -0.050 C 
ATOM     22  C   UNL     1      31.189  -2.621 -23.205  0.00  0.00    +0.026 C 
ATOM     23  C   UNL     1      30.976  -4.478 -24.903  0.00  0.00    +0.026 C 
ENDBRANCH  19  20
ENDBRANCH   3  19
TORSDOF 2
ENDMDL
MODEL 5
REMARK VINA RESULT:      -7.2     13.110     14.871
REMARK  Name = 3000323
REMARK  2 active torsions:
REMARK  status: ('A' for Active; 'I' for Inactive)
REMARK    1  A    between atoms: N_3  and  C_19
REMARK    2  A    between atoms: C_19  and  C_20
REMARK                            x       y       z     vdW  Elec       q    Type
REMARK                         _______ _______ _______ _____ _____    ______ ____
ROOT
ATOM      1 CL   UNL     1      30.654 -11.120 -19.526  0.00  0.00    -0.083 Cl
ATOM      2  S   UNL     1      34.654  -6.872 -24.881  0.00  0.00    -0.013 S 
ATOM      3  N   UNL     1      32.643 -11.980 -23.173  0.00  0.00    +0.395 N 
ATOM      4  N   UNL     1      33.192  -8.842 -23.550  0.00  0.00    -0.310 N 
ATOM      5  N   UNL     1      33.729  -7.000 -22.323  0.00  0.00    -0.333 N 
ATOM      6  C   UNL     1      33.518 -11.253 -24.117  0.00  0.00    -0.034 C 
ATOM      7  C   UNL     1      33.034  -9.860 -24.580  0.00  0.00    +0.087 C 
ATOM      8  C   UNL     1      31.549 -11.236 -22.541  0.00  0.00    -0.047 C 
ATOM      9  C   UNL     1      32.667  -8.995 -22.254  0.00  0.00    +0.072 A 
ATOM     10  C   UNL     1      31.946 -10.045 -21.717  0.00  0.00    -0.015 C 
ATOM     11  C   UNL     1      33.006  -7.869 -21.507  0.00  0.00    +0.074 A 
ATOM     12  C   UNL     1      33.700 -12.149 -25.350  0.00  0.00    -0.021 C 
ATOM     13  C   UNL     1      33.858  -7.586 -23.608  0.00  0.00    +0.159 A 
ATOM     14  C   UNL     1      31.567  -9.913 -20.372  0.00  0.00    +0.053 C 
ATOM     15  C   UNL     1      32.646  -7.724 -20.187  0.00  0.00    +0.019 C 
ATOM     16  C   UNL     1      31.914  -8.770 -19.618  0.00  0.00    +0.013 C 
ATOM     17  H   UNL     1      32.139 -12.614 -23.793  0.00  0.00    -0.079 HD
ATOM     18  H   UNL     1      34.090  -6.126 -22.052  0.00  0.00    +0.168 HD
ENDROOT
BRANCH   3  19
ATOM     19  C   UNL     1      33.412 -12.759 -22.202  0.00  0.00    -0.050 C 
BRANCH  19  20
ATOM     20  C   UNL     1      32.610 -13.907 -21.664  0.00  0.00    -0.058 C 
ATOM     21  C   UNL     1      33.045 -14.979 -20.973  0.00  0.00    -0.050 C 
ATOM     22  C   UNL     1      32.183 -16.099 -20.461  0.00  0.00    +0.026 C 
ATOM     23  C   UNL     1      34.509 -15.133 -20.653  0.00  0.00    +0.026 C 
ENDBRANCH  19  20
ENDBRANCH   3  19
TORSDOF 2
ENDMDL
MODEL 6
REMARK VINA RESULT:      -6.9      8.820     10.806
REMARK  Name = 3000323
REMARK  2 active torsions:
REMARK  status: ('A' for Active; 'I' for Inactive)
REMARK    1  A    between atoms: N_3  and  C_19
REMARK    2  A    between atoms: C_19  and  C_20
REMARK                            x       y       z     vdW  Elec       q    Type
REMARK                         _______ _______ _______ _____ _____    ______ ____
ROOT
ATOM      1 CL   UNL     1      34.952 -18.647 -25.361  0.00  0.00    -0.083 Cl
ATOM      2  S   UNL     1      32.693 -11.483 -22.854  0.00  0.00    -0.013 S 
ATOM      3  N   UNL     1      34.812 -16.679 -21.606  0.00  0.00    +0.395 N 
ATOM      4  N   UNL     1      33.852 -14.008 -23.103  0.00  0.00    -0.310 N 
ATOM      5  N   UNL     1      32.515 -13.353 -24.825  0.00  0.00    -0.333 N 
ATOM      6  C   UNL     1      34.266 -15.411 -21.077  0.00  0.00    -0.034 C 
ATOM      7  C   UNL     1      34.610 -14.125 -21.863  0.00  0.00    +0.087 C 
ATOM      8  C   UNL     1      35.389 -16.667 -22.954  0.00  0.00    -0.047 C 
ATOM      9  C   UNL     1      33.830 -15.029 -24.070  0.00  0.00    +0.072 A 
ATOM     10  C   UNL     1      34.467 -16.256 -24.066  0.00  0.00    -0.015 C 
ATOM     11  C   UNL     1      33.005 -14.625 -25.116  0.00  0.00    +0.074 A 
ATOM     12  C   UNL     1      34.777 -15.262 -19.637  0.00  0.00    -0.021 C 
ATOM     13  C   UNL     1      33.033 -12.944 -23.569  0.00  0.00    +0.159 A 
ATOM     14  C   UNL     1      34.238 -17.077 -25.182  0.00  0.00    +0.053 C 
ATOM     15  C   UNL     1      32.767 -15.417 -26.216  0.00  0.00    +0.019 C 
ATOM     16  C   UNL     1      33.398 -16.664 -26.240  0.00  0.00    +0.013 C 
ATOM     17  H   UNL     1      35.637 -16.816 -21.023  0.00  0.00    -0.079 HD
ATOM     18  H   UNL     1      31.910 -12.826 -25.395  0.00  0.00    +0.168 HD
ENDROOT
BRANCH   3  19
ATOM     19  C   UNL     1      33.888 -17.797 -21.412  0.00  0.00    -0.050 C 
BRANCH  19  20
ATOM     20  C   UNL     1      34.610 -19.031 -20.957  0.00  0.00    -0.058 C 
ATOM     21  C   UNL     1      34.092 -20.152 -20.421  0.00  0.00    -0.050 C 
ATOM     22  C   UNL     1      34.876 -21.358 -19.985  0.00  0.00    +0.026 C 
ATOM     23  C   UNL     1      32.605 -20.275 -20.208  0.00  0.00    +0.026 C 
ENDBRANCH  19  20
ENDBRANCH   3  19
TORSDOF 2
ENDMDL
MODEL 7
REMARK VINA RESULT:      -6.9     12.134     14.136
REMARK  Name = 3000323
REMARK  2 active torsions:
REMARK  status: ('A' for Active; 'I' for Inactive)
REMARK    1  A    between atoms: N_3  and  C_19
REMARK    2  A    between atoms: C_19  and  C_20
REMARK                            x       y       z     vdW  Elec       q    Type
REMARK                         _______ _______ _______ _____ _____    ______ ____
ROOT
ATOM      1 CL   UNL     1      31.644 -14.087 -20.179  0.00  0.00    -0.083 Cl
ATOM      2  S   UNL     1      32.645  -6.929 -23.417  0.00  0.00    -0.013 S 
ATOM      3  N   UNL     1      33.392 -12.619 -23.755  0.00  0.00    +0.395 N 
ATOM      4  N   UNL     1      32.401  -9.672 -22.965  0.00  0.00    -0.310 N 
ATOM      5  N   UNL     1      32.168  -8.337 -21.135  0.00  0.00    -0.333 N 
ATOM      6  C   UNL     1      33.728 -11.296 -24.322  0.00  0.00    -0.034 C 
ATOM      7  C   UNL     1      32.614 -10.226 -24.295  0.00  0.00    +0.087 C 
ATOM      8  C   UNL     1      32.155 -12.736 -22.975  0.00  0.00    -0.047 C 
ATOM      9  C   UNL     1      32.150 -10.484 -21.844  0.00  0.00    +0.072 A 
ATOM     10  C   UNL     1      32.052 -11.860 -21.760  0.00  0.00    -0.015 C 
ATOM     11  C   UNL     1      32.017  -9.661 -20.728  0.00  0.00    +0.074 A 
ATOM     12  C   UNL     1      34.163 -11.523 -25.777  0.00  0.00    -0.021 C 
ATOM     13  C   UNL     1      32.409  -8.317 -22.533  0.00  0.00    +0.159 A 
ATOM     14  C   UNL     1      31.805 -12.388 -20.483  0.00  0.00    +0.053 C 
ATOM     15  C   UNL     1      31.778 -10.161 -19.468  0.00  0.00    +0.019 C 
ATOM     16  C   UNL     1      31.672 -11.550 -19.354  0.00  0.00    +0.013 C 
ATOM     17  H   UNL     1      33.169 -13.160 -24.590  0.00  0.00    -0.079 HD
ATOM     18  H   UNL     1      32.117  -7.547 -20.551  0.00  0.00    +0.168 HD
ENDROOT
BRANCH   3  19
ATOM     19  C   UNL     1      34.533 -13.229 -23.072  0.00  0.00    -0.050 C 
BRANCH  19  20
ATOM     20  C   UNL     1      34.464 -14.727 -23.121  0.00  0.00    -0.058 C 
ATOM     21  C   UNL     1      34.523 -15.600 -22.097  0.00  0.00    -0.050 C 
ATOM     22  C   UNL     1      34.447 -17.096 -22.216  0.00  0.00    +0.026 C 
ATOM     23  C   UNL     1      34.679 -15.103 -20.683  0.00  0.00    +0.026 C 
ENDBRANCH  19  20
ENDBRANCH   3  19
TORSDOF 2
ENDMDL
MODEL 8
REMARK VINA RESULT:      -6.9     13.982     16.092
REMARK  Name = 3000323
REMARK  2 active torsions:
REMARK  status: ('A' for Active; 'I' for Inactive)
REMARK    1  A    between atoms: N_3  and  C_19
REMARK    2  A    between atoms: C_19  and  C_20
REMARK                            x       y       z     vdW  Elec       q    Type
REMARK                         _______ _______ _______ _____ _____    ______ ____
ROOT
ATOM      1 CL   UNL     1      31.939 -12.959 -23.039  0.00  0.00    -0.083 Cl
ATOM      2  S   UNL     1      32.278  -5.854 -19.558  0.00  0.00    -0.013 S 
ATOM      3  N   UNL     1      33.591  -9.186 -24.055  0.00  0.00    +0.395 N 
ATOM      4  N   UNL     1      32.300  -7.963 -21.384  0.00  0.00    -0.310 N 
ATOM      5  N   UNL     1      31.906  -8.529 -19.214  0.00  0.00    -0.333 N 
ATOM      6  C   UNL     1      33.803  -7.889 -23.378  0.00  0.00    -0.034 C 
ATOM      7  C   UNL     1      32.588  -7.283 -22.640  0.00  0.00    +0.087 C 
ATOM      8  C   UNL     1      32.359  -9.923 -23.752  0.00  0.00    -0.047 C 
ATOM      9  C   UNL     1      32.113  -9.355 -21.308  0.00  0.00    +0.072 A 
ATOM     10  C   UNL     1      32.150 -10.303 -22.314  0.00  0.00    -0.015 C 
ATOM     11  C   UNL     1      31.880  -9.695 -19.978  0.00  0.00    +0.074 A 
ATOM     12  C   UNL     1      34.282  -6.894 -24.444  0.00  0.00    -0.021 C 
ATOM     13  C   UNL     1      32.166  -7.430 -20.072  0.00  0.00    +0.159 A 
ATOM     14  C   UNL     1      31.936 -11.634 -21.922  0.00  0.00    +0.053 C 
ATOM     15  C   UNL     1      31.672 -10.994 -19.574  0.00  0.00    +0.019 C 
ATOM     16  C   UNL     1      31.702 -11.973 -20.571  0.00  0.00    +0.013 C 
ATOM     17  H   UNL     1      33.436  -8.901 -25.021  0.00  0.00    -0.079 HD
ATOM     18  H   UNL     1      31.767  -8.477 -18.241  0.00  0.00    +0.168 HD
ENDROOT
BRANCH   3  19
ATOM     19  C   UNL     1      34.776 -10.041 -23.985  0.00  0.00    -0.050 C 
BRANCH  19  20
ATOM     20  C   UNL     1      35.390 -10.238 -25.340  0.00  0.00    -0.058 C 
ATOM     21  C   UNL     1      35.027 -11.105 -26.304  0.00  0.00    -0.050 C 
ATOM     22  C   UNL     1      35.689 -11.251 -27.645  0.00  0.00    +0.026 C 
ATOM     23  C   UNL     1      33.866 -12.041 -26.086  0.00  0.00    +0.026 C 
ENDBRANCH  19  20
ENDBRANCH   3  19
TORSDOF 2
ENDMDL
MODEL 9
REMARK VINA RESULT:      -6.6     12.873     14.469
REMARK  Name = 3000323
REMARK  2 active torsions:
REMARK  status: ('A' for Active; 'I' for Inactive)
REMARK    1  A    between atoms: N_3  and  C_19
REMARK    2  A    between atoms: C_19  and  C_20
REMARK                            x       y       z     vdW  Elec       q    Type
REMARK                         _______ _______ _______ _____ _____    ______ ____
ROOT
ATOM      1 CL   UNL     1      32.089  -8.594 -24.581  0.00  0.00    -0.083 Cl
ATOM      2  S   UNL     1      33.299 -15.420 -20.752  0.00  0.00    -0.013 S 
ATOM      3  N   UNL     1      31.537  -9.950 -20.599  0.00  0.00    +0.395 N 
ATOM      4  N   UNL     1      32.429 -12.887 -21.534  0.00  0.00    -0.310 N 
ATOM      5  N   UNL     1      33.917 -13.902 -22.927  0.00  0.00    -0.333 N 
ATOM      6  C   UNL     1      31.883 -11.156 -19.817  0.00  0.00    -0.034 C 
ATOM      7  C   UNL     1      31.528 -12.520 -20.450  0.00  0.00    +0.087 C 
ATOM      8  C   UNL     1      31.147 -10.132 -22.001  0.00  0.00    -0.047 C 
ATOM      9  C   UNL     1      32.678 -12.035 -22.625  0.00  0.00    +0.072 A 
ATOM     10  C   UNL     1      32.167 -10.780 -22.894  0.00  0.00    -0.015 C 
ATOM     11  C   UNL     1      33.594 -12.659 -23.469  0.00  0.00    +0.074 A 
ATOM     12  C   UNL     1      31.172 -11.038 -18.462  0.00  0.00    -0.021 C 
ATOM     13  C   UNL     1      33.199 -14.069 -21.715  0.00  0.00    +0.159 A 
ATOM     14  C   UNL     1      32.620 -10.164 -24.072  0.00  0.00    +0.053 C 
ATOM     15  C   UNL     1      34.052 -12.070 -24.625  0.00  0.00    +0.019 C 
ATOM     16  C   UNL     1      33.551 -10.800 -24.923  0.00  0.00    +0.013 C 
ATOM     17  H   UNL     1      30.657  -9.662 -20.170  0.00  0.00    -0.079 HD
ATOM     18  H   UNL     1      34.540 -14.555 -23.319  0.00  0.00    +0.168 HD
ENDROOT
BRANCH   3  19
ATOM     19  C   UNL     1      32.528  -8.887 -20.436  0.00  0.00    -0.050 C 
BRANCH  19  20
ATOM     20  C   UNL     1      32.007  -7.571 -20.936  0.00  0.00    -0.058 C 
ATOM     21  C   UNL     1      32.538  -6.765 -21.874  0.00  0.00    -0.050 C 
ATOM     22  C   UNL     1      31.962  -5.453 -22.329  0.00  0.00    +0.026 C 
ATOM     23  C   UNL     1      33.821  -7.147 -22.567  0.00  0.00    +0.026 C 
ENDBRANCH  19  20
ENDBRANCH   3  19
TORSDOF 2
ENDMDL
