MODEL 1
REMARK VINA RESULT:      -5.7      0.000      0.000
REMARK  Name = 14520
REMARK  1 active torsions:
REMARK  status: ('A' for Active; 'I' for Inactive)
REMARK    1  A    between atoms: C_3  and  N_8
REMARK                            x       y       z     vdW  Elec       q    Type
REMARK                         _______ _______ _______ _____ _____    ______ ____
ROOT
ATOM      1  S   UNL     1      35.097 -16.420 -23.179  0.00  0.00    -0.075 S 
ATOM      2  O   UNL     1      35.123 -17.034 -20.614  0.00  0.00    -0.283 OA
ATOM      3  C   UNL     1      34.636 -18.869 -22.148  0.00  0.00    +0.141 C 
ATOM      4  C   UNL     1      35.053 -19.011 -23.607  0.00  0.00    +0.040 C 
ATOM      5  C   UNL     1      34.621 -17.745 -24.325  0.00  0.00    +0.067 C 
ATOM      6  C   UNL     1      34.983 -17.453 -21.754  0.00  0.00    +0.216 C 
ENDROOT
BRANCH   3   8
ATOM      7  O   UNL     1      33.516 -20.503 -20.026  0.00  0.00    -0.275 OA
ATOM      8  N   UNL     1      35.335 -19.783 -21.292  0.00  0.00    -0.299 N 
ATOM      9  C   UNL     1      34.714 -20.530 -20.295  0.00  0.00    +0.223 C 
ATOM     10  C   UNL     1      35.675 -21.427 -19.562  0.00  0.00    +0.095 C 
ATOM     11  H   UNL     1      36.305 -19.888 -21.416  0.00  0.00    +0.150 HD
ENDBRANCH   3   8
TORSDOF 1
ENDMDL
MODEL 2
REMARK VINA RESULT:      -5.6      2.413      4.541
REMARK  Name = 14520
REMARK  1 active torsions:
REMARK  status: ('A' for Active; 'I' for Inactive)
REMARK    1  A    between atoms: C_3  and  N_8
REMARK                            x       y       z     vdW  Elec       q    Type
REMARK                         _______ _______ _______ _____ _____    ______ ____
ROOT
ATOM      1  S   UNL     1      33.816 -22.137 -19.116  0.00  0.00    -0.075 S 
ATOM      2  O   UNL     1      32.491 -20.475 -20.677  0.00  0.00    -0.283 OA
ATOM      3  C   UNL     1      34.899 -20.108 -20.524  0.00  0.00    +0.141 C 
ATOM      4  C   UNL     1      35.986 -21.124 -20.194  0.00  0.00    +0.040 C 
ATOM      5  C   UNL     1      35.588 -21.805 -18.898  0.00  0.00    +0.067 C 
ATOM      6  C   UNL     1      33.586 -20.799 -20.243  0.00  0.00    +0.216 C 
ENDROOT
BRANCH   3   8
ATOM      7  O   UNL     1      35.457 -17.456 -21.565  0.00  0.00    -0.275 OA
ATOM      8  N   UNL     1      34.934 -19.701 -21.899  0.00  0.00    -0.299 N 
ATOM      9  C   UNL     1      35.212 -18.401 -22.310  0.00  0.00    +0.223 C 
ATOM     10  C   UNL     1      35.209 -18.254 -23.807  0.00  0.00    +0.095 C 
ATOM     11  H   UNL     1      34.751 -20.378 -22.589  0.00  0.00    +0.150 HD
ENDBRANCH   3   8
TORSDOF 1
ENDMDL
MODEL 3
REMARK VINA RESULT:      -5.5      2.068      2.388
REMARK  Name = 14520
REMARK  1 active torsions:
REMARK  status: ('A' for Active; 'I' for Inactive)
REMARK    1  A    between atoms: C_3  and  N_8
REMARK                            x       y       z     vdW  Elec       q    Type
REMARK                         _______ _______ _______ _____ _____    ______ ____
ROOT
ATOM      1  S   UNL     1      34.590 -17.058 -24.931  0.00  0.00    -0.075 S 
ATOM      2  O   UNL     1      34.797 -19.668 -24.616  0.00  0.00    -0.283 OA
ATOM      3  C   UNL     1      35.186 -18.316 -22.622  0.00  0.00    +0.141 C 
ATOM      4  C   UNL     1      34.647 -16.925 -22.309  0.00  0.00    +0.040 C 
ATOM      5  C   UNL     1      34.992 -16.033 -23.487  0.00  0.00    +0.067 C 
ATOM      6  C   UNL     1      34.846 -18.576 -24.070  0.00  0.00    +0.216 C 
ENDROOT
BRANCH   3   8
ATOM      7  O   UNL     1      36.305 -19.579 -20.259  0.00  0.00    -0.275 OA
ATOM      8  N   UNL     1      34.581 -19.329 -21.805  0.00  0.00    -0.299 N 
ATOM      9  C   UNL     1      35.193 -19.881 -20.685  0.00  0.00    +0.223 C 
ATOM     10  C   UNL     1      34.330 -20.904 -19.998  0.00  0.00    +0.095 C 
ATOM     11  H   UNL     1      33.684 -19.651 -22.052  0.00  0.00    +0.150 HD
ENDBRANCH   3   8
TORSDOF 1
ENDMDL
MODEL 4
REMARK VINA RESULT:      -5.5      8.227      9.601
REMARK  Name = 14520
REMARK  1 active torsions:
REMARK  status: ('A' for Active; 'I' for Inactive)
REMARK    1  A    between atoms: C_3  and  N_8
REMARK                            x       y       z     vdW  Elec       q    Type
REMARK                         _______ _______ _______ _____ _____    ______ ____
ROOT
ATOM      1  S   UNL     1      32.666 -23.546 -15.299  0.00  0.00    -0.075 S 
ATOM      2  O   UNL     1      31.259 -22.490 -17.264  0.00  0.00    -0.283 OA
ATOM      3  C   UNL     1      29.999 -23.779 -15.619  0.00  0.00    +0.141 C 
ATOM      4  C   UNL     1      30.353 -24.043 -14.160  0.00  0.00    +0.040 C 
ATOM      5  C   UNL     1      31.763 -24.604 -14.133  0.00  0.00    +0.067 C 
ATOM      6  C   UNL     1      31.225 -23.148 -16.235  0.00  0.00    +0.216 C 
ENDROOT
BRANCH   3   8
ATOM      7  O   UNL     1      27.810 -23.957 -17.518  0.00  0.00    -0.275 OA
ATOM      8  N   UNL     1      28.887 -22.882 -15.754  0.00  0.00    -0.299 N 
ATOM      9  C   UNL     1      27.878 -23.045 -16.698  0.00  0.00    +0.223 C 
ATOM     10  C   UNL     1      26.822 -21.977 -16.607  0.00  0.00    +0.095 C 
ATOM     11  H   UNL     1      28.836 -22.109 -15.147  0.00  0.00    +0.150 HD
ENDBRANCH   3   8
TORSDOF 1
ENDMDL
MODEL 5
REMARK VINA RESULT:      -5.4      1.796      1.992
REMARK  Name = 14520
REMARK  1 active torsions:
REMARK  status: ('A' for Active; 'I' for Inactive)
REMARK    1  A    between atoms: C_3  and  N_8
REMARK                            x       y       z     vdW  Elec       q    Type
REMARK                         _______ _______ _______ _____ _____    ______ ____
ROOT
ATOM      1  S   UNL     1      34.328 -14.403 -22.566  0.00  0.00    -0.075 S 
ATOM      2  O   UNL     1      34.791 -15.367 -20.156  0.00  0.00    -0.283 OA
ATOM      3  C   UNL     1      34.607 -17.013 -21.948  0.00  0.00    +0.141 C 
ATOM      4  C   UNL     1      34.881 -16.818 -23.435  0.00  0.00    +0.040 C 
ATOM      5  C   UNL     1      34.071 -15.619 -23.890  0.00  0.00    +0.067 C 
ATOM      6  C   UNL     1      34.634 -15.632 -21.338  0.00  0.00    +0.216 C 
ENDROOT
BRANCH   3   8
ATOM      7  O   UNL     1      34.482 -19.868 -21.435  0.00  0.00    -0.275 OA
ATOM      8  N   UNL     1      35.602 -17.829 -21.314  0.00  0.00    -0.299 N 
ATOM      9  C   UNL     1      35.458 -19.197 -21.108  0.00  0.00    +0.223 C 
ATOM     10  C   UNL     1      36.660 -19.812 -20.445  0.00  0.00    +0.095 C 
ATOM     11  H   UNL     1      36.432 -17.397 -21.008  0.00  0.00    +0.150 HD
ENDBRANCH   3   8
TORSDOF 1
ENDMDL
MODEL 6
REMARK VINA RESULT:      -5.4      2.689      3.572
REMARK  Name = 14520
REMARK  1 active torsions:
REMARK  status: ('A' for Active; 'I' for Inactive)
REMARK    1  A    between atoms: C_3  and  N_8
REMARK                            x       y       z     vdW  Elec       q    Type
REMARK                         _______ _______ _______ _____ _____    ______ ____
ROOT
ATOM      1  S   UNL     1      33.404 -14.974 -25.401  0.00  0.00    -0.075 S 
ATOM      2  O   UNL     1      34.743 -17.242 -25.556  0.00  0.00    -0.283 OA
ATOM      3  C   UNL     1      34.655 -16.201 -23.350  0.00  0.00    +0.141 C 
ATOM      4  C   UNL     1      33.592 -15.259 -22.797  0.00  0.00    +0.040 C 
ATOM      5  C   UNL     1      33.428 -14.128 -23.795  0.00  0.00    +0.067 C 
ATOM      6  C   UNL     1      34.355 -16.344 -24.823  0.00  0.00    +0.216 C 
ENDROOT
BRANCH   3   8
ATOM      7  O   UNL     1      35.330 -16.867 -20.606  0.00  0.00    -0.275 OA
ATOM      8  N   UNL     1      34.610 -17.494 -22.731  0.00  0.00    -0.299 N 
ATOM      9  C   UNL     1      34.953 -17.723 -21.403  0.00  0.00    +0.223 C 
ATOM     10  C   UNL     1      34.793 -19.165 -21.004  0.00  0.00    +0.095 C 
ATOM     11  H   UNL     1      34.321 -18.261 -23.276  0.00  0.00    +0.150 HD
ENDBRANCH   3   8
TORSDOF 1
ENDMDL
MODEL 7
REMARK VINA RESULT:      -5.3      2.795      4.344
REMARK  Name = 14520
REMARK  1 active torsions:
REMARK  status: ('A' for Active; 'I' for Inactive)
REMARK    1  A    between atoms: C_3  and  N_8
REMARK                            x       y       z     vdW  Elec       q    Type
REMARK                         _______ _______ _______ _____ _____    ______ ____
ROOT
ATOM      1  S   UNL     1      35.229 -21.659 -19.183  0.00  0.00    -0.075 S 
ATOM      2  O   UNL     1      36.794 -19.843 -20.283  0.00  0.00    -0.283 OA
ATOM      3  C   UNL     1      34.473 -19.854 -21.039  0.00  0.00    +0.141 C 
ATOM      4  C   UNL     1      33.241 -20.344 -20.287  0.00  0.00    +0.040 C 
ATOM      5  C   UNL     1      33.531 -21.758 -19.820  0.00  0.00    +0.067 C 
ATOM      6  C   UNL     1      35.662 -20.300 -20.223  0.00  0.00    +0.216 C 
ENDROOT
BRANCH   3   8
ATOM      7  O   UNL     1      35.368 -18.307 -23.327  0.00  0.00    -0.275 OA
ATOM      8  N   UNL     1      34.499 -18.425 -21.169  0.00  0.00    -0.299 N 
ATOM      9  C   UNL     1      34.946 -17.765 -22.309  0.00  0.00    +0.223 C 
ATOM     10  C   UNL     1      34.842 -16.269 -22.189  0.00  0.00    +0.095 C 
ATOM     11  H   UNL     1      34.182 -17.884 -20.411  0.00  0.00    +0.150 HD
ENDBRANCH   3   8
TORSDOF 1
ENDMDL
MODEL 8
REMARK VINA RESULT:      -5.3      4.905      6.447
REMARK  Name = 14520
REMARK  1 active torsions:
REMARK  status: ('A' for Active; 'I' for Inactive)
REMARK    1  A    between atoms: C_3  and  N_8
REMARK                            x       y       z     vdW  Elec       q    Type
REMARK                         _______ _______ _______ _____ _____    ______ ____
ROOT
ATOM      1  S   UNL     1      34.400 -15.205 -21.285  0.00  0.00    -0.075 S 
ATOM      2  O   UNL     1      35.358 -15.619 -23.707  0.00  0.00    -0.283 OA
ATOM      3  C   UNL     1      33.084 -14.738 -23.592  0.00  0.00    +0.141 C 
ATOM      4  C   UNL     1      32.451 -13.911 -22.480  0.00  0.00    +0.040 C 
ATOM      5  C   UNL     1      32.670 -14.663 -21.180  0.00  0.00    +0.067 C 
ATOM      6  C   UNL     1      34.409 -15.219 -23.049  0.00  0.00    +0.216 C 
ENDROOT
BRANCH   3   8
ATOM      7  O   UNL     1      32.834 -15.623 -26.346  0.00  0.00    -0.275 OA
ATOM      8  N   UNL     1      33.314 -13.966 -24.780  0.00  0.00    -0.299 N 
ATOM      9  C   UNL     1      33.169 -14.474 -26.067  0.00  0.00    +0.223 C 
ATOM     10  C   UNL     1      33.446 -13.446 -27.130  0.00  0.00    +0.095 C 
ATOM     11  H   UNL     1      33.588 -13.027 -24.679  0.00  0.00    +0.150 HD
ENDBRANCH   3   8
TORSDOF 1
ENDMDL
MODEL 9
REMARK VINA RESULT:      -5.3      2.562      3.419
REMARK  Name = 14520
REMARK  1 active torsions:
REMARK  status: ('A' for Active; 'I' for Inactive)
REMARK    1  A    between atoms: C_3  and  N_8
REMARK                            x       y       z     vdW  Elec       q    Type
REMARK                         _______ _______ _______ _____ _____    ______ ____
ROOT
ATOM      1  S   UNL     1      33.713 -13.829 -22.811  0.00  0.00    -0.075 S 
ATOM      2  O   UNL     1      35.341 -15.838 -23.332  0.00  0.00    -0.283 OA
ATOM      3  C   UNL     1      33.990 -16.053 -21.310  0.00  0.00    +0.141 C 
ATOM      4  C   UNL     1      32.642 -15.410 -21.008  0.00  0.00    +0.040 C 
ATOM      5  C   UNL     1      32.789 -13.919 -21.251  0.00  0.00    +0.067 C 
ATOM      6  C   UNL     1      34.487 -15.398 -22.577  0.00  0.00    +0.216 C 
ENDROOT
BRANCH   3   8
ATOM      7  O   UNL     1      35.896 -18.101 -20.535  0.00  0.00    -0.275 OA
ATOM      8  N   UNL     1      33.883 -17.468 -21.521  0.00  0.00    -0.299 N 
ATOM      9  C   UNL     1      34.849 -18.381 -21.114  0.00  0.00    +0.223 C 
ATOM     10  C   UNL     1      34.475 -19.803 -21.437  0.00  0.00    +0.095 C 
ATOM     11  H   UNL     1      33.082 -17.810 -21.979  0.00  0.00    +0.150 HD
ENDBRANCH   3   8
TORSDOF 1
ENDMDL
