MODEL 1
REMARK VINA RESULT:      -9.0      0.000      0.000
REMARK  Name = 24762195
REMARK  3 active torsions:
REMARK  status: ('A' for Active; 'I' for Inactive)
REMARK    1  A    between atoms: C_5  and  C_18
REMARK    2  A    between atoms: C_5  and  C_24
REMARK    3  A    between atoms: C_24  and  N_25
REMARK                            x       y       z     vdW  Elec       q    Type
REMARK                         _______ _______ _______ _____ _____    ______ ____
ROOT
ATOM      1  N   UNL     1      31.686  -8.641 -22.586  0.00  0.00    -0.296 N 
ATOM      2  N   UNL     1      32.000 -10.939 -23.129  0.00  0.00    -0.233 NA
ATOM      3  N   UNL     1      31.697 -11.848 -19.204  0.00  0.00    -0.300 N 
ATOM      4  N   UNL     1      32.023 -12.691 -21.439  0.00  0.00    -0.233 NA
ATOM      5  C   UNL     1      31.579  -5.859 -23.573  0.00  0.00    +0.002 C 
ATOM      6  C   UNL     1      32.068  -6.242 -22.147  0.00  0.00    +0.023 C 
ATOM      7  C   UNL     1      30.531  -6.945 -23.948  0.00  0.00    +0.023 C 
ATOM      8  C   UNL     1      32.642  -7.661 -22.064  0.00  0.00    +0.092 C 
ATOM      9  C   UNL     1      31.107  -8.361 -23.906  0.00  0.00    +0.092 C 
ATOM     10  C   UNL     1      31.795  -9.982 -22.195  0.00  0.00    +0.116 C 
ATOM     11  C   UNL     1      31.698 -10.342 -20.852  0.00  0.00    +0.131 C 
ATOM     12  C   UNL     1      31.820 -11.695 -20.560  0.00  0.00    +0.117 C 
ATOM     13  C   UNL     1      31.495  -9.670 -19.620  0.00  0.00    +0.004 C 
ATOM     14  C   UNL     1      32.100 -12.217 -22.699  0.00  0.00    +0.252 C 
ATOM     15  C   UNL     1      31.499 -10.622 -18.622  0.00  0.00    +0.059 C 
ATOM     16  H   UNL     1      31.744 -12.705 -18.722  0.00  0.00    +0.153 HD
ENDROOT
BRANCH   5  18
ATOM     17 CL   UNL     1      35.973  -5.261 -27.692  0.00  0.00    -0.082 Cl
ATOM     18  C   UNL     1      32.698  -5.707 -24.622  0.00  0.00    -0.025 C 
ATOM     19  C   UNL     1      33.861  -6.470 -24.516  0.00  0.00    -0.003 C 
ATOM     20  C   UNL     1      32.547  -4.806 -25.677  0.00  0.00    -0.003 C 
ATOM     21  C   UNL     1      34.874  -6.332 -25.466  0.00  0.00    +0.011 C 
ATOM     22  C   UNL     1      33.560  -4.669 -26.626  0.00  0.00    +0.011 C 
ATOM     23  C   UNL     1      34.723  -5.432 -26.521  0.00  0.00    +0.058 C 
ENDBRANCH   5  18
BRANCH   5  24
ATOM     24  C   UNL     1      30.863  -4.493 -23.481  0.00  0.00    -0.082 C 
BRANCH  24  25
ATOM     25  N   UNL     1      30.448  -4.222 -22.115  0.00  0.00    +0.381 N 
ATOM     26  H   UNL     1      29.449  -4.013 -22.099  0.00  0.00    -0.089 HD
ATOM     27  H   UNL     1      30.968  -3.424 -21.752  0.00  0.00    -0.089 HD
ATOM     28  H   UNL     1      30.632  -5.041 -21.535  0.00  0.00    -0.089 HD
ENDBRANCH  24  25
ENDBRANCH   5  24
TORSDOF 3
ENDMDL
MODEL 2
REMARK VINA RESULT:      -8.9      3.092      6.941
REMARK  Name = 24762195
REMARK  3 active torsions:
REMARK  status: ('A' for Active; 'I' for Inactive)
REMARK    1  A    between atoms: C_5  and  C_18
REMARK    2  A    between atoms: C_5  and  C_24
REMARK    3  A    between atoms: C_24  and  N_25
REMARK                            x       y       z     vdW  Elec       q    Type
REMARK                         _______ _______ _______ _____ _____    ______ ____
ROOT
ATOM      1  N   UNL     1      32.826  -6.616 -24.097  0.00  0.00    -0.296 N 
ATOM      2  N   UNL     1      34.123  -5.871 -25.951  0.00  0.00    -0.233 NA
ATOM      3  N   UNL     1      31.581  -2.765 -26.406  0.00  0.00    -0.300 N 
ATOM      4  N   UNL     1      33.559  -3.875 -27.224  0.00  0.00    -0.233 NA
ATOM      5  C   UNL     1      32.423  -8.694 -22.036  0.00  0.00    +0.002 C 
ATOM      6  C   UNL     1      31.260  -7.872 -22.660  0.00  0.00    +0.023 C 
ATOM      7  C   UNL     1      33.655  -7.745 -22.071  0.00  0.00    +0.023 C 
ATOM      8  C   UNL     1      31.565  -7.365 -24.073  0.00  0.00    +0.092 C 
ATOM      9  C   UNL     1      33.991  -7.266 -23.484  0.00  0.00    +0.092 C 
ATOM     10  C   UNL     1      33.061  -5.701 -25.131  0.00  0.00    +0.116 C 
ATOM     11  C   UNL     1      32.210  -4.614 -25.326  0.00  0.00    +0.131 C 
ATOM     12  C   UNL     1      32.522  -3.760 -26.377  0.00  0.00    +0.117 C 
ATOM     13  C   UNL     1      31.038  -4.103 -24.712  0.00  0.00    +0.004 C 
ATOM     14  C   UNL     1      34.304  -4.961 -26.933  0.00  0.00    +0.252 C 
ATOM     15  C   UNL     1      30.674  -2.964 -25.398  0.00  0.00    +0.059 C 
ATOM     16  H   UNL     1      31.559  -2.022 -27.052  0.00  0.00    +0.153 HD
ENDROOT
BRANCH   5  18
ATOM     17 CL   UNL     1      33.454 -14.043 -24.673  0.00  0.00    -0.082 Cl
ATOM     18  C   UNL     1      32.686 -10.056 -22.708  0.00  0.00    -0.025 C 
ATOM     19  C   UNL     1      33.590 -10.149 -23.765  0.00  0.00    -0.003 C 
ATOM     20  C   UNL     1      32.019 -11.196 -22.257  0.00  0.00    -0.003 C 
ATOM     21  C   UNL     1      33.828 -11.382 -24.373  0.00  0.00    +0.011 C 
ATOM     22  C   UNL     1      32.257 -12.429 -22.865  0.00  0.00    +0.011 C 
ATOM     23  C   UNL     1      33.162 -12.522 -23.923  0.00  0.00    +0.058 C 
ENDBRANCH   5  18
BRANCH   5  24
ATOM     24  C   UNL     1      32.065  -8.984 -20.561  0.00  0.00    -0.082 C 
BRANCH  24  25
ATOM     25  N   UNL     1      32.810  -8.110 -19.671  0.00  0.00    +0.381 N 
ATOM     26  H   UNL     1      32.308  -8.016 -18.789  0.00  0.00    -0.089 HD
ATOM     27  H   UNL     1      32.914  -7.192 -20.103  0.00  0.00    -0.089 HD
ATOM     28  H   UNL     1      33.732  -8.510 -19.496  0.00  0.00    -0.089 HD
ENDBRANCH  24  25
ENDBRANCH   5  24
TORSDOF 3
ENDMDL
MODEL 3
REMARK VINA RESULT:      -8.1      4.169      7.910
REMARK  Name = 24762195
REMARK  3 active torsions:
REMARK  status: ('A' for Active; 'I' for Inactive)
REMARK    1  A    between atoms: C_5  and  C_18
REMARK    2  A    between atoms: C_5  and  C_24
REMARK    3  A    between atoms: C_24  and  N_25
REMARK                            x       y       z     vdW  Elec       q    Type
REMARK                         _______ _______ _______ _____ _____    ______ ____
ROOT
ATOM      1  N   UNL     1      32.695 -11.432 -22.980  0.00  0.00    -0.296 N 
ATOM      2  N   UNL     1      32.048 -10.589 -20.848  0.00  0.00    -0.233 NA
ATOM      3  N   UNL     1      32.817  -6.846 -22.161  0.00  0.00    -0.300 N 
ATOM      4  N   UNL     1      32.077  -8.213 -20.318  0.00  0.00    -0.233 NA
ATOM      5  C   UNL     1      33.163 -13.818 -24.658  0.00  0.00    +0.002 C 
ATOM      6  C   UNL     1      33.954 -12.489 -24.821  0.00  0.00    +0.023 C 
ATOM      7  C   UNL     1      31.759 -13.393 -24.140  0.00  0.00    +0.023 C 
ATOM      8  C   UNL     1      34.033 -11.667 -23.530  0.00  0.00    +0.092 C 
ATOM      9  C   UNL     1      31.827 -12.606 -22.830  0.00  0.00    +0.092 C 
ATOM     10  C   UNL     1      32.492 -10.357 -22.105  0.00  0.00    +0.116 C 
ATOM     11  C   UNL     1      32.745  -9.049 -22.514  0.00  0.00    +0.131 C 
ATOM     12  C   UNL     1      32.516  -8.048 -21.578  0.00  0.00    +0.117 C 
ATOM     13  C   UNL     1      33.199  -8.411 -23.697  0.00  0.00    +0.004 C 
ATOM     14  C   UNL     1      31.870  -9.517 -20.043  0.00  0.00    +0.252 C 
ATOM     15  C   UNL     1      33.234  -7.055 -23.450  0.00  0.00    +0.059 C 
ATOM     16  H   UNL     1      32.746  -5.967 -21.722  0.00  0.00    +0.153 HD
ENDROOT
BRANCH   5  18
ATOM     17 CL   UNL     1      35.845 -17.960 -21.154  0.00  0.00    -0.082 Cl
ATOM     18  C   UNL     1      33.846 -14.873 -23.765  0.00  0.00    -0.025 C 
ATOM     19  C   UNL     1      33.950 -14.661 -22.391  0.00  0.00    -0.003 C 
ATOM     20  C   UNL     1      34.359 -16.039 -24.333  0.00  0.00    -0.003 C 
ATOM     21  C   UNL     1      34.569 -15.616 -21.583  0.00  0.00    +0.011 C 
ATOM     22  C   UNL     1      34.978 -16.994 -23.525  0.00  0.00    +0.011 C 
ATOM     23  C   UNL     1      35.082 -16.782 -22.150  0.00  0.00    +0.058 C 
ENDBRANCH   5  18
BRANCH   5  24
ATOM     24  C   UNL     1      33.001 -14.453 -26.057  0.00  0.00    -0.082 C 
BRANCH  24  25
ATOM     25  N   UNL     1      33.349 -13.499 -27.097  0.00  0.00    +0.381 N 
ATOM     26  H   UNL     1      33.508 -13.996 -27.973  0.00  0.00    -0.089 HD
ATOM     27  H   UNL     1      34.197 -12.999 -26.830  0.00  0.00    -0.089 HD
ATOM     28  H   UNL     1      32.585 -12.834 -27.217  0.00  0.00    -0.089 HD
ENDBRANCH  24  25
ENDBRANCH   5  24
TORSDOF 3
ENDMDL
MODEL 4
REMARK VINA RESULT:      -7.3      3.847      6.280
REMARK  Name = 24762195
REMARK  3 active torsions:
REMARK  status: ('A' for Active; 'I' for Inactive)
REMARK    1  A    between atoms: C_5  and  C_18
REMARK    2  A    between atoms: C_5  and  C_24
REMARK    3  A    between atoms: C_24  and  N_25
REMARK                            x       y       z     vdW  Elec       q    Type
REMARK                         _______ _______ _______ _____ _____    ______ ____
ROOT
ATOM      1  N   UNL     1      33.220 -14.385 -22.868  0.00  0.00    -0.296 N 
ATOM      2  N   UNL     1      34.111 -15.521 -24.763  0.00  0.00    -0.233 NA
ATOM      3  N   UNL     1      35.121 -18.610 -22.363  0.00  0.00    -0.300 N 
ATOM      4  N   UNL     1      35.125 -17.728 -24.607  0.00  0.00    -0.233 NA
ATOM      5  C   UNL     1      31.975 -11.918 -21.823  0.00  0.00    +0.002 C 
ATOM      6  C   UNL     1      32.905 -12.832 -20.976  0.00  0.00    +0.023 C 
ATOM      7  C   UNL     1      31.275 -12.875 -22.830  0.00  0.00    +0.023 C 
ATOM      8  C   UNL     1      33.908 -13.626 -21.819  0.00  0.00    +0.092 C 
ATOM      9  C   UNL     1      32.268 -13.643 -23.704  0.00  0.00    +0.092 C 
ATOM     10  C   UNL     1      33.852 -15.499 -23.435  0.00  0.00    +0.116 C 
ATOM     11  C   UNL     1      34.219 -16.588 -22.646  0.00  0.00    +0.131 C 
ATOM     12  C   UNL     1      34.841 -17.647 -23.296  0.00  0.00    +0.117 C 
ATOM     13  C   UNL     1      34.129 -16.940 -21.275  0.00  0.00    +0.004 C 
ATOM     14  C   UNL     1      34.723 -16.619 -25.260  0.00  0.00    +0.252 C 
ATOM     15  C   UNL     1      34.692 -18.190 -21.130  0.00  0.00    +0.059 C 
ATOM     16  H   UNL     1      35.563 -19.470 -22.548  0.00  0.00    +0.153 HD
ENDROOT
BRANCH   5  18
ATOM     17 CL   UNL     1      34.747  -7.252 -24.501  0.00  0.00    -0.082 Cl
ATOM     18  C   UNL     1      32.682 -10.730 -22.506  0.00  0.00    -0.025 C 
ATOM     19  C   UNL     1      33.552 -10.955 -23.571  0.00  0.00    -0.003 C 
ATOM     20  C   UNL     1      32.449  -9.429 -22.056  0.00  0.00    -0.003 C 
ATOM     21  C   UNL     1      34.191  -9.879 -24.189  0.00  0.00    +0.011 C 
ATOM     22  C   UNL     1      33.088  -8.354 -22.674  0.00  0.00    +0.011 C 
ATOM     23  C   UNL     1      33.959  -8.579 -23.740  0.00  0.00    +0.058 C 
ENDBRANCH   5  18
BRANCH   5  24
ATOM     24  C   UNL     1      30.904 -11.322 -20.882  0.00  0.00    -0.082 C 
BRANCH  24  25
ATOM     25  N   UNL     1      31.345 -11.384 -19.499  0.00  0.00    +0.381 N 
ATOM     26  H   UNL     1      31.490 -10.438 -19.147  0.00  0.00    -0.089 HD
ATOM     27  H   UNL     1      32.220 -11.905 -19.443  0.00  0.00    -0.089 HD
ATOM     28  H   UNL     1      30.634 -11.851 -18.936  0.00  0.00    -0.089 HD
ENDBRANCH  24  25
ENDBRANCH   5  24
TORSDOF 3
ENDMDL
MODEL 5
REMARK VINA RESULT:      -7.1      4.798      7.132
REMARK  Name = 24762195
REMARK  3 active torsions:
REMARK  status: ('A' for Active; 'I' for Inactive)
REMARK    1  A    between atoms: C_5  and  C_18
REMARK    2  A    between atoms: C_5  and  C_24
REMARK    3  A    between atoms: C_24  and  N_25
REMARK                            x       y       z     vdW  Elec       q    Type
REMARK                         _______ _______ _______ _____ _____    ______ ____
ROOT
ATOM      1  N   UNL     1      33.735 -15.458 -23.517  0.00  0.00    -0.296 N 
ATOM      2  N   UNL     1      34.355 -17.160 -25.064  0.00  0.00    -0.233 NA
ATOM      3  N   UNL     1      35.039 -19.651 -21.957  0.00  0.00    -0.300 N 
ATOM      4  N   UNL     1      35.052 -19.381 -24.354  0.00  0.00    -0.233 NA
ATOM      5  C   UNL     1      32.909 -12.647 -23.132  0.00  0.00    +0.002 C 
ATOM      6  C   UNL     1      33.743 -13.444 -22.089  0.00  0.00    +0.023 C 
ATOM      7  C   UNL     1      32.029 -13.712 -23.846  0.00  0.00    +0.023 C 
ATOM      8  C   UNL     1      34.577 -14.569 -22.711  0.00  0.00    +0.092 C 
ATOM      9  C   UNL     1      32.856 -14.817 -24.504  0.00  0.00    +0.092 C 
ATOM     10  C   UNL     1      34.171 -16.761 -23.784  0.00  0.00    +0.116 C 
ATOM     11  C   UNL     1      34.420 -17.656 -22.744  0.00  0.00    +0.131 C 
ATOM     12  C   UNL     1      34.850 -18.926 -23.105  0.00  0.00    +0.117 C 
ATOM     13  C   UNL     1      34.352 -17.629 -21.327  0.00  0.00    +0.004 C 
ATOM     14  C   UNL     1      34.778 -18.427 -25.267  0.00  0.00    +0.252 C 
ATOM     15  C   UNL     1      34.739 -18.871 -20.870  0.00  0.00    +0.059 C 
ATOM     16  H   UNL     1      35.343 -20.586 -21.919  0.00  0.00    +0.153 HD
ENDROOT
BRANCH   5  18
ATOM     17 CL   UNL     1      36.175  -9.293 -26.968  0.00  0.00    -0.082 Cl
ATOM     18  C   UNL     1      33.741 -11.793 -24.109  0.00  0.00    -0.025 C 
ATOM     19  C   UNL     1      34.275 -10.575 -23.689  0.00  0.00    -0.003 C 
ATOM     20  C   UNL     1      33.960 -12.238 -25.413  0.00  0.00    -0.003 C 
ATOM     21  C   UNL     1      35.028  -9.802 -24.573  0.00  0.00    +0.011 C 
ATOM     22  C   UNL     1      34.713 -11.465 -26.297  0.00  0.00    +0.011 C 
ATOM     23  C   UNL     1      35.247 -10.247 -25.876  0.00  0.00    +0.058 C 
ENDBRANCH   5  18
BRANCH   5  24
ATOM     24  C   UNL     1      31.985 -11.677 -22.363  0.00  0.00    -0.082 C 
BRANCH  24  25
ATOM     25  N   UNL     1      31.762 -12.146 -21.007  0.00  0.00    +0.381 N 
ATOM     26  H   UNL     1      31.803 -11.356 -20.363  0.00  0.00    -0.089 HD
ATOM     27  H   UNL     1      32.482 -12.824 -20.758  0.00  0.00    -0.089 HD
ATOM     28  H   UNL     1      30.844 -12.587 -20.946  0.00  0.00    -0.089 HD
ENDBRANCH  24  25
ENDBRANCH   5  24
TORSDOF 3
ENDMDL
MODEL 6
REMARK VINA RESULT:      -6.6     16.153     19.285
REMARK  Name = 24762195
REMARK  3 active torsions:
REMARK  status: ('A' for Active; 'I' for Inactive)
REMARK    1  A    between atoms: C_5  and  C_18
REMARK    2  A    between atoms: C_5  and  C_24
REMARK    3  A    between atoms: C_24  and  N_25
REMARK                            x       y       z     vdW  Elec       q    Type
REMARK                         _______ _______ _______ _____ _____    ______ ____
ROOT
ATOM      1  N   UNL     1      34.942 -23.338 -15.086  0.00  0.00    -0.296 N 
ATOM      2  N   UNL     1      34.895 -22.726 -17.388  0.00  0.00    -0.233 NA
ATOM      3  N   UNL     1      30.864 -22.999 -17.316  0.00  0.00    -0.300 N 
ATOM      4  N   UNL     1      32.820 -22.523 -18.645  0.00  0.00    -0.233 NA
ATOM      5  C   UNL     1      36.607 -23.969 -12.729  0.00  0.00    +0.002 C 
ATOM      6  C   UNL     1      35.207 -24.597 -12.980  0.00  0.00    +0.023 C 
ATOM      7  C   UNL     1      36.541 -22.559 -13.383  0.00  0.00    +0.023 C 
ATOM      8  C   UNL     1      34.827 -24.660 -14.463  0.00  0.00    +0.092 C 
ATOM      9  C   UNL     1      36.202 -22.615 -14.873  0.00  0.00    +0.092 C 
ATOM     10  C   UNL     1      34.228 -23.068 -16.261  0.00  0.00    +0.116 C 
ATOM     11  C   UNL     1      32.837 -23.151 -16.284  0.00  0.00    +0.131 C 
ATOM     12  C   UNL     1      32.216 -22.867 -17.494  0.00  0.00    +0.117 C 
ATOM     13  C   UNL     1      31.811 -23.463 -15.355  0.00  0.00    +0.004 C 
ATOM     14  C   UNL     1      34.159 -22.478 -18.495  0.00  0.00    +0.252 C 
ATOM     15  C   UNL     1      30.607 -23.361 -16.020  0.00  0.00    +0.059 C 
ATOM     16  H   UNL     1      30.183 -22.857 -18.013  0.00  0.00    +0.153 HD
ENDROOT
BRANCH   5  18
ATOM     17 CL   UNL     1      41.273 -27.291 -14.683  0.00  0.00    -0.082 Cl
ATOM     18  C   UNL     1      37.795 -24.815 -13.226  0.00  0.00    -0.025 C 
ATOM     19  C   UNL     1      37.565 -26.038 -13.856  0.00  0.00    -0.003 C 
ATOM     20  C   UNL     1      39.101 -24.357 -13.048  0.00  0.00    -0.003 C 
ATOM     21  C   UNL     1      38.640 -26.804 -14.306  0.00  0.00    +0.011 C 
ATOM     22  C   UNL     1      40.176 -25.122 -13.498  0.00  0.00    +0.011 C 
ATOM     23  C   UNL     1      39.946 -26.346 -14.128  0.00  0.00    +0.058 C 
ENDBRANCH   5  18
BRANCH   5  24
ATOM     24  C   UNL     1      36.787 -23.797 -11.204  0.00  0.00    -0.082 C 
BRANCH  24  25
ATOM     25  N   UNL     1      35.649 -24.349 -10.488  0.00  0.00    +0.381 N 
ATOM     26  H   UNL     1      34.918 -24.600 -11.154  0.00  0.00    -0.089 HD
ATOM     27  H   UNL     1      35.289 -23.656  -9.833  0.00  0.00    -0.089 HD
ATOM     28  H   UNL     1      35.942 -25.181  -9.975  0.00  0.00    -0.089 HD
ENDBRANCH  24  25
ENDBRANCH   5  24
TORSDOF 3
ENDMDL
MODEL 7
REMARK VINA RESULT:      -6.6     14.652     18.861
REMARK  Name = 24762195
REMARK  3 active torsions:
REMARK  status: ('A' for Active; 'I' for Inactive)
REMARK    1  A    between atoms: C_5  and  C_18
REMARK    2  A    between atoms: C_5  and  C_24
REMARK    3  A    between atoms: C_24  and  N_25
REMARK                            x       y       z     vdW  Elec       q    Type
REMARK                         _______ _______ _______ _____ _____    ______ ____
ROOT
ATOM      1  N   UNL     1      35.709 -23.394 -16.514  0.00  0.00    -0.296 N 
ATOM      2  N   UNL     1      33.419 -23.119 -17.111  0.00  0.00    -0.233 NA
ATOM      3  N   UNL     1      34.567 -20.769 -20.191  0.00  0.00    -0.300 N 
ATOM      4  N   UNL     1      32.717 -21.770 -19.011  0.00  0.00    -0.233 NA
ATOM      5  C   UNL     1      37.645 -24.537 -14.597  0.00  0.00    +0.002 C 
ATOM      6  C   UNL     1      37.894 -23.216 -15.378  0.00  0.00    +0.023 C 
ATOM      7  C   UNL     1      36.750 -25.399 -15.533  0.00  0.00    +0.023 C 
ATOM      8  C   UNL     1      36.602 -22.494 -15.777  0.00  0.00    +0.092 C 
ATOM      9  C   UNL     1      35.440 -24.702 -15.904  0.00  0.00    +0.092 C 
ATOM     10  C   UNL     1      34.724 -22.851 -17.349  0.00  0.00    +0.116 C 
ATOM     11  C   UNL     1      35.073 -22.034 -18.423  0.00  0.00    +0.131 C 
ATOM     12  C   UNL     1      34.028 -21.541 -19.195  0.00  0.00    +0.117 C 
ATOM     13  C   UNL     1      36.275 -21.534 -18.986  0.00  0.00    +0.004 C 
ATOM     14  C   UNL     1      32.509 -22.569 -17.945  0.00  0.00    +0.252 C 
ATOM     15  C   UNL     1      35.932 -20.759 -20.073  0.00  0.00    +0.059 C 
ATOM     16  H   UNL     1      34.052 -20.296 -20.884  0.00  0.00    +0.153 HD
ENDROOT
BRANCH   5  18
ATOM     17 CL   UNL     1      35.306 -23.816  -9.062  0.00  0.00    -0.082 Cl
ATOM     18  C   UNL     1      37.049 -24.353 -13.187  0.00  0.00    -0.025 C 
ATOM     19  C   UNL     1      37.509 -23.326 -12.365  0.00  0.00    -0.003 C 
ATOM     20  C   UNL     1      36.050 -25.215 -12.735  0.00  0.00    -0.003 C 
ATOM     21  C   UNL     1      36.970 -23.159 -11.089  0.00  0.00    +0.011 C 
ATOM     22  C   UNL     1      35.510 -25.049 -11.459  0.00  0.00    +0.011 C 
ATOM     23  C   UNL     1      35.971 -24.020 -10.636  0.00  0.00    +0.058 C 
ENDBRANCH   5  18
BRANCH   5  24
ATOM     24  C   UNL     1      39.004 -25.251 -14.420  0.00  0.00    -0.082 C 
BRANCH  24  25
ATOM     25  N   UNL     1      39.796 -25.155 -15.634  0.00  0.00    +0.381 N 
ATOM     26  H   UNL     1      40.377 -25.989 -15.726  0.00  0.00    -0.089 HD
ATOM     27  H   UNL     1      40.391 -24.329 -15.589  0.00  0.00    -0.089 HD
ATOM     28  H   UNL     1      39.174 -25.084 -16.440  0.00  0.00    -0.089 HD
ENDBRANCH  24  25
ENDBRANCH   5  24
TORSDOF 3
ENDMDL
MODEL 8
REMARK VINA RESULT:      -6.5     16.091     17.843
REMARK  Name = 24762195
REMARK  3 active torsions:
REMARK  status: ('A' for Active; 'I' for Inactive)
REMARK    1  A    between atoms: C_5  and  C_18
REMARK    2  A    between atoms: C_5  and  C_24
REMARK    3  A    between atoms: C_24  and  N_25
REMARK                            x       y       z     vdW  Elec       q    Type
REMARK                         _______ _______ _______ _____ _____    ______ ____
ROOT
ATOM      1  N   UNL     1      32.390 -23.606 -16.006  0.00  0.00    -0.296 N 
ATOM      2  N   UNL     1      33.678 -22.945 -17.898  0.00  0.00    -0.233 NA
ATOM      3  N   UNL     1      36.879 -22.475 -15.478  0.00  0.00    -0.300 N 
ATOM      4  N   UNL     1      36.028 -22.334 -17.730  0.00  0.00    -0.233 NA
ATOM      5  C   UNL     1      29.735 -24.389 -14.974  0.00  0.00    +0.002 C 
ATOM      6  C   UNL     1      30.792 -23.627 -14.125  0.00  0.00    +0.023 C 
ATOM      7  C   UNL     1      30.560 -25.255 -15.967  0.00  0.00    +0.023 C 
ATOM      8  C   UNL     1      31.757 -22.787 -14.969  0.00  0.00    +0.092 C 
ATOM      9  C   UNL     1      31.497 -24.419 -16.842  0.00  0.00    +0.092 C 
ATOM     10  C   UNL     1      33.602 -23.185 -16.568  0.00  0.00    +0.116 C 
ATOM     11  C   UNL     1      34.732 -23.009 -15.773  0.00  0.00    +0.131 C 
ATOM     12  C   UNL     1      35.889 -22.588 -16.418  0.00  0.00    +0.117 C 
ATOM     13  C   UNL     1      35.053 -23.149 -14.398  0.00  0.00    +0.004 C 
ATOM     14  C   UNL     1      34.870 -22.540 -18.390  0.00  0.00    +0.252 C 
ATOM     15  C   UNL     1      36.382 -22.813 -14.246  0.00  0.00    +0.059 C 
ATOM     16  H   UNL     1      37.805 -22.193 -15.660  0.00  0.00    +0.153 HD
ENDROOT
BRANCH   5  18
ATOM     17 CL   UNL     1      25.649 -20.859 -17.708  0.00  0.00    -0.082 Cl
ATOM     18  C   UNL     1      28.694 -23.489 -15.671  0.00  0.00    -0.025 C 
ATOM     19  C   UNL     1      28.505 -23.582 -17.049  0.00  0.00    -0.003 C 
ATOM     20  C   UNL     1      27.942 -22.584 -14.922  0.00  0.00    -0.003 C 
ATOM     21  C   UNL     1      27.563 -22.768 -17.679  0.00  0.00    +0.011 C 
ATOM     22  C   UNL     1      27.000 -21.771 -15.552  0.00  0.00    +0.011 C 
ATOM     23  C   UNL     1      26.811 -21.863 -16.931  0.00  0.00    +0.058 C 
ENDBRANCH   5  18
BRANCH   5  24
ATOM     24  C   UNL     1      28.953 -25.330 -14.030  0.00  0.00    -0.082 C 
BRANCH  24  25
ATOM     25  N   UNL     1      28.620 -26.572 -14.706  0.00  0.00    +0.381 N 
ATOM     26  H   UNL     1      27.607 -26.694 -14.712  0.00  0.00    -0.089 HD
ATOM     27  H   UNL     1      29.054 -27.354 -14.216  0.00  0.00    -0.089 HD
ATOM     28  H   UNL     1      28.963 -26.539 -15.666  0.00  0.00    -0.089 HD
ENDBRANCH  24  25
ENDBRANCH   5  24
TORSDOF 3
ENDMDL
MODEL 9
REMARK VINA RESULT:      -6.4     14.346     17.368
REMARK  Name = 24762195
REMARK  3 active torsions:
REMARK  status: ('A' for Active; 'I' for Inactive)
REMARK    1  A    between atoms: C_5  and  C_18
REMARK    2  A    between atoms: C_5  and  C_24
REMARK    3  A    between atoms: C_24  and  N_25
REMARK                            x       y       z     vdW  Elec       q    Type
REMARK                         _______ _______ _______ _____ _____    ______ ____
ROOT
ATOM      1  N   UNL     1      35.459 -23.876 -15.174  0.00  0.00    -0.296 N 
ATOM      2  N   UNL     1      37.741 -24.561 -15.154  0.00  0.00    -0.233 NA
ATOM      3  N   UNL     1      37.731 -24.271 -11.124  0.00  0.00    -0.300 N 
ATOM      4  N   UNL     1      39.017 -24.797 -13.095  0.00  0.00    -0.233 NA
ATOM      5  C   UNL     1      33.102 -23.175 -16.810  0.00  0.00    +0.002 C 
ATOM      6  C   UNL     1      33.391 -22.550 -15.416  0.00  0.00    +0.023 C 
ATOM      7  C   UNL     1      33.711 -24.605 -16.748  0.00  0.00    +0.023 C 
ATOM      8  C   UNL     1      34.880 -22.534 -15.056  0.00  0.00    +0.092 C 
ATOM      9  C   UNL     1      35.207 -24.596 -16.428  0.00  0.00    +0.092 C 
ATOM     10  C   UNL     1      36.634 -24.180 -14.475  0.00  0.00    +0.116 C 
ATOM     11  C   UNL     1      36.678 -24.094 -13.084  0.00  0.00    +0.131 C 
ATOM     12  C   UNL     1      37.886 -24.414 -12.478  0.00  0.00    +0.117 C 
ATOM     13  C   UNL     1      35.774 -23.748 -12.047  0.00  0.00    +0.004 C 
ATOM     14  C   UNL     1      38.848 -24.842 -14.432  0.00  0.00    +0.252 C 
ATOM     15  C   UNL     1      36.450 -23.867 -10.851  0.00  0.00    +0.059 C 
ATOM     16  H   UNL     1      38.431 -24.434 -10.451  0.00  0.00    +0.153 HD
ENDROOT
BRANCH   5  18
ATOM     17 CL   UNL     1      35.101 -19.933 -21.514  0.00  0.00    -0.082 Cl
ATOM     18  C   UNL     1      33.611 -22.350 -18.008  0.00  0.00    -0.025 C 
ATOM     19  C   UNL     1      32.705 -21.660 -18.815  0.00  0.00    -0.003 C 
ATOM     20  C   UNL     1      34.977 -22.291 -18.285  0.00  0.00    -0.003 C 
ATOM     21  C   UNL     1      33.166 -20.913 -19.899  0.00  0.00    +0.011 C 
ATOM     22  C   UNL     1      35.438 -21.544 -19.369  0.00  0.00    +0.011 C 
ATOM     23  C   UNL     1      34.532 -20.854 -20.176  0.00  0.00    +0.058 C 
ENDBRANCH   5  18
BRANCH   5  24
ATOM     24  C   UNL     1      31.569 -23.298 -16.970  0.00  0.00    -0.082 C 
BRANCH  24  25
ATOM     25  N   UNL     1      30.893 -22.897 -15.748  0.00  0.00    +0.381 N 
ATOM     26  H   UNL     1      30.110 -23.526 -15.572  0.00  0.00    -0.089 HD
ATOM     27  H   UNL     1      30.546 -21.943 -15.848  0.00  0.00    -0.089 HD
ATOM     28  H   UNL     1      31.547 -22.941 -14.967  0.00  0.00    -0.089 HD
ENDBRANCH  24  25
ENDBRANCH   5  24
TORSDOF 3
ENDMDL
