MODEL 1
REMARK VINA RESULT:      -7.3      0.000      0.000
REMARK  Name = 67532
REMARK  6 active torsions:
REMARK  status: ('A' for Active; 'I' for Inactive)
REMARK    1  A    between atoms: C_1  and  C_4
REMARK    2  A    between atoms: C_1  and  CA_12
REMARK    3  A    between atoms: C_9  and  O_10
REMARK    4  A    between atoms: CA_12  and  N_13
REMARK    5  A    between atoms: CA_12  and  C_18
REMARK    6  A    between atoms: C_18  and  O_19
REMARK                            x       y       z     vdW  Elec       q    Type
REMARK                         _______ _______ _______ _____ _____    ______ ____
ROOT
ATOM      1  C   UNL     1      29.907 -22.741 -15.032  0.00  0.00    +0.015 C 
ENDROOT
BRANCH   1   4
ATOM      2 BR   UNL     1      34.706 -24.232 -13.249  0.00  0.00    -0.046 Br
ATOM      3 BR   UNL     1      33.746 -22.820 -18.733  0.00  0.00    -0.046 Br
ATOM      4  C   UNL     1      31.352 -23.005 -15.353  0.00  0.00    -0.023 C 
ATOM      5  C   UNL     1      31.808 -22.828 -16.653  0.00  0.00    +0.005 C 
ATOM      6  C   UNL     1      32.214 -23.421 -14.346  0.00  0.00    +0.005 C 
ATOM      7  C   UNL     1      33.554 -23.665 -14.644  0.00  0.00    +0.068 C 
ATOM      8  C   UNL     1      33.150 -23.072 -16.951  0.00  0.00    +0.068 C 
ATOM      9  C   UNL     1      34.022 -23.490 -15.946  0.00  0.00    +0.146 C 
BRANCH   9  10
ATOM     10  O   UNL     1      35.335 -23.727 -16.237  0.00  0.00    -0.505 OA
ATOM     11  H   UNL     1      35.567 -24.144 -17.044  0.00  0.00    +0.292 HD
ENDBRANCH   9  10
ENDBRANCH   1   4
BRANCH   1  12
ATOM     12  CA  UNL     1      28.956 -23.822 -15.566  0.00  0.00    +0.040 C 
BRANCH  12  13
ATOM     13  N   UNL     1      29.720 -25.028 -15.892  0.00  0.00    +0.389 N 
ATOM     14  H1  UNL     1      30.476 -25.144 -15.217  0.00  0.00    -0.088 HD
ATOM     15  H2  UNL     1      30.112 -24.940 -16.829  0.00  0.00    -0.088 HD
ATOM     16  H3  UNL     1      29.105 -25.841 -15.856  0.00  0.00    -0.088 HD
ENDBRANCH  12  13
BRANCH  12  18
ATOM     17  OXT UNL     1      27.669 -24.107 -17.620  0.00  0.00    -0.253 OA
ATOM     18  C   UNL     1      28.279 -23.373 -16.852  0.00  0.00    +0.293 C 
BRANCH  18  19
ATOM     19  O   UNL     1      28.395 -22.035 -17.054  0.00  0.00    -0.482 OA
ATOM     20  H   UNL     1      28.306 -21.682 -17.917  0.00  0.00    +0.295 HD
ENDBRANCH  18  19
ENDBRANCH  12  18
ENDBRANCH   1  12
TORSDOF 6
ENDMDL
MODEL 2
REMARK VINA RESULT:      -7.3      0.015      2.440
REMARK  Name = 67532
REMARK  6 active torsions:
REMARK  status: ('A' for Active; 'I' for Inactive)
REMARK    1  A    between atoms: C_1  and  C_4
REMARK    2  A    between atoms: C_1  and  CA_12
REMARK    3  A    between atoms: C_9  and  O_10
REMARK    4  A    between atoms: CA_12  and  N_13
REMARK    5  A    between atoms: CA_12  and  C_18
REMARK    6  A    between atoms: C_18  and  O_19
REMARK                            x       y       z     vdW  Elec       q    Type
REMARK                         _______ _______ _______ _____ _____    ______ ____
ROOT
ATOM      1  C   UNL     1      29.911 -22.738 -15.027  0.00  0.00    +0.015 C 
ENDROOT
BRANCH   1   4
ATOM      2 BR   UNL     1      33.744 -22.858 -18.734  0.00  0.00    -0.046 Br
ATOM      3 BR   UNL     1      34.710 -24.221 -13.238  0.00  0.00    -0.046 Br
ATOM      4  C   UNL     1      31.355 -23.005 -15.348  0.00  0.00    -0.023 C 
ATOM      5  C   UNL     1      32.217 -23.413 -14.338  0.00  0.00    +0.005 C 
ATOM      6  C   UNL     1      31.811 -22.842 -16.650  0.00  0.00    +0.005 C 
ATOM      7  C   UNL     1      33.151 -23.090 -16.947  0.00  0.00    +0.068 C 
ATOM      8  C   UNL     1      33.557 -23.662 -14.635  0.00  0.00    +0.068 C 
ATOM      9  C   UNL     1      34.023 -23.501 -15.940  0.00  0.00    +0.146 C 
BRANCH   9  10
ATOM     10  O   UNL     1      35.335 -23.746 -16.231  0.00  0.00    -0.505 OA
ATOM     11  H   UNL     1      35.559 -24.265 -16.979  0.00  0.00    +0.292 HD
ENDBRANCH   9  10
ENDBRANCH   1   4
BRANCH   1  12
ATOM     12  CA  UNL     1      28.957 -23.818 -15.559  0.00  0.00    +0.040 C 
BRANCH  12  13
ATOM     13  N   UNL     1      29.719 -25.027 -15.881  0.00  0.00    +0.389 N 
ATOM     14  H1  UNL     1      30.624 -24.993 -15.412  0.00  0.00    -0.088 HD
ATOM     15  H2  UNL     1      29.860 -25.082 -16.889  0.00  0.00    -0.088 HD
ATOM     16  H3  UNL     1      29.204 -25.849 -15.564  0.00  0.00    -0.088 HD
ENDBRANCH  12  13
BRANCH  12  18
ATOM     17  OXT UNL     1      27.676 -24.106 -17.615  0.00  0.00    -0.253 OA
ATOM     18  C   UNL     1      28.282 -23.371 -16.845  0.00  0.00    +0.293 C 
BRANCH  18  19
ATOM     19  O   UNL     1      28.394 -22.032 -17.047  0.00  0.00    -0.482 OA
ATOM     20  H   UNL     1      28.750 -21.486 -16.374  0.00  0.00    +0.295 HD
ENDBRANCH  18  19
ENDBRANCH  12  18
ENDBRANCH   1  12
TORSDOF 6
ENDMDL
MODEL 3
REMARK VINA RESULT:      -7.2      3.231      6.578
REMARK  Name = 67532
REMARK  6 active torsions:
REMARK  status: ('A' for Active; 'I' for Inactive)
REMARK    1  A    between atoms: C_1  and  C_4
REMARK    2  A    between atoms: C_1  and  CA_12
REMARK    3  A    between atoms: C_9  and  O_10
REMARK    4  A    between atoms: CA_12  and  N_13
REMARK    5  A    between atoms: CA_12  and  C_18
REMARK    6  A    between atoms: C_18  and  O_19
REMARK                            x       y       z     vdW  Elec       q    Type
REMARK                         _______ _______ _______ _____ _____    ______ ____
ROOT
ATOM      1  C   UNL     1      35.776 -24.552 -14.238  0.00  0.00    +0.015 C 
ENDROOT
BRANCH   1   4
ATOM      2 BR   UNL     1      33.837 -22.501 -18.764  0.00  0.00    -0.046 Br
ATOM      3 BR   UNL     1      30.519 -23.657 -14.220  0.00  0.00    -0.046 Br
ATOM      4  C   UNL     1      34.572 -24.060 -14.994  0.00  0.00    -0.023 C 
ATOM      5  C   UNL     1      33.325 -24.079 -14.381  0.00  0.00    +0.005 C 
ATOM      6  C   UNL     1      34.720 -23.591 -16.292  0.00  0.00    +0.005 C 
ATOM      7  C   UNL     1      33.603 -23.135 -16.992  0.00  0.00    +0.068 C 
ATOM      8  C   UNL     1      32.208 -23.622 -15.081  0.00  0.00    +0.068 C 
ATOM      9  C   UNL     1      32.348 -23.150 -16.386  0.00  0.00    +0.146 C 
BRANCH   9  10
ATOM     10  O   UNL     1      31.254 -22.701 -17.070  0.00  0.00    -0.505 OA
ATOM     11  H   UNL     1      30.767 -21.969 -16.744  0.00  0.00    +0.292 HD
ENDBRANCH   9  10
ENDBRANCH   1   4
BRANCH   1  12
ATOM     12  CA  UNL     1      36.674 -25.486 -15.063  0.00  0.00    +0.040 C 
BRANCH  12  13
ATOM     13  N   UNL     1      36.169 -26.857 -14.969  0.00  0.00    +0.389 N 
ATOM     14  H1  UNL     1      36.776 -27.402 -14.356  0.00  0.00    -0.088 HD
ATOM     15  H2  UNL     1      36.156 -27.280 -15.897  0.00  0.00    -0.088 HD
ATOM     16  H3  UNL     1      35.223 -26.847 -14.588  0.00  0.00    -0.088 HD
ENDBRANCH  12  13
BRANCH  12  18
ATOM     17  OXT UNL     1      38.660 -24.554 -13.995  0.00  0.00    -0.253 OA
ATOM     18  C   UNL     1      38.094 -25.505 -14.519  0.00  0.00    +0.293 C 
BRANCH  18  19
ATOM     19  O   UNL     1      38.678 -26.725 -14.649  0.00  0.00    -0.482 OA
ATOM     20  H   UNL     1      38.526 -27.388 -14.005  0.00  0.00    +0.295 HD
ENDBRANCH  18  19
ENDBRANCH  12  18
ENDBRANCH   1  12
TORSDOF 6
ENDMDL
MODEL 4
REMARK VINA RESULT:      -7.2      3.224      6.247
REMARK  Name = 67532
REMARK  6 active torsions:
REMARK  status: ('A' for Active; 'I' for Inactive)
REMARK    1  A    between atoms: C_1  and  C_4
REMARK    2  A    between atoms: C_1  and  CA_12
REMARK    3  A    between atoms: C_9  and  O_10
REMARK    4  A    between atoms: CA_12  and  N_13
REMARK    5  A    between atoms: CA_12  and  C_18
REMARK    6  A    between atoms: C_18  and  O_19
REMARK                            x       y       z     vdW  Elec       q    Type
REMARK                         _______ _______ _______ _____ _____    ______ ____
ROOT
ATOM      1  C   UNL     1      35.798 -24.531 -14.275  0.00  0.00    +0.015 C 
ENDROOT
BRANCH   1   4
ATOM      2 BR   UNL     1      30.522 -23.753 -14.214  0.00  0.00    -0.046 Br
ATOM      3 BR   UNL     1      33.789 -22.455 -18.757  0.00  0.00    -0.046 Br
ATOM      4  C   UNL     1      34.579 -24.052 -15.014  0.00  0.00    -0.023 C 
ATOM      5  C   UNL     1      34.711 -23.561 -16.306  0.00  0.00    +0.005 C 
ATOM      6  C   UNL     1      33.336 -24.108 -14.397  0.00  0.00    +0.005 C 
ATOM      7  C   UNL     1      32.206 -23.665 -15.083  0.00  0.00    +0.068 C 
ATOM      8  C   UNL     1      33.580 -23.118 -16.993  0.00  0.00    +0.068 C 
ATOM      9  C   UNL     1      32.328 -23.170 -16.381  0.00  0.00    +0.146 C 
BRANCH   9  10
ATOM     10  O   UNL     1      31.221 -22.738 -17.054  0.00  0.00    -0.505 OA
ATOM     11  H   UNL     1      30.530 -22.306 -16.590  0.00  0.00    +0.292 HD
ENDBRANCH   9  10
ENDBRANCH   1   4
BRANCH   1  12
ATOM     12  CA  UNL     1      36.672 -25.491 -15.096  0.00  0.00    +0.040 C 
BRANCH  12  13
ATOM     13  N   UNL     1      36.149 -26.853 -14.973  0.00  0.00    +0.389 N 
ATOM     14  H1  UNL     1      36.284 -27.184 -14.017  0.00  0.00    -0.088 HD
ATOM     15  H2  UNL     1      36.645 -27.468 -15.618  0.00  0.00    -0.088 HD
ATOM     16  H3  UNL     1      35.154 -26.858 -15.197  0.00  0.00    -0.088 HD
ENDBRANCH  12  13
BRANCH  12  18
ATOM     17  OXT UNL     1      38.702 -24.558 -14.116  0.00  0.00    -0.253 OA
ATOM     18  C   UNL     1      38.099 -25.521 -14.571  0.00  0.00    +0.293 C 
BRANCH  18  19
ATOM     19  O   UNL     1      38.643 -26.765 -14.633  0.00  0.00    -0.482 OA
ATOM     20  H   UNL     1      39.404 -26.968 -14.125  0.00  0.00    +0.295 HD
ENDBRANCH  18  19
ENDBRANCH  12  18
ENDBRANCH   1  12
TORSDOF 6
ENDMDL
MODEL 5
REMARK VINA RESULT:      -7.1      3.545      6.274
REMARK  Name = 67532
REMARK  6 active torsions:
REMARK  status: ('A' for Active; 'I' for Inactive)
REMARK    1  A    between atoms: C_1  and  C_4
REMARK    2  A    between atoms: C_1  and  CA_12
REMARK    3  A    between atoms: C_9  and  O_10
REMARK    4  A    between atoms: CA_12  and  N_13
REMARK    5  A    between atoms: CA_12  and  C_18
REMARK    6  A    between atoms: C_18  and  O_19
REMARK                            x       y       z     vdW  Elec       q    Type
REMARK                         _______ _______ _______ _____ _____    ______ ____
ROOT
ATOM      1  C   UNL     1      35.686 -24.457 -14.051  0.00  0.00    +0.015 C 
ENDROOT
BRANCH   1   4
ATOM      2 BR   UNL     1      33.868 -22.537 -18.683  0.00  0.00    -0.046 Br
ATOM      3 BR   UNL     1      30.417 -23.651 -14.229  0.00  0.00    -0.046 Br
ATOM      4  C   UNL     1      34.500 -24.002 -14.857  0.00  0.00    -0.023 C 
ATOM      5  C   UNL     1      33.234 -24.029 -14.286  0.00  0.00    +0.005 C 
ATOM      6  C   UNL     1      34.685 -23.559 -16.160  0.00  0.00    +0.005 C 
ATOM      7  C   UNL     1      33.585 -23.136 -16.906  0.00  0.00    +0.068 C 
ATOM      8  C   UNL     1      32.133 -23.606 -15.033  0.00  0.00    +0.068 C 
ATOM      9  C   UNL     1      32.310 -23.159 -16.343  0.00  0.00    +0.146 C 
BRANCH   9  10
ATOM     10  O   UNL     1      31.233 -22.743 -17.072  0.00  0.00    -0.505 OA
ATOM     11  H   UNL     1      30.620 -23.371 -17.400  0.00  0.00    +0.292 HD
ENDBRANCH   9  10
ENDBRANCH   1   4
BRANCH   1  12
ATOM     12  CA  UNL     1      35.727 -23.863 -12.636  0.00  0.00    +0.040 C 
BRANCH  12  13
ATOM     13  N   UNL     1      36.927 -23.038 -12.487  0.00  0.00    +0.389 N 
ATOM     14  H1  UNL     1      36.894 -22.548 -11.592  0.00  0.00    -0.088 HD
ATOM     15  H2  UNL     1      36.971 -22.358 -13.245  0.00  0.00    -0.088 HD
ATOM     16  H3  UNL     1      37.755 -23.634 -12.517  0.00  0.00    -0.088 HD
ENDBRANCH  12  13
BRANCH  12  18
ATOM     17  OXT UNL     1      35.264 -24.924 -10.489  0.00  0.00    -0.253 OA
ATOM     18  C   UNL     1      35.813 -24.956 -11.582  0.00  0.00    +0.293 C 
BRANCH  18  19
ATOM     19  O   UNL     1      36.558 -26.013 -11.999  0.00  0.00    -0.482 OA
ATOM     20  H   UNL     1      37.231 -25.889 -12.639  0.00  0.00    +0.295 HD
ENDBRANCH  18  19
ENDBRANCH  12  18
ENDBRANCH   1  12
TORSDOF 6
ENDMDL
MODEL 6
REMARK VINA RESULT:      -7.1      3.544      5.941
REMARK  Name = 67532
REMARK  6 active torsions:
REMARK  status: ('A' for Active; 'I' for Inactive)
REMARK    1  A    between atoms: C_1  and  C_4
REMARK    2  A    between atoms: C_1  and  CA_12
REMARK    3  A    between atoms: C_9  and  O_10
REMARK    4  A    between atoms: CA_12  and  N_13
REMARK    5  A    between atoms: CA_12  and  C_18
REMARK    6  A    between atoms: C_18  and  O_19
REMARK                            x       y       z     vdW  Elec       q    Type
REMARK                         _______ _______ _______ _____ _____    ______ ____
ROOT
ATOM      1  C   UNL     1      35.656 -24.549 -14.087  0.00  0.00    +0.015 C 
ENDROOT
BRANCH   1   4
ATOM      2 BR   UNL     1      30.404 -23.633 -14.242  0.00  0.00    -0.046 Br
ATOM      3 BR   UNL     1      33.867 -22.539 -18.692  0.00  0.00    -0.046 Br
ATOM      4  C   UNL     1      34.477 -24.058 -14.883  0.00  0.00    -0.023 C 
ATOM      5  C   UNL     1      34.670 -23.604 -16.181  0.00  0.00    +0.005 C 
ATOM      6  C   UNL     1      33.212 -24.066 -14.311  0.00  0.00    +0.005 C 
ATOM      7  C   UNL     1      32.120 -23.611 -15.050  0.00  0.00    +0.068 C 
ATOM      8  C   UNL     1      33.577 -23.150 -16.921  0.00  0.00    +0.068 C 
ATOM      9  C   UNL     1      32.302 -23.154 -16.354  0.00  0.00    +0.146 C 
BRANCH   9  10
ATOM     10  O   UNL     1      31.232 -22.711 -17.079  0.00  0.00    -0.505 OA
ATOM     11  H   UNL     1      30.402 -23.138 -16.995  0.00  0.00    +0.292 HD
ENDBRANCH   9  10
ENDBRANCH   1   4
BRANCH   1  12
ATOM     12  CA  UNL     1      35.760 -23.910 -12.694  0.00  0.00    +0.040 C 
BRANCH  12  13
ATOM     13  N   UNL     1      36.998 -23.133 -12.605  0.00  0.00    +0.389 N 
ATOM     14  H1  UNL     1      37.744 -23.723 -12.235  0.00  0.00    -0.088 HD
ATOM     15  H2  UNL     1      36.856 -22.336 -11.985  0.00  0.00    -0.088 HD
ATOM     16  H3  UNL     1      37.259 -22.799 -13.533  0.00  0.00    -0.088 HD
ENDBRANCH  12  13
BRANCH  12  18
ATOM     17  OXT UNL     1      35.260 -24.909 -10.525  0.00  0.00    -0.253 OA
ATOM     18  C   UNL     1      35.830 -24.971 -11.607  0.00  0.00    +0.293 C 
BRANCH  18  19
ATOM     19  O   UNL     1      36.585 -26.038 -11.978  0.00  0.00    -0.482 OA
ATOM     20  H   UNL     1      36.766 -26.192 -12.885  0.00  0.00    +0.295 HD
ENDBRANCH  18  19
ENDBRANCH  12  18
ENDBRANCH   1  12
TORSDOF 6
ENDMDL
MODEL 7
REMARK VINA RESULT:      -7.1     11.417     12.753
REMARK  Name = 67532
REMARK  6 active torsions:
REMARK  status: ('A' for Active; 'I' for Inactive)
REMARK    1  A    between atoms: C_1  and  C_4
REMARK    2  A    between atoms: C_1  and  CA_12
REMARK    3  A    between atoms: C_9  and  O_10
REMARK    4  A    between atoms: CA_12  and  N_13
REMARK    5  A    between atoms: CA_12  and  C_18
REMARK    6  A    between atoms: C_18  and  O_19
REMARK                            x       y       z     vdW  Elec       q    Type
REMARK                         _______ _______ _______ _____ _____    ______ ____
ROOT
ATOM      1  C   UNL     1      33.480 -15.487 -22.899  0.00  0.00    +0.015 C 
ENDROOT
BRANCH   1   4
ATOM      2 BR   UNL     1      30.822 -11.295 -20.948  0.00  0.00    -0.046 Br
ATOM      3 BR   UNL     1      34.567 -10.841 -25.280  0.00  0.00    -0.046 Br
ATOM      4  C   UNL     1      33.218 -14.008 -22.970  0.00  0.00    -0.023 C 
ATOM      5  C   UNL     1      33.887 -13.239 -23.913  0.00  0.00    +0.005 C 
ATOM      6  C   UNL     1      32.310 -13.429 -22.093  0.00  0.00    +0.005 C 
ATOM      7  C   UNL     1      32.067 -12.057 -22.160  0.00  0.00    +0.068 C 
ATOM      8  C   UNL     1      33.643 -11.866 -23.980  0.00  0.00    +0.068 C 
ATOM      9  C   UNL     1      32.733 -11.276 -23.103  0.00  0.00    +0.146 C 
BRANCH   9  10
ATOM     10  O   UNL     1      32.493  -9.933 -23.170  0.00  0.00    -0.505 OA
ATOM     11  H   UNL     1      33.156  -9.356 -23.494  0.00  0.00    +0.292 HD
ENDBRANCH   9  10
ENDBRANCH   1   4
BRANCH   1  12
ATOM     12  CA  UNL     1      34.915 -15.833 -22.475  0.00  0.00    +0.040 C 
BRANCH  12  13
ATOM     13  N   UNL     1      35.454 -16.862 -23.366  0.00  0.00    +0.389 N 
ATOM     14  H1  UNL     1      34.839 -17.676 -23.355  0.00  0.00    -0.088 HD
ATOM     15  H2  UNL     1      36.384 -17.135 -23.050  0.00  0.00    -0.088 HD
ATOM     16  H3  UNL     1      35.512 -16.494 -24.316  0.00  0.00    -0.088 HD
ENDBRANCH  12  13
BRANCH  12  18
ATOM     17  OXT UNL     1      35.102 -17.595 -20.798  0.00  0.00    -0.253 OA
ATOM     18  C   UNL     1      34.949 -16.411 -21.069  0.00  0.00    +0.293 C 
BRANCH  18  19
ATOM     19  O   UNL     1      34.820 -15.451 -20.116  0.00  0.00    -0.482 OA
ATOM     20  H   UNL     1      33.968 -15.198 -19.818  0.00  0.00    +0.295 HD
ENDBRANCH  18  19
ENDBRANCH  12  18
ENDBRANCH   1  12
TORSDOF 6
ENDMDL
MODEL 8
REMARK VINA RESULT:      -7.1     11.418     12.900
REMARK  Name = 67532
REMARK  6 active torsions:
REMARK  status: ('A' for Active; 'I' for Inactive)
REMARK    1  A    between atoms: C_1  and  C_4
REMARK    2  A    between atoms: C_1  and  CA_12
REMARK    3  A    between atoms: C_9  and  O_10
REMARK    4  A    between atoms: CA_12  and  N_13
REMARK    5  A    between atoms: CA_12  and  C_18
REMARK    6  A    between atoms: C_18  and  O_19
REMARK                            x       y       z     vdW  Elec       q    Type
REMARK                         _______ _______ _______ _____ _____    ______ ____
ROOT
ATOM      1  C   UNL     1      33.481 -15.486 -22.902  0.00  0.00    +0.015 C 
ENDROOT
BRANCH   1   4
ATOM      2 BR   UNL     1      34.572 -10.836 -25.274  0.00  0.00    -0.046 Br
ATOM      3 BR   UNL     1      30.822 -11.297 -20.947  0.00  0.00    -0.046 Br
ATOM      4  C   UNL     1      33.218 -14.007 -22.973  0.00  0.00    -0.023 C 
ATOM      5  C   UNL     1      32.310 -13.431 -22.095  0.00  0.00    +0.005 C 
ATOM      6  C   UNL     1      33.887 -13.235 -23.914  0.00  0.00    +0.005 C 
ATOM      7  C   UNL     1      33.643 -11.864 -23.979  0.00  0.00    +0.068 C 
ATOM      8  C   UNL     1      32.065 -12.058 -22.159  0.00  0.00    +0.068 C 
ATOM      9  C   UNL     1      32.733 -11.276 -23.102  0.00  0.00    +0.146 C 
BRANCH   9  10
ATOM     10  O   UNL     1      32.496  -9.932 -23.163  0.00  0.00    -0.505 OA
ATOM     11  H   UNL     1      33.036  -9.386 -23.700  0.00  0.00    +0.292 HD
ENDBRANCH   9  10
ENDBRANCH   1   4
BRANCH   1  12
ATOM     12  CA  UNL     1      34.916 -15.831 -22.476  0.00  0.00    +0.040 C 
BRANCH  12  13
ATOM     13  N   UNL     1      35.456 -16.860 -23.367  0.00  0.00    +0.389 N 
ATOM     14  H1  UNL     1      36.213 -17.356 -22.895  0.00  0.00    -0.088 HD
ATOM     15  H2  UNL     1      35.814 -16.423 -24.216  0.00  0.00    -0.088 HD
ATOM     16  H3  UNL     1      34.718 -17.521 -23.611  0.00  0.00    -0.088 HD
ENDBRANCH  12  13
BRANCH  12  18
ATOM     17  OXT UNL     1      35.101 -17.594 -20.799  0.00  0.00    -0.253 OA
ATOM     18  C   UNL     1      34.949 -16.409 -21.070  0.00  0.00    +0.293 C 
BRANCH  18  19
ATOM     19  O   UNL     1      34.818 -15.450 -20.117  0.00  0.00    -0.482 OA
ATOM     20  H   UNL     1      35.175 -15.588 -19.261  0.00  0.00    +0.295 HD
ENDBRANCH  18  19
ENDBRANCH  12  18
ENDBRANCH   1  12
TORSDOF 6
ENDMDL
MODEL 9
REMARK VINA RESULT:      -6.9      3.808      6.264
REMARK  Name = 67532
REMARK  6 active torsions:
REMARK  status: ('A' for Active; 'I' for Inactive)
REMARK    1  A    between atoms: C_1  and  C_4
REMARK    2  A    between atoms: C_1  and  CA_12
REMARK    3  A    between atoms: C_9  and  O_10
REMARK    4  A    between atoms: CA_12  and  N_13
REMARK    5  A    between atoms: CA_12  and  C_18
REMARK    6  A    between atoms: C_18  and  O_19
REMARK                            x       y       z     vdW  Elec       q    Type
REMARK                         _______ _______ _______ _____ _____    ______ ____
ROOT
ATOM      1  C   UNL     1      36.478 -23.650 -14.510  0.00  0.00    +0.015 C 
ENDROOT
BRANCH   1   4
ATOM      2 BR   UNL     1      35.508 -21.699 -19.378  0.00  0.00    -0.046 Br
ATOM      3 BR   UNL     1      31.344 -23.680 -15.952  0.00  0.00    -0.046 Br
ATOM      4  C   UNL     1      35.457 -23.329 -15.567  0.00  0.00    -0.023 C 
ATOM      5  C   UNL     1      34.116 -23.600 -15.327  0.00  0.00    +0.005 C 
ATOM      6  C   UNL     1      35.866 -22.765 -16.768  0.00  0.00    +0.005 C 
ATOM      7  C   UNL     1      34.919 -22.468 -17.747  0.00  0.00    +0.068 C 
ATOM      8  C   UNL     1      33.168 -23.302 -16.307  0.00  0.00    +0.068 C 
ATOM      9  C   UNL     1      33.570 -22.736 -17.516  0.00  0.00    +0.146 C 
BRANCH   9  10
ATOM     10  O   UNL     1      32.642 -22.443 -18.474  0.00  0.00    -0.505 OA
ATOM     11  H   UNL     1      31.991 -21.789 -18.309  0.00  0.00    +0.292 HD
ENDBRANCH   9  10
ENDBRANCH   1   4
BRANCH   1  12
ATOM     12  CA  UNL     1      36.435 -25.112 -14.043  0.00  0.00    +0.040 C 
BRANCH  12  13
ATOM     13  N   UNL     1      37.342 -25.290 -12.907  0.00  0.00    +0.389 N 
ATOM     14  H1  UNL     1      37.529 -26.284 -12.774  0.00  0.00    -0.088 HD
ATOM     15  H2  UNL     1      36.912 -24.909 -12.064  0.00  0.00    -0.088 HD
ATOM     16  H3  UNL     1      38.219 -24.801 -13.092  0.00  0.00    -0.088 HD
ENDBRANCH  12  13
BRANCH  12  18
ATOM     17  OXT UNL     1      36.191 -26.777 -15.809  0.00  0.00    -0.253 OA
ATOM     18  C   UNL     1      36.914 -26.053 -15.136  0.00  0.00    +0.293 C 
BRANCH  18  19
ATOM     19  O   UNL     1      38.258 -25.987 -15.319  0.00  0.00    -0.482 OA
ATOM     20  H   UNL     1      38.822 -25.818 -14.589  0.00  0.00    +0.295 HD
ENDBRANCH  18  19
ENDBRANCH  12  18
ENDBRANCH   1  12
TORSDOF 6
ENDMDL
