MODEL 1
REMARK VINA RESULT:     -10.1      0.000      0.000
REMARK  Name = 11488110
REMARK  9 active torsions:
REMARK  status: ('A' for Active; 'I' for Inactive)
REMARK    1  A    between atoms: C_6  and  N_27
REMARK    2  A    between atoms: C_7  and  C_13
REMARK    3  A    between atoms: C_16  and  O_19
REMARK    4  A    between atoms: O_19  and  C_20
REMARK    5  A    between atoms: C_20  and  C_21
REMARK    6  A    between atoms: C_21  and  C_22
REMARK    7  A    between atoms: C_22  and  N_23
REMARK    8  A    between atoms: N_27  and  C_29
REMARK    9  A    between atoms: C_29  and  C_34
REMARK                            x       y       z     vdW  Elec       q    Type
REMARK                         _______ _______ _______ _____ _____    ______ ____
ROOT
ATOM      1 CL   UNL     1      35.099 -20.279 -24.878  0.00  0.00    -0.047 Cl
ATOM      2  N   UNL     1      33.912 -16.103 -24.136  0.00  0.00    -0.107 N 
ATOM      3  N   UNL     1      34.411 -17.927 -25.614  0.00  0.00    -0.324 NA
ATOM      4  N   UNL     1      33.535 -14.800 -24.232  0.00  0.00    -0.139 NA
ATOM      5  N   UNL     1      33.757 -15.702 -26.310  0.00  0.00    -0.145 NA
ATOM      6  C   UNL     1      34.152 -16.863 -22.980  0.00  0.00    +0.136 C 
ATOM      7  C   UNL     1      34.520 -18.155 -23.129  0.00  0.00    +0.076 C 
ATOM      8  C   UNL     1      34.041 -16.632 -25.422  0.00  0.00    +0.175 C 
ATOM      9  C   UNL     1      34.634 -18.638 -24.550  0.00  0.00    +0.204 C 
ATOM     10  C   UNL     1      33.460 -14.620 -25.547  0.00  0.00    +0.230 C 
ENDROOT
BRANCH   7  13
ATOM     11  F   UNL     1      37.114 -18.532 -22.118  0.00  0.00    -0.204 F 
ATOM     12  F   UNL     1      32.483 -19.569 -21.808  0.00  0.00    -0.204 F 
ATOM     13  C   UNL     1      34.790 -19.025 -21.995  0.00  0.00    +0.061 C 
ATOM     14  C   UNL     1      36.097 -19.177 -21.529  0.00  0.00    +0.145 C 
ATOM     15  C   UNL     1      33.744 -19.704 -21.372  0.00  0.00    +0.145 C 
ATOM     16  C   UNL     1      35.309 -20.691 -19.818  0.00  0.00    +0.143 C 
ATOM     17  C   UNL     1      36.356 -20.011 -20.441  0.00  0.00    +0.067 C 
ATOM     18  C   UNL     1      34.003 -20.538 -20.284  0.00  0.00    +0.067 C 
BRANCH  16  19
ATOM     19  O   UNL     1      35.563 -21.506 -18.758  0.00  0.00    -0.475 OA
BRANCH  19  20
ATOM     20  C   UNL     1      36.924 -21.635 -18.351  0.00  0.00    +0.203 C 
BRANCH  20  21
ATOM     21  C   UNL     1      37.004 -21.474 -16.839  0.00  0.00    +0.024 C 
BRANCH  21  22
ATOM     22  C   UNL     1      36.715 -22.788 -16.120  0.00  0.00    -0.078 C 
BRANCH  22  23
ATOM     23  N   UNL     1      37.960 -23.485 -15.820  0.00  0.00    +0.382 N 
ATOM     24  C   UNL     1      37.789 -24.392 -14.694  0.00  0.00    -0.106 C 
ATOM     25  H   UNL     1      38.680 -22.800 -15.590  0.00  0.00    -0.085 HD
ATOM     26  H   UNL     1      38.234 -24.030 -16.638  0.00  0.00    -0.085 HD
ENDBRANCH  22  23
ENDBRANCH  21  22
ENDBRANCH  20  21
ENDBRANCH  19  20
ENDBRANCH  16  19
ENDBRANCH   7  13
BRANCH   6  27
ATOM     27  N   UNL     1      33.987 -16.216 -21.786  0.00  0.00    -0.314 N 
ATOM     28  H   UNL     1      34.742 -16.199 -21.154  0.00  0.00    +0.148 HD
BRANCH  27  29
ATOM     29  C   UNL     1      32.765 -15.559 -21.407  0.00  0.00    +0.166 C 
ATOM     30  C   UNL     1      31.956 -16.480 -20.504  0.00  0.00    +0.030 C 
BRANCH  29  34
ATOM     31  F   UNL     1      32.376 -14.080 -19.587  0.00  0.00    -0.168 F 
ATOM     32  F   UNL     1      32.825 -13.198 -21.533  0.00  0.00    -0.168 F 
ATOM     33  F   UNL     1      34.402 -14.180 -20.396  0.00  0.00    -0.168 F 
ATOM     34  C   UNL     1      33.092 -14.246 -20.721  0.00  0.00    +0.414 C 
ENDBRANCH  29  34
ENDBRANCH  27  29
ENDBRANCH   6  27
TORSDOF 9
ENDMDL
MODEL 2
REMARK VINA RESULT:      -9.8      1.182      2.038
REMARK  Name = 11488110
REMARK  9 active torsions:
REMARK  status: ('A' for Active; 'I' for Inactive)
REMARK    1  A    between atoms: C_6  and  N_27
REMARK    2  A    between atoms: C_7  and  C_13
REMARK    3  A    between atoms: C_16  and  O_19
REMARK    4  A    between atoms: O_19  and  C_20
REMARK    5  A    between atoms: C_20  and  C_21
REMARK    6  A    between atoms: C_21  and  C_22
REMARK    7  A    between atoms: C_22  and  N_23
REMARK    8  A    between atoms: N_27  and  C_29
REMARK    9  A    between atoms: C_29  and  C_34
REMARK                            x       y       z     vdW  Elec       q    Type
REMARK                         _______ _______ _______ _____ _____    ______ ____
ROOT
ATOM      1 CL   UNL     1      35.261 -20.228 -24.881  0.00  0.00    -0.047 Cl
ATOM      2  N   UNL     1      33.882 -16.110 -24.150  0.00  0.00    -0.107 N 
ATOM      3  N   UNL     1      34.420 -17.928 -25.621  0.00  0.00    -0.324 NA
ATOM      4  N   UNL     1      33.432 -14.831 -24.248  0.00  0.00    -0.139 NA
ATOM      5  N   UNL     1      33.621 -15.752 -26.321  0.00  0.00    -0.145 NA
ATOM      6  C   UNL     1      34.206 -16.838 -22.994  0.00  0.00    +0.136 C 
ATOM      7  C   UNL     1      34.637 -18.111 -23.139  0.00  0.00    +0.076 C 
ATOM      8  C   UNL     1      33.990 -16.652 -25.432  0.00  0.00    +0.175 C 
ATOM      9  C   UNL     1      34.722 -18.609 -24.557  0.00  0.00    +0.204 C 
ATOM     10  C   UNL     1      33.296 -14.675 -25.561  0.00  0.00    +0.230 C 
ENDROOT
BRANCH   7  13
ATOM     11  F   UNL     1      32.728 -19.603 -21.718  0.00  0.00    -0.204 F 
ATOM     12  F   UNL     1      37.285 -18.339 -22.226  0.00  0.00    -0.204 F 
ATOM     13  C   UNL     1      34.997 -18.947 -22.005  0.00  0.00    +0.061 C 
ATOM     14  C   UNL     1      34.011 -19.671 -21.333  0.00  0.00    +0.145 C 
ATOM     15  C   UNL     1      36.326 -19.028 -21.591  0.00  0.00    +0.145 C 
ATOM     16  C   UNL     1      35.686 -20.555 -19.831  0.00  0.00    +0.143 C 
ATOM     17  C   UNL     1      34.356 -20.475 -20.245  0.00  0.00    +0.067 C 
ATOM     18  C   UNL     1      36.670 -19.832 -20.504  0.00  0.00    +0.067 C 
BRANCH  16  19
ATOM     19  O   UNL     1      36.021 -21.337 -18.769  0.00  0.00    -0.475 OA
BRANCH  19  20
ATOM     20  C   UNL     1      35.031 -22.252 -18.300  0.00  0.00    +0.203 C 
BRANCH  20  21
ATOM     21  C   UNL     1      35.359 -22.638 -16.864  0.00  0.00    +0.024 C 
BRANCH  21  22
ATOM     22  C   UNL     1      34.179 -23.326 -16.186  0.00  0.00    -0.078 C 
BRANCH  22  23
ATOM     23  N   UNL     1      34.077 -22.900 -14.795  0.00  0.00    +0.382 N 
ATOM     24  C   UNL     1      34.255 -24.028 -13.892  0.00  0.00    -0.106 C 
ATOM     25  H   UNL     1      33.156 -22.489 -14.638  0.00  0.00    -0.085 HD
ATOM     26  H   UNL     1      34.809 -22.215 -14.609  0.00  0.00    -0.085 HD
ENDBRANCH  22  23
ENDBRANCH  21  22
ENDBRANCH  20  21
ENDBRANCH  19  20
ENDBRANCH  16  19
ENDBRANCH   7  13
BRANCH   6  27
ATOM     27  N   UNL     1      34.052 -16.182 -21.802  0.00  0.00    -0.314 N 
ATOM     28  H   UNL     1      34.825 -16.127 -21.195  0.00  0.00    +0.148 HD
BRANCH  27  29
ATOM     29  C   UNL     1      32.818 -15.570 -21.393  0.00  0.00    +0.166 C 
ATOM     30  C   UNL     1      32.036 -16.543 -20.521  0.00  0.00    +0.030 C 
BRANCH  29  34
ATOM     31  F   UNL     1      34.426 -14.164 -20.351  0.00  0.00    -0.168 F 
ATOM     32  F   UNL     1      32.414 -14.201 -19.508  0.00  0.00    -0.168 F 
ATOM     33  F   UNL     1      32.775 -13.203 -21.409  0.00  0.00    -0.168 F 
ATOM     34  C   UNL     1      33.116 -14.275 -20.660  0.00  0.00    +0.414 C 
ENDBRANCH  29  34
ENDBRANCH  27  29
ENDBRANCH   6  27
TORSDOF 9
ENDMDL
MODEL 3
REMARK VINA RESULT:      -8.4      7.912     12.506
REMARK  Name = 11488110
REMARK  9 active torsions:
REMARK  status: ('A' for Active; 'I' for Inactive)
REMARK    1  A    between atoms: C_6  and  N_27
REMARK    2  A    between atoms: C_7  and  C_13
REMARK    3  A    between atoms: C_16  and  O_19
REMARK    4  A    between atoms: O_19  and  C_20
REMARK    5  A    between atoms: C_20  and  C_21
REMARK    6  A    between atoms: C_21  and  C_22
REMARK    7  A    between atoms: C_22  and  N_23
REMARK    8  A    between atoms: N_27  and  C_29
REMARK    9  A    between atoms: C_29  and  C_34
REMARK                            x       y       z     vdW  Elec       q    Type
REMARK                         _______ _______ _______ _____ _____    ______ ____
ROOT
ATOM      1 CL   UNL     1      30.575 -10.369 -19.571  0.00  0.00    -0.047 Cl
ATOM      2  N   UNL     1      32.792 -12.043 -22.989  0.00  0.00    -0.107 N 
ATOM      3  N   UNL     1      31.601 -12.286 -20.920  0.00  0.00    -0.324 NA
ATOM      4  N   UNL     1      33.419 -12.841 -23.893  0.00  0.00    -0.139 NA
ATOM      5  N   UNL     1      32.569 -14.100 -22.198  0.00  0.00    -0.145 NA
ATOM      6  C   UNL     1      32.638 -10.647 -23.011  0.00  0.00    +0.136 C 
ATOM      7  C   UNL     1      31.968 -10.061 -21.994  0.00  0.00    +0.076 C 
ATOM      8  C   UNL     1      32.280 -12.837 -21.961  0.00  0.00    +0.175 C 
ATOM      9  C   UNL     1      31.453 -10.996 -20.932  0.00  0.00    +0.204 C 
ATOM     10  C   UNL     1      33.254 -14.052 -23.368  0.00  0.00    +0.230 C 
ENDROOT
BRANCH   7  13
ATOM     11  F   UNL     1      30.298  -8.709 -23.804  0.00  0.00    -0.204 F 
ATOM     12  F   UNL     1      33.200  -8.456 -20.044  0.00  0.00    -0.204 F 
ATOM     13  C   UNL     1      31.755  -8.624 -21.925  0.00  0.00    +0.061 C 
ATOM     14  C   UNL     1      30.914  -7.999 -22.847  0.00  0.00    +0.145 C 
ATOM     15  C   UNL     1      32.389  -7.871 -20.938  0.00  0.00    +0.145 C 
ATOM     16  C   UNL     1      31.343  -5.868 -21.793  0.00  0.00    +0.143 C 
ATOM     17  C   UNL     1      30.708  -6.621 -22.781  0.00  0.00    +0.067 C 
ATOM     18  C   UNL     1      32.183  -6.493 -20.871  0.00  0.00    +0.067 C 
BRANCH  16  19
ATOM     19  O   UNL     1      31.144  -4.523 -21.730  0.00  0.00    -0.475 OA
BRANCH  19  20
ATOM     20  C   UNL     1      30.630  -3.888 -22.900  0.00  0.00    +0.203 C 
BRANCH  20  21
ATOM     21  C   UNL     1      31.658  -2.887 -23.409  0.00  0.00    +0.024 C 
BRANCH  21  22
ATOM     22  C   UNL     1      31.936  -3.076 -24.896  0.00  0.00    -0.078 C 
BRANCH  22  23
ATOM     23  N   UNL     1      32.260  -4.470 -25.178  0.00  0.00    +0.382 N 
ATOM     24  C   UNL     1      32.926  -4.598 -26.466  0.00  0.00    -0.106 C 
ATOM     25  H   UNL     1      31.399  -5.017 -25.191  0.00  0.00    -0.085 HD
ATOM     26  H   UNL     1      32.889  -4.811 -24.450  0.00  0.00    -0.085 HD
ENDBRANCH  22  23
ENDBRANCH  21  22
ENDBRANCH  20  21
ENDBRANCH  19  20
ENDBRANCH  16  19
ENDBRANCH   7  13
BRANCH   6  27
ATOM     27  N   UNL     1      33.189  -9.994 -24.080  0.00  0.00    -0.314 N 
ATOM     28  H   UNL     1      32.631  -9.847 -24.878  0.00  0.00    +0.148 HD
BRANCH  27  29
ATOM     29  C   UNL     1      34.543  -9.512 -24.096  0.00  0.00    +0.166 C 
ATOM     30  C   UNL     1      35.278 -10.109 -25.289  0.00  0.00    +0.030 C 
BRANCH  29  34
ATOM     31  F   UNL     1      35.007  -7.456 -22.998  0.00  0.00    -0.168 F 
ATOM     32  F   UNL     1      33.285  -7.524 -24.336  0.00  0.00    -0.168 F 
ATOM     33  F   UNL     1      35.301  -7.538 -25.160  0.00  0.00    -0.168 F 
ATOM     34  C   UNL     1      34.537  -7.995 -24.143  0.00  0.00    +0.414 C 
ENDBRANCH  29  34
ENDBRANCH  27  29
ENDBRANCH   6  27
TORSDOF 9
ENDMDL
MODEL 4
REMARK VINA RESULT:      -8.3      3.855      6.200
REMARK  Name = 11488110
REMARK  9 active torsions:
REMARK  status: ('A' for Active; 'I' for Inactive)
REMARK    1  A    between atoms: C_6  and  N_27
REMARK    2  A    between atoms: C_7  and  C_13
REMARK    3  A    between atoms: C_16  and  O_19
REMARK    4  A    between atoms: O_19  and  C_20
REMARK    5  A    between atoms: C_20  and  C_21
REMARK    6  A    between atoms: C_21  and  C_22
REMARK    7  A    between atoms: C_22  and  N_23
REMARK    8  A    between atoms: N_27  and  C_29
REMARK    9  A    between atoms: C_29  and  C_34
REMARK                            x       y       z     vdW  Elec       q    Type
REMARK                         _______ _______ _______ _____ _____    ______ ____
ROOT
ATOM      1 CL   UNL     1      31.836 -14.315 -20.353  0.00  0.00    -0.047 Cl
ATOM      2  N   UNL     1      32.773 -11.101 -23.215  0.00  0.00    -0.107 N 
ATOM      3  N   UNL     1      31.616 -11.943 -21.289  0.00  0.00    -0.324 NA
ATOM      4  N   UNL     1      32.855  -9.938 -23.915  0.00  0.00    -0.139 NA
ATOM      5  N   UNL     1      31.410  -9.699 -22.173  0.00  0.00    -0.145 NA
ATOM      6  C   UNL     1      33.439 -12.314 -23.451  0.00  0.00    +0.136 C 
ATOM      7  C   UNL     1      33.201 -13.348 -22.613  0.00  0.00    +0.076 C 
ATOM      8  C   UNL     1      31.883 -10.928 -22.154  0.00  0.00    +0.175 C 
ATOM      9  C   UNL     1      32.228 -13.070 -21.499  0.00  0.00    +0.204 C 
ATOM     10  C   UNL     1      32.023  -9.144 -23.249  0.00  0.00    +0.230 C 
ENDROOT
BRANCH   7  13
ATOM     11  F   UNL     1      32.718 -14.990 -24.840  0.00  0.00    -0.204 F 
ATOM     12  F   UNL     1      34.999 -14.373 -20.713  0.00  0.00    -0.204 F 
ATOM     13  C   UNL     1      33.841 -14.644 -22.772  0.00  0.00    +0.061 C 
ATOM     14  C   UNL     1      33.570 -15.422 -23.898  0.00  0.00    +0.145 C 
ATOM     15  C   UNL     1      34.728 -15.109 -21.801  0.00  0.00    +0.145 C 
ATOM     16  C   UNL     1      35.071 -17.130 -23.079  0.00  0.00    +0.143 C 
ATOM     17  C   UNL     1      34.184 -16.665 -24.051  0.00  0.00    +0.067 C 
ATOM     18  C   UNL     1      35.342 -16.352 -21.955  0.00  0.00    +0.067 C 
BRANCH  16  19
ATOM     19  O   UNL     1      35.668 -18.344 -23.229  0.00  0.00    -0.475 OA
BRANCH  19  20
ATOM     20  C   UNL     1      34.860 -19.497 -22.999  0.00  0.00    +0.203 C 
BRANCH  20  21
ATOM     21  C   UNL     1      34.753 -19.733 -21.499  0.00  0.00    +0.024 C 
BRANCH  21  22
ATOM     22  C   UNL     1      33.312 -19.608 -21.014  0.00  0.00    -0.078 C 
BRANCH  22  23
ATOM     23  N   UNL     1      32.926 -20.798 -20.265  0.00  0.00    +0.382 N 
ATOM     24  C   UNL     1      34.078 -21.393 -19.604  0.00  0.00    -0.106 C 
ATOM     25  H   UNL     1      32.520 -21.480 -20.907  0.00  0.00    -0.085 HD
ATOM     26  H   UNL     1      32.245 -20.529 -19.554  0.00  0.00    -0.085 HD
ENDBRANCH  22  23
ENDBRANCH  21  22
ENDBRANCH  20  21
ENDBRANCH  19  20
ENDBRANCH  16  19
ENDBRANCH   7  13
BRANCH   6  27
ATOM     27  N   UNL     1      34.284 -12.342 -24.527  0.00  0.00    -0.314 N 
ATOM     28  H   UNL     1      35.107 -12.878 -24.463  0.00  0.00    +0.148 HD
BRANCH  27  29
ATOM     29  C   UNL     1      34.030 -11.626 -25.748  0.00  0.00    +0.166 C 
ATOM     30  C   UNL     1      35.202 -10.700 -26.044  0.00  0.00    +0.030 C 
BRANCH  29  34
ATOM     31  F   UNL     1      32.573 -12.479 -27.421  0.00  0.00    -0.168 F 
ATOM     32  F   UNL     1      33.909 -13.888 -26.426  0.00  0.00    -0.168 F 
ATOM     33  F   UNL     1      34.712 -12.456 -27.857  0.00  0.00    -0.168 F 
ATOM     34  C   UNL     1      33.799 -12.617 -26.873  0.00  0.00    +0.414 C 
ENDBRANCH  29  34
ENDBRANCH  27  29
ENDBRANCH   6  27
TORSDOF 9
ENDMDL
MODEL 5
REMARK VINA RESULT:      -8.3      3.841      6.122
REMARK  Name = 11488110
REMARK  9 active torsions:
REMARK  status: ('A' for Active; 'I' for Inactive)
REMARK    1  A    between atoms: C_6  and  N_27
REMARK    2  A    between atoms: C_7  and  C_13
REMARK    3  A    between atoms: C_16  and  O_19
REMARK    4  A    between atoms: O_19  and  C_20
REMARK    5  A    between atoms: C_20  and  C_21
REMARK    6  A    between atoms: C_21  and  C_22
REMARK    7  A    between atoms: C_22  and  N_23
REMARK    8  A    between atoms: N_27  and  C_29
REMARK    9  A    between atoms: C_29  and  C_34
REMARK                            x       y       z     vdW  Elec       q    Type
REMARK                         _______ _______ _______ _____ _____    ______ ____
ROOT
ATOM      1 CL   UNL     1      31.844 -14.391 -20.359  0.00  0.00    -0.047 Cl
ATOM      2  N   UNL     1      32.756 -11.140 -23.188  0.00  0.00    -0.107 N 
ATOM      3  N   UNL     1      31.607 -12.011 -21.270  0.00  0.00    -0.324 NA
ATOM      4  N   UNL     1      32.829  -9.970 -23.876  0.00  0.00    -0.139 NA
ATOM      5  N   UNL     1      31.385  -9.758 -22.129  0.00  0.00    -0.145 NA
ATOM      6  C   UNL     1      33.429 -12.347 -23.438  0.00  0.00    +0.136 C 
ATOM      7  C   UNL     1      33.199 -13.391 -22.611  0.00  0.00    +0.076 C 
ATOM      8  C   UNL     1      31.866 -10.985 -22.124  0.00  0.00    +0.175 C 
ATOM      9  C   UNL     1      32.226 -13.131 -21.493  0.00  0.00    +0.204 C 
ATOM     10  C   UNL     1      31.993  -9.188 -23.200  0.00  0.00    +0.230 C 
ENDROOT
BRANCH   7  13
ATOM     11  F   UNL     1      35.011 -14.420 -20.726  0.00  0.00    -0.204 F 
ATOM     12  F   UNL     1      32.723 -15.016 -24.853  0.00  0.00    -0.204 F 
ATOM     13  C   UNL     1      33.847 -14.681 -22.785  0.00  0.00    +0.061 C 
ATOM     14  C   UNL     1      34.738 -15.150 -21.818  0.00  0.00    +0.145 C 
ATOM     15  C   UNL     1      33.576 -15.452 -23.915  0.00  0.00    +0.145 C 
ATOM     16  C   UNL     1      35.089 -17.158 -23.115  0.00  0.00    +0.143 C 
ATOM     17  C   UNL     1      35.360 -16.388 -21.984  0.00  0.00    +0.067 C 
ATOM     18  C   UNL     1      34.197 -16.690 -24.080  0.00  0.00    +0.067 C 
BRANCH  16  19
ATOM     19  O   UNL     1      35.697 -18.365 -23.277  0.00  0.00    -0.475 OA
BRANCH  19  20
ATOM     20  C   UNL     1      34.898 -19.528 -23.063  0.00  0.00    +0.203 C 
BRANCH  20  21
ATOM     21  C   UNL     1      34.862 -19.832 -21.571  0.00  0.00    +0.024 C 
BRANCH  21  22
ATOM     22  C   UNL     1      33.503 -19.498 -20.964  0.00  0.00    -0.078 C 
BRANCH  22  23
ATOM     23  N   UNL     1      32.821 -20.718 -20.549  0.00  0.00    +0.382 N 
ATOM     24  C   UNL     1      33.589 -21.423 -19.533  0.00  0.00    -0.106 C 
ATOM     25  H   UNL     1      32.700 -21.326 -21.359  0.00  0.00    -0.085 HD
ATOM     26  H   UNL     1      31.914 -20.465 -20.154  0.00  0.00    -0.085 HD
ENDBRANCH  22  23
ENDBRANCH  21  22
ENDBRANCH  20  21
ENDBRANCH  19  20
ENDBRANCH  16  19
ENDBRANCH   7  13
BRANCH   6  27
ATOM     27  N   UNL     1      34.273 -12.357 -24.515  0.00  0.00    -0.314 N 
ATOM     28  H   UNL     1      35.095 -12.897 -24.462  0.00  0.00    +0.148 HD
BRANCH  27  29
ATOM     29  C   UNL     1      34.018 -11.620 -25.723  0.00  0.00    +0.166 C 
ATOM     30  C   UNL     1      35.186 -10.681 -25.996  0.00  0.00    +0.030 C 
BRANCH  29  34
ATOM     31  F   UNL     1      32.582 -12.435 -27.432  0.00  0.00    -0.168 F 
ATOM     32  F   UNL     1      33.894 -13.870 -26.442  0.00  0.00    -0.168 F 
ATOM     33  F   UNL     1      34.728 -12.419 -27.836  0.00  0.00    -0.168 F 
ATOM     34  C   UNL     1      33.799 -12.590 -26.869  0.00  0.00    +0.414 C 
ENDBRANCH  29  34
ENDBRANCH  27  29
ENDBRANCH   6  27
TORSDOF 9
ENDMDL
MODEL 6
REMARK VINA RESULT:      -8.3      8.756     13.393
REMARK  Name = 11488110
REMARK  9 active torsions:
REMARK  status: ('A' for Active; 'I' for Inactive)
REMARK    1  A    between atoms: C_6  and  N_27
REMARK    2  A    between atoms: C_7  and  C_13
REMARK    3  A    between atoms: C_16  and  O_19
REMARK    4  A    between atoms: O_19  and  C_20
REMARK    5  A    between atoms: C_20  and  C_21
REMARK    6  A    between atoms: C_21  and  C_22
REMARK    7  A    between atoms: C_22  and  N_23
REMARK    8  A    between atoms: N_27  and  C_29
REMARK    9  A    between atoms: C_29  and  C_34
REMARK                            x       y       z     vdW  Elec       q    Type
REMARK                         _______ _______ _______ _____ _____    ______ ____
ROOT
ATOM      1 CL   UNL     1      32.320  -6.077 -20.339  0.00  0.00    -0.047 Cl
ATOM      2  N   UNL     1      32.025 -10.433 -20.924  0.00  0.00    -0.107 N 
ATOM      3  N   UNL     1      31.952  -8.479 -19.534  0.00  0.00    -0.324 NA
ATOM      4  N   UNL     1      31.875 -11.777 -20.785  0.00  0.00    -0.139 NA
ATOM      5  N   UNL     1      31.602 -10.750 -18.772  0.00  0.00    -0.145 NA
ATOM      6  C   UNL     1      32.306  -9.699 -22.087  0.00  0.00    +0.136 C 
ATOM      7  C   UNL     1      32.411  -8.355 -21.985  0.00  0.00    +0.076 C 
ATOM      8  C   UNL     1      31.854  -9.827 -19.678  0.00  0.00    +0.175 C 
ATOM      9  C   UNL     1      32.211  -7.791 -20.605  0.00  0.00    +0.204 C 
ATOM     10  C   UNL     1      31.626 -11.904 -19.485  0.00  0.00    +0.230 C 
ENDROOT
BRANCH   7  13
ATOM     11  F   UNL     1      30.375  -7.164 -23.511  0.00  0.00    -0.204 F 
ATOM     12  F   UNL     1      35.037  -7.799 -22.817  0.00  0.00    -0.204 F 
ATOM     13  C   UNL     1      32.698  -7.506 -23.131  0.00  0.00    +0.061 C 
ATOM     14  C   UNL     1      31.651  -6.935 -23.856  0.00  0.00    +0.145 C 
ATOM     15  C   UNL     1      34.019  -7.259 -23.503  0.00  0.00    +0.145 C 
ATOM     16  C   UNL     1      33.247  -5.874 -25.327  0.00  0.00    +0.143 C 
ATOM     17  C   UNL     1      31.925  -6.120 -24.954  0.00  0.00    +0.067 C 
ATOM     18  C   UNL     1      34.294  -6.443 -24.601  0.00  0.00    +0.067 C 
BRANCH  16  19
ATOM     19  O   UNL     1      33.515  -5.080 -26.400  0.00  0.00    -0.475 OA
BRANCH  19  20
ATOM     20  C   UNL     1      32.477  -4.202 -26.831  0.00  0.00    +0.203 C 
BRANCH  20  21
ATOM     21  C   UNL     1      32.622  -2.873 -26.102  0.00  0.00    +0.024 C 
BRANCH  21  22
ATOM     22  C   UNL     1      31.268  -2.214 -25.863  0.00  0.00    -0.078 C 
BRANCH  22  23
ATOM     23  N   UNL     1      30.545  -2.913 -24.807  0.00  0.00    +0.382 N 
ATOM     24  C   UNL     1      31.224  -2.767 -23.527  0.00  0.00    -0.106 C 
ATOM     25  H   UNL     1      30.485  -3.904 -25.042  0.00  0.00    -0.085 HD
ATOM     26  H   UNL     1      29.611  -2.508 -24.728  0.00  0.00    -0.085 HD
ENDBRANCH  22  23
ENDBRANCH  21  22
ENDBRANCH  20  21
ENDBRANCH  19  20
ENDBRANCH  16  19
ENDBRANCH   7  13
BRANCH   6  27
ATOM     27  N   UNL     1      32.449 -10.422 -23.240  0.00  0.00    -0.314 N 
ATOM     28  H   UNL     1      31.709 -10.420 -23.889  0.00  0.00    +0.148 HD
BRANCH  27  29
ATOM     29  C   UNL     1      33.628 -11.184 -23.551  0.00  0.00    +0.166 C 
ATOM     30  C   UNL     1      33.256 -12.655 -23.687  0.00  0.00    +0.030 C 
BRANCH  29  34
ATOM     31  F   UNL     1      34.432 -11.614 -25.746  0.00  0.00    -0.168 F 
ATOM     32  F   UNL     1      35.464 -10.095 -24.567  0.00  0.00    -0.168 F 
ATOM     33  F   UNL     1      33.484  -9.682 -25.375  0.00  0.00    -0.168 F 
ATOM     34  C   UNL     1      34.256 -10.645 -24.822  0.00  0.00    +0.414 C 
ENDBRANCH  29  34
ENDBRANCH  27  29
ENDBRANCH   6  27
TORSDOF 9
ENDMDL
MODEL 7
REMARK VINA RESULT:      -8.2      8.785     13.435
REMARK  Name = 11488110
REMARK  9 active torsions:
REMARK  status: ('A' for Active; 'I' for Inactive)
REMARK    1  A    between atoms: C_6  and  N_27
REMARK    2  A    between atoms: C_7  and  C_13
REMARK    3  A    between atoms: C_16  and  O_19
REMARK    4  A    between atoms: O_19  and  C_20
REMARK    5  A    between atoms: C_20  and  C_21
REMARK    6  A    between atoms: C_21  and  C_22
REMARK    7  A    between atoms: C_22  and  N_23
REMARK    8  A    between atoms: N_27  and  C_29
REMARK    9  A    between atoms: C_29  and  C_34
REMARK                            x       y       z     vdW  Elec       q    Type
REMARK                         _______ _______ _______ _____ _____    ______ ____
ROOT
ATOM      1 CL   UNL     1      32.506  -5.973 -20.417  0.00  0.00    -0.047 Cl
ATOM      2  N   UNL     1      32.005 -10.318 -20.935  0.00  0.00    -0.107 N 
ATOM      3  N   UNL     1      32.018  -8.340 -19.576  0.00  0.00    -0.324 NA
ATOM      4  N   UNL     1      31.789 -11.651 -20.775  0.00  0.00    -0.139 NA
ATOM      5  N   UNL     1      31.554 -10.580 -18.781  0.00  0.00    -0.145 NA
ATOM      6  C   UNL     1      32.327  -9.617 -22.107  0.00  0.00    +0.136 C 
ATOM      7  C   UNL     1      32.496  -8.278 -22.026  0.00  0.00    +0.076 C 
ATOM      8  C   UNL     1      31.855  -9.685 -19.700  0.00  0.00    +0.175 C 
ATOM      9  C   UNL     1      32.316  -7.683 -20.656  0.00  0.00    +0.204 C 
ATOM     10  C   UNL     1      31.526 -11.745 -19.476  0.00  0.00    +0.230 C 
ENDROOT
BRANCH   7  13
ATOM     11  F   UNL     1      30.536  -6.939 -23.528  0.00  0.00    -0.204 F 
ATOM     12  F   UNL     1      35.144  -7.940 -22.906  0.00  0.00    -0.204 F 
ATOM     13  C   UNL     1      32.831  -7.463 -23.183  0.00  0.00    +0.061 C 
ATOM     14  C   UNL     1      31.821  -6.816 -23.896  0.00  0.00    +0.145 C 
ATOM     15  C   UNL     1      34.161  -7.325 -23.579  0.00  0.00    +0.145 C 
ATOM     16  C   UNL     1      33.472  -5.895 -25.401  0.00  0.00    +0.143 C 
ATOM     17  C   UNL     1      32.141  -6.033 -25.005  0.00  0.00    +0.067 C 
ATOM     18  C   UNL     1      34.481  -6.541 -24.688  0.00  0.00    +0.067 C 
BRANCH  16  19
ATOM     19  O   UNL     1      33.783  -5.132 -26.484  0.00  0.00    -0.475 OA
BRANCH  19  20
ATOM     20  C   UNL     1      32.743  -4.320 -27.026  0.00  0.00    +0.203 C 
BRANCH  20  21
ATOM     21  C   UNL     1      32.882  -4.288 -28.542  0.00  0.00    +0.024 C 
BRANCH  21  22
ATOM     22  C   UNL     1      34.333  -4.087 -28.967  0.00  0.00    -0.078 C 
BRANCH  22  23
ATOM     23  N   UNL     1      34.938  -3.001 -28.205  0.00  0.00    +0.382 N 
ATOM     24  C   UNL     1      36.368  -3.219 -28.035  0.00  0.00    -0.106 C 
ATOM     25  H   UNL     1      34.496  -2.951 -27.286  0.00  0.00    -0.085 HD
ATOM     26  H   UNL     1      34.800  -2.128 -28.715  0.00  0.00    -0.085 HD
ENDBRANCH  22  23
ENDBRANCH  21  22
ENDBRANCH  20  21
ENDBRANCH  19  20
ENDBRANCH  16  19
ENDBRANCH   7  13
BRANCH   6  27
ATOM     27  N   UNL     1      32.442 -10.365 -23.248  0.00  0.00    -0.314 N 
ATOM     28  H   UNL     1      31.701 -10.348 -23.896  0.00  0.00    +0.148 HD
BRANCH  27  29
ATOM     29  C   UNL     1      33.592 -11.174 -23.547  0.00  0.00    +0.166 C 
ATOM     30  C   UNL     1      33.187 -12.642 -23.561  0.00  0.00    +0.030 C 
BRANCH  29  34
ATOM     31  F   UNL     1      35.417 -10.221 -24.735  0.00  0.00    -0.168 F 
ATOM     32  F   UNL     1      33.403  -9.803 -25.465  0.00  0.00    -0.168 F 
ATOM     33  F   UNL     1      34.266 -11.785 -25.733  0.00  0.00    -0.168 F 
ATOM     34  C   UNL     1      34.179 -10.742 -24.878  0.00  0.00    +0.414 C 
ENDBRANCH  29  34
ENDBRANCH  27  29
ENDBRANCH   6  27
TORSDOF 9
ENDMDL
MODEL 8
REMARK VINA RESULT:      -8.2      7.912     12.518
REMARK  Name = 11488110
REMARK  9 active torsions:
REMARK  status: ('A' for Active; 'I' for Inactive)
REMARK    1  A    between atoms: C_6  and  N_27
REMARK    2  A    between atoms: C_7  and  C_13
REMARK    3  A    between atoms: C_16  and  O_19
REMARK    4  A    between atoms: O_19  and  C_20
REMARK    5  A    between atoms: C_20  and  C_21
REMARK    6  A    between atoms: C_21  and  C_22
REMARK    7  A    between atoms: C_22  and  N_23
REMARK    8  A    between atoms: N_27  and  C_29
REMARK    9  A    between atoms: C_29  and  C_34
REMARK                            x       y       z     vdW  Elec       q    Type
REMARK                         _______ _______ _______ _____ _____    ______ ____
ROOT
ATOM      1 CL   UNL     1      30.596 -10.447 -19.653  0.00  0.00    -0.047 Cl
ATOM      2  N   UNL     1      32.852 -12.037 -23.086  0.00  0.00    -0.107 N 
ATOM      3  N   UNL     1      31.652 -12.329 -21.029  0.00  0.00    -0.324 NA
ATOM      4  N   UNL     1      33.494 -12.814 -23.999  0.00  0.00    -0.139 NA
ATOM      5  N   UNL     1      32.648 -14.111 -22.331  0.00  0.00    -0.145 NA
ATOM      6  C   UNL     1      32.683 -10.644 -23.085  0.00  0.00    +0.136 C 
ATOM      7  C   UNL     1      32.001 -10.083 -22.062  0.00  0.00    +0.076 C 
ATOM      8  C   UNL     1      32.344 -12.855 -22.075  0.00  0.00    +0.175 C 
ATOM      9  C   UNL     1      31.490 -11.040 -21.020  0.00  0.00    +0.204 C 
ATOM     10  C   UNL     1      33.339 -14.034 -23.496  0.00  0.00    +0.230 C 
ENDROOT
BRANCH   7  13
ATOM     11  F   UNL     1      33.233  -8.494 -20.100  0.00  0.00    -0.204 F 
ATOM     12  F   UNL     1      30.297  -8.722 -23.834  0.00  0.00    -0.204 F 
ATOM     13  C   UNL     1      31.771  -8.649 -21.970  0.00  0.00    +0.061 C 
ATOM     14  C   UNL     1      32.409  -7.903 -20.978  0.00  0.00    +0.145 C 
ATOM     15  C   UNL     1      30.917  -8.020 -22.875  0.00  0.00    +0.145 C 
ATOM     16  C   UNL     1      31.335  -5.899 -21.795  0.00  0.00    +0.143 C 
ATOM     17  C   UNL     1      32.190  -6.528 -20.890  0.00  0.00    +0.067 C 
ATOM     18  C   UNL     1      30.698  -6.644 -22.787  0.00  0.00    +0.067 C 
BRANCH  16  19
ATOM     19  O   UNL     1      31.120  -4.558 -21.707  0.00  0.00    -0.475 OA
BRANCH  19  20
ATOM     20  C   UNL     1      30.597  -3.907 -22.864  0.00  0.00    +0.203 C 
BRANCH  20  21
ATOM     21  C   UNL     1      31.743  -3.245 -23.617  0.00  0.00    +0.024 C 
BRANCH  21  22
ATOM     22  C   UNL     1      31.284  -2.690 -24.961  0.00  0.00    -0.078 C 
BRANCH  22  23
ATOM     23  N   UNL     1      31.463  -3.687 -26.009  0.00  0.00    +0.382 N 
ATOM     24  C   UNL     1      32.630  -4.517 -25.742  0.00  0.00    -0.106 C 
ATOM     25  H   UNL     1      31.588  -3.213 -26.904  0.00  0.00    -0.085 HD
ATOM     26  H   UNL     1      30.637  -4.286 -26.034  0.00  0.00    -0.085 HD
ENDBRANCH  22  23
ENDBRANCH  21  22
ENDBRANCH  20  21
ENDBRANCH  19  20
ENDBRANCH  16  19
ENDBRANCH   7  13
BRANCH   6  27
ATOM     27  N   UNL     1      33.234  -9.966 -24.139  0.00  0.00    -0.314 N 
ATOM     28  H   UNL     1      32.674  -9.796 -24.931  0.00  0.00    +0.148 HD
BRANCH  27  29
ATOM     29  C   UNL     1      34.590  -9.490 -24.147  0.00  0.00    +0.166 C 
ATOM     30  C   UNL     1      35.336 -10.110 -25.322  0.00  0.00    +0.030 C 
BRANCH  29  34
ATOM     31  F   UNL     1      35.177  -7.419 -23.137  0.00  0.00    -0.168 F 
ATOM     32  F   UNL     1      33.329  -7.495 -24.296  0.00  0.00    -0.168 F 
ATOM     33  F   UNL     1      35.253  -7.541 -25.316  0.00  0.00    -0.168 F 
ATOM     34  C   UNL     1      34.591  -7.974 -24.220  0.00  0.00    +0.414 C 
ENDBRANCH  29  34
ENDBRANCH  27  29
ENDBRANCH   6  27
TORSDOF 9
ENDMDL
MODEL 9
REMARK VINA RESULT:      -8.2      8.830     13.415
REMARK  Name = 11488110
REMARK  9 active torsions:
REMARK  status: ('A' for Active; 'I' for Inactive)
REMARK    1  A    between atoms: C_6  and  N_27
REMARK    2  A    between atoms: C_7  and  C_13
REMARK    3  A    between atoms: C_16  and  O_19
REMARK    4  A    between atoms: O_19  and  C_20
REMARK    5  A    between atoms: C_20  and  C_21
REMARK    6  A    between atoms: C_21  and  C_22
REMARK    7  A    between atoms: C_22  and  N_23
REMARK    8  A    between atoms: N_27  and  C_29
REMARK    9  A    between atoms: C_29  and  C_34
REMARK                            x       y       z     vdW  Elec       q    Type
REMARK                         _______ _______ _______ _____ _____    ______ ____
ROOT
ATOM      1 CL   UNL     1      32.405  -5.908 -20.494  0.00  0.00    -0.047 Cl
ATOM      2  N   UNL     1      32.018 -10.270 -20.971  0.00  0.00    -0.107 N 
ATOM      3  N   UNL     1      31.968  -8.279 -19.633  0.00  0.00    -0.324 NA
ATOM      4  N   UNL     1      31.834 -11.606 -20.800  0.00  0.00    -0.139 NA
ATOM      5  N   UNL     1      31.552 -10.521 -18.820  0.00  0.00    -0.145 NA
ATOM      6  C   UNL     1      32.335  -9.573 -22.148  0.00  0.00    +0.136 C 
ATOM      7  C   UNL     1      32.470  -8.230 -22.080  0.00  0.00    +0.076 C 
ATOM      8  C   UNL     1      31.841  -9.628 -19.744  0.00  0.00    +0.175 C 
ATOM      9  C   UNL     1      32.260  -7.625 -20.717  0.00  0.00    +0.204 C 
ATOM     10  C   UNL     1      31.561 -11.693 -19.502  0.00  0.00    +0.230 C 
ENDROOT
BRANCH   7  13
ATOM     11  F   UNL     1      35.120  -7.780 -22.894  0.00  0.00    -0.204 F 
ATOM     12  F   UNL     1      30.490  -7.009 -23.656  0.00  0.00    -0.204 F 
ATOM     13  C   UNL     1      32.795  -7.418 -23.242  0.00  0.00    +0.061 C 
ATOM     14  C   UNL     1      34.128  -7.226 -23.607  0.00  0.00    +0.145 C 
ATOM     15  C   UNL     1      31.776  -6.834 -23.993  0.00  0.00    +0.145 C 
ATOM     16  C   UNL     1      33.421  -5.863 -25.473  0.00  0.00    +0.143 C 
ATOM     17  C   UNL     1      34.441  -6.448 -24.722  0.00  0.00    +0.067 C 
ATOM     18  C   UNL     1      32.088  -6.056 -25.108  0.00  0.00    +0.067 C 
BRANCH  16  19
ATOM     19  O   UNL     1      33.727  -5.103 -26.559  0.00  0.00    -0.475 OA
BRANCH  19  20
ATOM     20  C   UNL     1      33.060  -3.847 -26.681  0.00  0.00    +0.203 C 
BRANCH  20  21
ATOM     21  C   UNL     1      32.363  -3.789 -28.033  0.00  0.00    +0.024 C 
BRANCH  21  22
ATOM     22  C   UNL     1      33.311  -4.161 -29.168  0.00  0.00    -0.078 C 
BRANCH  22  23
ATOM     23  N   UNL     1      34.616  -3.544 -28.962  0.00  0.00    +0.382 N 
ATOM     24  C   UNL     1      35.679  -4.387 -29.489  0.00  0.00    -0.106 C 
ATOM     25  H   UNL     1      34.765  -3.404 -27.962  0.00  0.00    -0.085 HD
ATOM     26  H   UNL     1      34.635  -2.650 -29.453  0.00  0.00    -0.085 HD
ENDBRANCH  22  23
ENDBRANCH  21  22
ENDBRANCH  20  21
ENDBRANCH  19  20
ENDBRANCH  16  19
ENDBRANCH   7  13
BRANCH   6  27
ATOM     27  N   UNL     1      32.480 -10.329 -23.279  0.00  0.00    -0.314 N 
ATOM     28  H   UNL     1      31.756 -10.318 -23.947  0.00  0.00    +0.148 HD
BRANCH  27  29
ATOM     29  C   UNL     1      33.638 -11.140 -23.543  0.00  0.00    +0.166 C 
ATOM     30  C   UNL     1      33.215 -12.597 -23.671  0.00  0.00    +0.030 C 
BRANCH  29  34
ATOM     31  F   UNL     1      35.543 -10.123 -24.536  0.00  0.00    -0.168 F 
ATOM     32  F   UNL     1      33.590  -9.680 -25.403  0.00  0.00    -0.168 F 
ATOM     33  F   UNL     1      34.487 -11.643 -25.694  0.00  0.00    -0.168 F 
ATOM     34  C   UNL     1      34.325 -10.642 -24.801  0.00  0.00    +0.414 C 
ENDBRANCH  29  34
ENDBRANCH  27  29
ENDBRANCH   6  27
TORSDOF 9
ENDMDL
