MODEL 1
REMARK VINA RESULT:      -7.3      0.000      0.000
REMARK  Name = 64993
REMARK  7 active torsions:
REMARK  status: ('A' for Active; 'I' for Inactive)
REMARK    1  A    between atoms: N_3  and  C_18
REMARK    2  A    between atoms: C_5  and  S_11
REMARK    3  A    between atoms: S_11  and  C_12
REMARK    4  A    between atoms: C_18  and  O_19
REMARK    5  A    between atoms: O_19  and  C_20
REMARK    6  A    between atoms: C_20  and  C_21
REMARK    7  A    between atoms: C_21  and  O_22
REMARK                            x       y       z     vdW  Elec       q    Type
REMARK                         _______ _______ _______ _____ _____    ______ ____
ROOT
ATOM      1  O   UNL     1      32.320 -23.177 -17.954  0.00  0.00    -0.246 OA
ATOM      2  O   UNL     1      36.526 -21.620 -18.799  0.00  0.00    -0.267 OA
ATOM      3  N   UNL     1      33.858 -23.185 -16.191  0.00  0.00    -0.250 N 
ATOM      4  N   UNL     1      34.424 -22.400 -18.343  0.00  0.00    -0.275 N 
ATOM      5  C   UNL     1      35.158 -22.886 -15.749  0.00  0.00    +0.097 A 
ATOM      6  C   UNL     1      36.084 -22.342 -16.571  0.00  0.00    +0.056 A 
ATOM      7  C   UNL     1      33.449 -22.942 -17.515  0.00  0.00    +0.333 A 
ATOM      8  C   UNL     1      35.720 -22.088 -17.999  0.00  0.00    +0.259 A 
ATOM      9  C   UNL     1      37.515 -21.991 -16.244  0.00  0.00    +0.038 C 
ATOM     10  H   UNL     1      34.160 -22.221 -19.274  0.00  0.00    +0.173 HD
ENDROOT
BRANCH   5  11
ATOM     11  S   UNL     1      35.544 -23.204 -14.064  0.00  0.00    -0.070 S 
BRANCH  11  12
ATOM     12  C   UNL     1      36.567 -24.638 -14.311  0.00  0.00    +0.031 C 
ATOM     13  C   UNL     1      37.855 -24.683 -13.772  0.00  0.00    +0.007 C 
ATOM     14  C   UNL     1      36.086 -25.725 -15.044  0.00  0.00    +0.007 C 
ATOM     15  C   UNL     1      38.657 -25.808 -13.965  0.00  0.00    +0.001 C 
ATOM     16  C   UNL     1      36.888 -26.850 -15.238  0.00  0.00    +0.001 C 
ATOM     17  C   UNL     1      38.173 -26.891 -14.698  0.00  0.00    +0.000 C 
ENDBRANCH  11  12
ENDBRANCH   5  11
BRANCH   3  18
ATOM     18  C   UNL     1      32.900 -23.767 -15.246  0.00  0.00    +0.260 C 
BRANCH  18  19
ATOM     19  O   UNL     1      32.044 -22.737 -14.773  0.00  0.00    -0.329 OA
BRANCH  19  20
ATOM     20  C   UNL     1      30.729 -23.220 -14.536  0.00  0.00    +0.176 C 
BRANCH  20  21
ATOM     21  C   UNL     1      30.804 -24.676 -14.121  0.00  0.00    +0.169 C 
BRANCH  21  22
ATOM     22  O   UNL     1      30.512 -24.777 -12.732  0.00  0.00    -0.379 OA
ATOM     23  H   UNL     1      31.292 -25.108 -12.260  0.00  0.00    +0.211 HD
ENDBRANCH  21  22
ENDBRANCH  20  21
ENDBRANCH  19  20
ENDBRANCH  18  19
ENDBRANCH   3  18
TORSDOF 7
ENDMDL
MODEL 2
REMARK VINA RESULT:      -7.1      7.407      9.837
REMARK  Name = 64993
REMARK  7 active torsions:
REMARK  status: ('A' for Active; 'I' for Inactive)
REMARK    1  A    between atoms: N_3  and  C_18
REMARK    2  A    between atoms: C_5  and  S_11
REMARK    3  A    between atoms: S_11  and  C_12
REMARK    4  A    between atoms: C_18  and  O_19
REMARK    5  A    between atoms: O_19  and  C_20
REMARK    6  A    between atoms: C_20  and  C_21
REMARK    7  A    between atoms: C_21  and  O_22
REMARK                            x       y       z     vdW  Elec       q    Type
REMARK                         _______ _______ _______ _____ _____    ______ ____
ROOT
ATOM      1  O   UNL     1      33.548 -14.276 -23.922  0.00  0.00    -0.246 OA
ATOM      2  O   UNL     1      33.997 -18.318 -25.993  0.00  0.00    -0.267 OA
ATOM      3  N   UNL     1      34.645 -15.981 -22.755  0.00  0.00    -0.250 N 
ATOM      4  N   UNL     1      33.794 -16.301 -24.931  0.00  0.00    -0.275 N 
ATOM      5  C   UNL     1      35.111 -17.307 -22.750  0.00  0.00    +0.097 A 
ATOM      6  C   UNL     1      34.941 -18.126 -23.813  0.00  0.00    +0.056 A 
ATOM      7  C   UNL     1      33.971 -15.434 -23.861  0.00  0.00    +0.333 A 
ATOM      8  C   UNL     1      34.205 -17.614 -25.008  0.00  0.00    +0.259 A 
ATOM      9  C   UNL     1      35.364 -19.569 -23.941  0.00  0.00    +0.038 C 
ATOM     10  H   UNL     1      33.325 -15.940 -25.717  0.00  0.00    +0.173 HD
ENDROOT
BRANCH   5  11
ATOM     11  S   UNL     1      35.967 -17.870 -21.322  0.00  0.00    -0.070 S 
BRANCH  11  12
ATOM     12  C   UNL     1      34.813 -19.127 -20.820  0.00  0.00    +0.031 C 
ATOM     13  C   UNL     1      33.438 -18.907 -20.941  0.00  0.00    +0.007 C 
ATOM     14  C   UNL     1      35.275 -20.339 -20.304  0.00  0.00    +0.007 C 
ATOM     15  C   UNL     1      32.533 -19.892 -20.549  0.00  0.00    +0.001 C 
ATOM     16  C   UNL     1      34.370 -21.325 -19.911  0.00  0.00    +0.001 C 
ATOM     17  C   UNL     1      32.999 -21.101 -20.034  0.00  0.00    +0.000 C 
ENDBRANCH  11  12
ENDBRANCH   5  11
BRANCH   3  18
ATOM     18  C   UNL     1      34.867 -15.144 -21.571  0.00  0.00    +0.260 C 
BRANCH  18  19
ATOM     19  O   UNL     1      34.009 -15.589 -20.531  0.00  0.00    -0.329 OA
BRANCH  19  20
ATOM     20  C   UNL     1      32.659 -15.221 -20.776  0.00  0.00    +0.176 C 
BRANCH  20  21
ATOM     21  C   UNL     1      32.544 -13.710 -20.738  0.00  0.00    +0.169 C 
BRANCH  21  22
ATOM     22  O   UNL     1      31.855 -13.268 -21.901  0.00  0.00    -0.379 OA
ATOM     23  H   UNL     1      31.127 -12.679 -21.643  0.00  0.00    +0.211 HD
ENDBRANCH  21  22
ENDBRANCH  20  21
ENDBRANCH  19  20
ENDBRANCH  18  19
ENDBRANCH   3  18
TORSDOF 7
ENDMDL
MODEL 3
REMARK VINA RESULT:      -6.9     14.834     17.077
REMARK  Name = 64993
REMARK  7 active torsions:
REMARK  status: ('A' for Active; 'I' for Inactive)
REMARK    1  A    between atoms: N_3  and  C_18
REMARK    2  A    between atoms: C_5  and  S_11
REMARK    3  A    between atoms: S_11  and  C_12
REMARK    4  A    between atoms: C_18  and  O_19
REMARK    5  A    between atoms: O_19  and  C_20
REMARK    6  A    between atoms: C_20  and  C_21
REMARK    7  A    between atoms: C_21  and  O_22
REMARK                            x       y       z     vdW  Elec       q    Type
REMARK                         _______ _______ _______ _____ _____    ______ ____
ROOT
ATOM      1  O   UNL     1      32.827  -6.604 -19.142  0.00  0.00    -0.246 OA
ATOM      2  O   UNL     1      31.428  -4.590 -22.992  0.00  0.00    -0.267 OA
ATOM      3  N   UNL     1      32.127  -7.981 -20.899  0.00  0.00    -0.250 N 
ATOM      4  N   UNL     1      32.130  -5.629 -21.077  0.00  0.00    -0.275 N 
ATOM      5  C   UNL     1      31.641  -8.073 -22.215  0.00  0.00    +0.097 A 
ATOM      6  C   UNL     1      31.410  -6.973 -22.968  0.00  0.00    +0.056 A 
ATOM      7  C   UNL     1      32.393  -6.742 -20.289  0.00  0.00    +0.333 A 
ATOM      8  C   UNL     1      31.644  -5.625 -22.366  0.00  0.00    +0.259 A 
ATOM      9  C   UNL     1      30.871  -6.918 -24.376  0.00  0.00    +0.038 C 
ATOM     10  H   UNL     1      32.309  -4.751 -20.672  0.00  0.00    +0.173 HD
ENDROOT
BRANCH   5  11
ATOM     11  S   UNL     1      31.375  -9.678 -22.880  0.00  0.00    -0.070 S 
BRANCH  11  12
ATOM     12  C   UNL     1      32.929  -9.855 -23.727  0.00  0.00    +0.031 C 
ATOM     13  C   UNL     1      33.212 -11.023 -24.440  0.00  0.00    +0.007 C 
ATOM     14  C   UNL     1      33.873  -8.826 -23.685  0.00  0.00    +0.007 C 
ATOM     15  C   UNL     1      34.430 -11.162 -25.105  0.00  0.00    +0.001 C 
ATOM     16  C   UNL     1      35.091  -8.964 -24.349  0.00  0.00    +0.001 C 
ATOM     17  C   UNL     1      35.370 -10.132 -25.059  0.00  0.00    +0.000 C 
ENDBRANCH  11  12
ENDBRANCH   5  11
BRANCH   3  18
ATOM     18  C   UNL     1      32.363  -9.214 -20.139  0.00  0.00    +0.260 C 
BRANCH  18  19
ATOM     19  O   UNL     1      31.274  -9.414 -19.250  0.00  0.00    -0.329 OA
BRANCH  19  20
ATOM     20  C   UNL     1      30.794 -10.750 -19.306  0.00  0.00    +0.176 C 
BRANCH  20  21
ATOM     21  C   UNL     1      31.926 -11.665 -19.730  0.00  0.00    +0.169 C 
BRANCH  21  22
ATOM     22  O   UNL     1      31.480 -12.491 -20.799  0.00  0.00    -0.379 OA
ATOM     23  H   UNL     1      31.600 -12.024 -21.641  0.00  0.00    +0.211 HD
ENDBRANCH  21  22
ENDBRANCH  20  21
ENDBRANCH  19  20
ENDBRANCH  18  19
ENDBRANCH   3  18
TORSDOF 7
ENDMDL
MODEL 4
REMARK VINA RESULT:      -6.8     15.201     17.669
REMARK  Name = 64993
REMARK  7 active torsions:
REMARK  status: ('A' for Active; 'I' for Inactive)
REMARK    1  A    between atoms: N_3  and  C_18
REMARK    2  A    between atoms: C_5  and  S_11
REMARK    3  A    between atoms: S_11  and  C_12
REMARK    4  A    between atoms: C_18  and  O_19
REMARK    5  A    between atoms: O_19  and  C_20
REMARK    6  A    between atoms: C_20  and  C_21
REMARK    7  A    between atoms: C_21  and  O_22
REMARK                            x       y       z     vdW  Elec       q    Type
REMARK                         _______ _______ _______ _____ _____    ______ ____
ROOT
ATOM      1  O   UNL     1      32.911  -6.674 -19.207  0.00  0.00    -0.246 OA
ATOM      2  O   UNL     1      31.711 -11.069 -18.916  0.00  0.00    -0.267 OA
ATOM      3  N   UNL     1      32.203  -7.742 -21.165  0.00  0.00    -0.250 N 
ATOM      4  N   UNL     1      32.299  -8.864 -19.092  0.00  0.00    -0.275 N 
ATOM      5  C   UNL     1      31.728  -8.918 -21.771  0.00  0.00    +0.097 A 
ATOM      6  C   UNL     1      31.525 -10.052 -21.064  0.00  0.00    +0.056 A 
ATOM      7  C   UNL     1      32.499  -7.680 -19.791  0.00  0.00    +0.333 A 
ATOM      8  C   UNL     1      31.850 -10.061 -19.605  0.00  0.00    +0.259 A 
ATOM      9  C   UNL     1      31.044 -11.387 -21.580  0.00  0.00    +0.038 C 
ATOM     10  H   UNL     1      32.500  -8.845 -18.129  0.00  0.00    +0.173 HD
ENDROOT
BRANCH   5  11
ATOM     11  S   UNL     1      31.362  -8.864 -23.490  0.00  0.00    -0.070 S 
BRANCH  11  12
ATOM     12  C   UNL     1      32.919  -9.477 -24.093  0.00  0.00    +0.031 C 
ATOM     13  C   UNL     1      33.024 -10.791 -24.558  0.00  0.00    +0.007 C 
ATOM     14  C   UNL     1      34.043  -8.648 -24.106  0.00  0.00    +0.007 C 
ATOM     15  C   UNL     1      34.244 -11.271 -25.033  0.00  0.00    +0.001 C 
ATOM     16  C   UNL     1      35.263  -9.128 -24.579  0.00  0.00    +0.001 C 
ATOM     17  C   UNL     1      35.363 -10.440 -25.042  0.00  0.00    +0.000 C 
ENDBRANCH  11  12
ENDBRANCH   5  11
BRANCH   3  18
ATOM     18  C   UNL     1      32.396  -6.543 -21.988  0.00  0.00    +0.260 C 
BRANCH  18  19
ATOM     19  O   UNL     1      31.221  -5.748 -21.915  0.00  0.00    -0.329 OA
BRANCH  19  20
ATOM     20  C   UNL     1      30.927  -5.137 -23.163  0.00  0.00    +0.176 C 
BRANCH  20  21
ATOM     21  C   UNL     1      31.249  -3.658 -23.078  0.00  0.00    +0.169 C 
BRANCH  21  22
ATOM     22  O   UNL     1      30.294  -3.024 -22.236  0.00  0.00    -0.379 OA
ATOM     23  H   UNL     1      30.591  -2.122 -22.032  0.00  0.00    +0.211 HD
ENDBRANCH  21  22
ENDBRANCH  20  21
ENDBRANCH  19  20
ENDBRANCH  18  19
ENDBRANCH   3  18
TORSDOF 7
ENDMDL
MODEL 5
REMARK VINA RESULT:      -6.7     15.088     17.741
REMARK  Name = 64993
REMARK  7 active torsions:
REMARK  status: ('A' for Active; 'I' for Inactive)
REMARK    1  A    between atoms: N_3  and  C_18
REMARK    2  A    between atoms: C_5  and  S_11
REMARK    3  A    between atoms: S_11  and  C_12
REMARK    4  A    between atoms: C_18  and  O_19
REMARK    5  A    between atoms: O_19  and  C_20
REMARK    6  A    between atoms: C_20  and  C_21
REMARK    7  A    between atoms: C_21  and  O_22
REMARK                            x       y       z     vdW  Elec       q    Type
REMARK                         _______ _______ _______ _____ _____    ______ ____
ROOT
ATOM      1  O   UNL     1      32.320 -10.781 -19.769  0.00  0.00    -0.246 OA
ATOM      2  O   UNL     1      32.790  -6.282 -19.160  0.00  0.00    -0.267 OA
ATOM      3  N   UNL     1      31.660  -9.371 -21.515  0.00  0.00    -0.250 N 
ATOM      4  N   UNL     1      32.549  -8.533 -19.498  0.00  0.00    -0.275 N 
ATOM      5  C   UNL     1      31.535  -8.057 -21.998  0.00  0.00    +0.097 A 
ATOM      6  C   UNL     1      31.917  -6.988 -21.262  0.00  0.00    +0.056 A 
ATOM      7  C   UNL     1      32.182  -9.649 -20.239  0.00  0.00    +0.333 A 
ATOM      8  C   UNL     1      32.451  -7.214 -19.885  0.00  0.00    +0.259 A 
ATOM      9  C   UNL     1      31.822  -5.530 -21.638  0.00  0.00    +0.038 C 
ATOM     10  H   UNL     1      32.918  -8.702 -18.601  0.00  0.00    +0.173 HD
ENDROOT
BRANCH   5  11
ATOM     11  S   UNL     1      30.898  -7.837 -23.622  0.00  0.00    -0.070 S 
BRANCH  11  12
ATOM     12  C   UNL     1      32.343  -7.107 -24.358  0.00  0.00    +0.031 C 
ATOM     13  C   UNL     1      33.608  -7.643 -24.102  0.00  0.00    +0.007 C 
ATOM     14  C   UNL     1      32.219  -5.996 -25.195  0.00  0.00    +0.007 C 
ATOM     15  C   UNL     1      34.741  -7.071 -24.681  0.00  0.00    +0.001 C 
ATOM     16  C   UNL     1      33.352  -5.424 -25.773  0.00  0.00    +0.001 C 
ATOM     17  C   UNL     1      34.613  -5.961 -25.515  0.00  0.00    +0.000 C 
ENDBRANCH  11  12
ENDBRANCH   5  11
BRANCH   3  18
ATOM     18  C   UNL     1      31.233 -10.487 -22.367  0.00  0.00    +0.260 C 
BRANCH  18  19
ATOM     19  O   UNL     1      32.386 -11.103 -22.920  0.00  0.00    -0.329 OA
BRANCH  19  20
ATOM     20  C   UNL     1      32.339 -12.516 -22.781  0.00  0.00    +0.176 C 
BRANCH  20  21
ATOM     21  C   UNL     1      33.473 -13.130 -23.578  0.00  0.00    +0.169 C 
BRANCH  21  22
ATOM     22  O   UNL     1      34.258 -12.088 -24.146  0.00  0.00    -0.379 OA
ATOM     23  H   UNL     1      35.087 -12.458 -24.489  0.00  0.00    +0.211 HD
ENDBRANCH  21  22
ENDBRANCH  20  21
ENDBRANCH  19  20
ENDBRANCH  18  19
ENDBRANCH   3  18
TORSDOF 7
ENDMDL
MODEL 6
REMARK VINA RESULT:      -6.6     14.841     17.678
REMARK  Name = 64993
REMARK  7 active torsions:
REMARK  status: ('A' for Active; 'I' for Inactive)
REMARK    1  A    between atoms: N_3  and  C_18
REMARK    2  A    between atoms: C_5  and  S_11
REMARK    3  A    between atoms: S_11  and  C_12
REMARK    4  A    between atoms: C_18  and  O_19
REMARK    5  A    between atoms: O_19  and  C_20
REMARK    6  A    between atoms: C_20  and  C_21
REMARK    7  A    between atoms: C_21  and  O_22
REMARK                            x       y       z     vdW  Elec       q    Type
REMARK                         _______ _______ _______ _____ _____    ______ ____
ROOT
ATOM      1  O   UNL     1      31.436 -11.805 -22.459  0.00  0.00    -0.246 OA
ATOM      2  O   UNL     1      31.592  -8.811 -19.018  0.00  0.00    -0.267 OA
ATOM      3  N   UNL     1      32.691  -9.855 -22.769  0.00  0.00    -0.250 N 
ATOM      4  N   UNL     1      31.539 -10.296 -20.758  0.00  0.00    -0.275 N 
ATOM      5  C   UNL     1      33.155  -8.643 -22.229  0.00  0.00    +0.097 A 
ATOM      6  C   UNL     1      32.836  -8.254 -20.973  0.00  0.00    +0.056 A 
ATOM      7  C   UNL     1      31.865 -10.728 -22.038  0.00  0.00    +0.333 A 
ATOM      8  C   UNL     1      31.936  -9.123 -20.155  0.00  0.00    +0.259 A 
ATOM      9  C   UNL     1      33.239  -6.979 -20.273  0.00  0.00    +0.038 C 
ATOM     10  H   UNL     1      30.962 -10.890 -20.227  0.00  0.00    +0.173 HD
ENDROOT
BRANCH   5  11
ATOM     11  S   UNL     1      34.207  -7.650 -23.227  0.00  0.00    -0.070 S 
BRANCH  11  12
ATOM     12  C   UNL     1      32.964  -6.568 -23.896  0.00  0.00    +0.031 C 
ATOM     13  C   UNL     1      31.704  -6.490 -23.297  0.00  0.00    +0.007 C 
ATOM     14  C   UNL     1      33.243  -5.791 -25.022  0.00  0.00    +0.007 C 
ATOM     15  C   UNL     1      30.730  -5.641 -23.821  0.00  0.00    +0.001 C 
ATOM     16  C   UNL     1      32.269  -4.942 -25.547  0.00  0.00    +0.001 C 
ATOM     17  C   UNL     1      31.012  -4.867 -24.946  0.00  0.00    +0.000 C 
ENDBRANCH  11  12
ENDBRANCH   5  11
BRANCH   3  18
ATOM     18  C   UNL     1      33.079 -10.220 -24.135  0.00  0.00    +0.260 C 
BRANCH  18  19
ATOM     19  O   UNL     1      34.085 -11.221 -24.070  0.00  0.00    -0.329 OA
BRANCH  19  20
ATOM     20  C   UNL     1      33.829 -12.278 -24.984  0.00  0.00    +0.176 C 
BRANCH  20  21
ATOM     21  C   UNL     1      33.762 -13.586 -24.222  0.00  0.00    +0.169 C 
BRANCH  21  22
ATOM     22  O   UNL     1      34.221 -13.372 -22.892  0.00  0.00    -0.379 OA
ATOM     23  H   UNL     1      34.834 -12.620 -22.879  0.00  0.00    +0.211 HD
ENDBRANCH  21  22
ENDBRANCH  20  21
ENDBRANCH  19  20
ENDBRANCH  18  19
ENDBRANCH   3  18
TORSDOF 7
ENDMDL
MODEL 7
REMARK VINA RESULT:      -6.6      7.829     10.198
REMARK  Name = 64993
REMARK  7 active torsions:
REMARK  status: ('A' for Active; 'I' for Inactive)
REMARK    1  A    between atoms: N_3  and  C_18
REMARK    2  A    between atoms: C_5  and  S_11
REMARK    3  A    between atoms: S_11  and  C_12
REMARK    4  A    between atoms: C_18  and  O_19
REMARK    5  A    between atoms: O_19  and  C_20
REMARK    6  A    between atoms: C_20  and  C_21
REMARK    7  A    between atoms: C_21  and  O_22
REMARK                            x       y       z     vdW  Elec       q    Type
REMARK                         _______ _______ _______ _____ _____    ______ ____
ROOT
ATOM      1  O   UNL     1      33.051 -15.089 -25.230  0.00  0.00    -0.246 OA
ATOM      2  O   UNL     1      33.057 -13.855 -20.835  0.00  0.00    -0.267 OA
ATOM      3  N   UNL     1      34.428 -16.285 -23.765  0.00  0.00    -0.250 N 
ATOM      4  N   UNL     1      33.071 -14.501 -23.030  0.00  0.00    -0.275 N 
ATOM      5  C   UNL     1      34.887 -16.468 -22.448  0.00  0.00    +0.097 A 
ATOM      6  C   UNL     1      34.446 -15.699 -21.427  0.00  0.00    +0.056 A 
ATOM      7  C   UNL     1      33.492 -15.289 -24.094  0.00  0.00    +0.333 A 
ATOM      8  C   UNL     1      33.474 -14.602 -21.717  0.00  0.00    +0.259 A 
ATOM      9  C   UNL     1      34.863 -15.765 -19.978  0.00  0.00    +0.038 C 
ATOM     10  H   UNL     1      32.415 -13.797 -23.237  0.00  0.00    +0.173 HD
ENDROOT
BRANCH   5  11
ATOM     11  S   UNL     1      36.033 -17.767 -22.153  0.00  0.00    -0.070 S 
BRANCH  11  12
ATOM     12  C   UNL     1      34.922 -18.902 -21.353  0.00  0.00    +0.031 C 
ATOM     13  C   UNL     1      35.425 -19.973 -20.611  0.00  0.00    +0.007 C 
ATOM     14  C   UNL     1      33.540 -18.725 -21.461  0.00  0.00    +0.007 C 
ATOM     15  C   UNL     1      34.553 -20.862 -19.983  0.00  0.00    +0.001 C 
ATOM     16  C   UNL     1      32.668 -19.614 -20.833  0.00  0.00    +0.001 C 
ATOM     17  C   UNL     1      33.175 -20.682 -20.094  0.00  0.00    +0.000 C 
ENDBRANCH  11  12
ENDBRANCH   5  11
BRANCH   3  18
ATOM     18  C   UNL     1      34.941 -17.158 -24.826  0.00  0.00    +0.260 C 
BRANCH  18  19
ATOM     19  O   UNL     1      33.840 -17.692 -25.547  0.00  0.00    -0.329 OA
BRANCH  19  20
ATOM     20  C   UNL     1      33.687 -19.084 -25.309  0.00  0.00    +0.176 C 
BRANCH  20  21
ATOM     21  C   UNL     1      35.019 -19.662 -24.875  0.00  0.00    +0.169 C 
BRANCH  21  22
ATOM     22  O   UNL     1      35.135 -20.987 -25.377  0.00  0.00    -0.379 OA
ATOM     23  H   UNL     1      36.017 -21.336 -25.171  0.00  0.00    +0.211 HD
ENDBRANCH  21  22
ENDBRANCH  20  21
ENDBRANCH  19  20
ENDBRANCH  18  19
ENDBRANCH   3  18
TORSDOF 7
ENDMDL
MODEL 8
REMARK VINA RESULT:      -6.5     13.848     16.561
REMARK  Name = 64993
REMARK  7 active torsions:
REMARK  status: ('A' for Active; 'I' for Inactive)
REMARK    1  A    between atoms: N_3  and  C_18
REMARK    2  A    between atoms: C_5  and  S_11
REMARK    3  A    between atoms: S_11  and  C_12
REMARK    4  A    between atoms: C_18  and  O_19
REMARK    5  A    between atoms: O_19  and  C_20
REMARK    6  A    between atoms: C_20  and  C_21
REMARK    7  A    between atoms: C_21  and  O_22
REMARK                            x       y       z     vdW  Elec       q    Type
REMARK                         _______ _______ _______ _____ _____    ______ ____
ROOT
ATOM      1  O   UNL     1      33.063 -13.252 -24.422  0.00  0.00    -0.246 OA
ATOM      2  O   UNL     1      35.751  -9.722 -25.496  0.00  0.00    -0.267 OA
ATOM      3  N   UNL     1      32.827 -11.285 -23.177  0.00  0.00    -0.250 N 
ATOM      4  N   UNL     1      34.385 -11.471 -24.938  0.00  0.00    -0.275 N 
ATOM      5  C   UNL     1      33.238  -9.958 -22.963  0.00  0.00    +0.097 A 
ATOM      6  C   UNL     1      34.196  -9.378 -23.722  0.00  0.00    +0.056 A 
ATOM      7  C   UNL     1      33.391 -12.086 -24.186  0.00  0.00    +0.333 A 
ATOM      8  C   UNL     1      34.857 -10.186 -24.791  0.00  0.00    +0.259 A 
ATOM      9  C   UNL     1      34.751  -7.980 -23.595  0.00  0.00    +0.038 C 
ATOM     10  H   UNL     1      34.794 -12.012 -25.651  0.00  0.00    +0.173 HD
ENDROOT
BRANCH   5  11
ATOM     11  S   UNL     1      32.437  -9.046 -21.692  0.00  0.00    -0.070 S 
BRANCH  11  12
ATOM     12  C   UNL     1      31.859  -7.690 -22.688  0.00  0.00    +0.031 C 
ATOM     13  C   UNL     1      32.083  -6.373 -22.278  0.00  0.00    +0.007 C 
ATOM     14  C   UNL     1      31.180  -7.936 -23.883  0.00  0.00    +0.007 C 
ATOM     15  C   UNL     1      31.631  -5.309 -23.059  0.00  0.00    +0.001 C 
ATOM     16  C   UNL     1      30.727  -6.873 -24.664  0.00  0.00    +0.001 C 
ATOM     17  C   UNL     1      30.953  -5.559 -24.252  0.00  0.00    +0.000 C 
ENDBRANCH  11  12
ENDBRANCH   5  11
BRANCH   3  18
ATOM     18  C   UNL     1      31.778 -11.852 -22.323  0.00  0.00    +0.260 C 
BRANCH  18  19
ATOM     19  O   UNL     1      32.392 -12.487 -21.211  0.00  0.00    -0.329 OA
BRANCH  19  20
ATOM     20  C   UNL     1      32.291 -13.902 -21.297  0.00  0.00    +0.176 C 
BRANCH  20  21
ATOM     21  C   UNL     1      33.631 -14.516 -20.946  0.00  0.00    +0.169 C 
BRANCH  21  22
ATOM     22  O   UNL     1      34.398 -14.666 -22.135  0.00  0.00    -0.379 OA
ATOM     23  H   UNL     1      33.870 -14.383 -22.898  0.00  0.00    +0.211 HD
ENDBRANCH  21  22
ENDBRANCH  20  21
ENDBRANCH  19  20
ENDBRANCH  18  19
ENDBRANCH   3  18
TORSDOF 7
ENDMDL
MODEL 9
REMARK VINA RESULT:      -6.5     11.813     14.521
REMARK  Name = 64993
REMARK  7 active torsions:
REMARK  status: ('A' for Active; 'I' for Inactive)
REMARK    1  A    between atoms: N_3  and  C_18
REMARK    2  A    between atoms: C_5  and  S_11
REMARK    3  A    between atoms: S_11  and  C_12
REMARK    4  A    between atoms: C_18  and  O_19
REMARK    5  A    between atoms: O_19  and  C_20
REMARK    6  A    between atoms: C_20  and  C_21
REMARK    7  A    between atoms: C_21  and  O_22
REMARK                            x       y       z     vdW  Elec       q    Type
REMARK                         _______ _______ _______ _____ _____    ______ ____
ROOT
ATOM      1  O   UNL     1      35.078  -9.426 -24.576  0.00  0.00    -0.246 OA
ATOM      2  O   UNL     1      32.007  -8.773 -21.264  0.00  0.00    -0.267 OA
ATOM      3  N   UNL     1      33.617 -11.186 -24.084  0.00  0.00    -0.250 N 
ATOM      4  N   UNL     1      33.531  -9.128 -22.934  0.00  0.00    -0.275 N 
ATOM      5  C   UNL     1      32.542 -11.656 -23.310  0.00  0.00    +0.097 A 
ATOM      6  C   UNL     1      31.952 -10.885 -22.368  0.00  0.00    +0.056 A 
ATOM      7  C   UNL     1      34.143  -9.892 -23.920  0.00  0.00    +0.333 A 
ATOM      8  C   UNL     1      32.485  -9.510 -22.123  0.00  0.00    +0.259 A 
ATOM      9  C   UNL     1      30.813 -11.260 -21.451  0.00  0.00    +0.038 C 
ATOM     10  H   UNL     1      33.881  -8.219 -22.801  0.00  0.00    +0.173 HD
ENDROOT
BRANCH   5  11
ATOM     11  S   UNL     1      31.951 -13.280 -23.628  0.00  0.00    -0.070 S 
BRANCH  11  12
ATOM     12  C   UNL     1      32.939 -14.143 -22.427  0.00  0.00    +0.031 C 
ATOM     13  C   UNL     1      32.512 -14.232 -21.100  0.00  0.00    +0.007 C 
ATOM     14  C   UNL     1      34.145 -14.736 -22.807  0.00  0.00    +0.007 C 
ATOM     15  C   UNL     1      33.286 -14.909 -20.158  0.00  0.00    +0.001 C 
ATOM     16  C   UNL     1      34.920 -15.413 -21.865  0.00  0.00    +0.001 C 
ATOM     17  C   UNL     1      34.490 -15.499 -20.541  0.00  0.00    +0.000 C 
ENDBRANCH  11  12
ENDBRANCH   5  11
BRANCH   3  18
ATOM     18  C   UNL     1      34.208 -12.071 -25.094  0.00  0.00    +0.260 C 
BRANCH  18  19
ATOM     19  O   UNL     1      33.478 -11.931 -26.304  0.00  0.00    -0.329 OA
BRANCH  19  20
ATOM     20  C   UNL     1      33.711 -13.023 -27.182  0.00  0.00    +0.176 C 
BRANCH  20  21
ATOM     21  C   UNL     1      32.858 -14.198 -26.748  0.00  0.00    +0.169 C 
BRANCH  21  22
ATOM     22  O   UNL     1      33.691 -15.339 -26.582  0.00  0.00    -0.379 OA
ATOM     23  H   UNL     1      34.334 -15.171 -25.875  0.00  0.00    +0.211 HD
ENDBRANCH  21  22
ENDBRANCH  20  21
ENDBRANCH  19  20
ENDBRANCH  18  19
ENDBRANCH   3  18
TORSDOF 7
ENDMDL
