MODEL 1
REMARK VINA RESULT:      -8.5      0.000      0.000
REMARK  Name = 441161
REMARK  4 active torsions:
REMARK  status: ('A' for Active; 'I' for Inactive)
REMARK    1  A    between atoms: C_1  and  C_7
REMARK    2  A    between atoms: C_2  and  S_15
REMARK    3  A    between atoms: C_8  and  O_13
REMARK    4  A    between atoms: S_15  and  O_17
REMARK                            x       y       z     vdW  Elec       q    Type
REMARK                         _______ _______ _______ _____ _____    ______ ____
ROOT
ATOM      1  C   UNL     1      34.634 -18.241 -22.595  0.00  0.00    +0.020 C 
ATOM      2  C   UNL     1      34.541 -16.876 -22.315  0.00  0.00    +0.100 C 
ATOM      3  C   UNL     1      34.750 -18.674 -23.917  0.00  0.00    +0.001 C 
ATOM      4  C   UNL     1      34.566 -15.948 -23.355  0.00  0.00    +0.018 C 
ATOM      5  C   UNL     1      34.775 -17.745 -24.957  0.00  0.00    +0.000 C 
ATOM      6  C   UNL     1      34.681 -16.382 -24.676  0.00  0.00    +0.001 C 
ENDROOT
BRANCH   1   7
ATOM      7  C   UNL     1      34.613 -19.242 -21.546  0.00  0.00    +0.035 C 
ATOM      8  C   UNL     1      35.793 -19.649 -20.924  0.00  0.00    +0.134 C 
ATOM      9  C   UNL     1      33.394 -19.799 -21.163  0.00  0.00    +0.003 C 
ATOM     10  C   UNL     1      35.752 -20.615 -19.919  0.00  0.00    +0.037 C 
ATOM     11  C   UNL     1      33.353 -20.764 -20.157  0.00  0.00    +0.000 C 
ATOM     12  C   UNL     1      34.533 -21.173 -19.535  0.00  0.00    +0.003 C 
BRANCH   8  13
ATOM     13  O   UNL     1      36.998 -19.122 -21.280  0.00  0.00    -0.506 OA
ATOM     14  H   UNL     1      37.514 -18.661 -20.648  0.00  0.00    +0.292 HD
ENDBRANCH   8  13
ENDBRANCH   1   7
BRANCH   2  15
ATOM     15  S   UNL     1      34.390 -16.255 -20.630  0.00  0.00    -0.031 S 
ATOM     16  O   UNL     1      35.004 -14.886 -20.618  0.00  0.00    -0.076 OA
BRANCH  15  17
ATOM     17  O   UNL     1      32.795 -16.067 -20.750  0.00  0.00    -0.274 OA
ATOM     18  H   UNL     1      32.420 -16.809 -21.251  0.00  0.00    +0.242 HD
ENDBRANCH  15  17
ENDBRANCH   2  15
TORSDOF 4
ENDMDL
MODEL 2
REMARK VINA RESULT:      -8.4      2.143      2.843
REMARK  Name = 441161
REMARK  4 active torsions:
REMARK  status: ('A' for Active; 'I' for Inactive)
REMARK    1  A    between atoms: C_1  and  C_7
REMARK    2  A    between atoms: C_2  and  S_15
REMARK    3  A    between atoms: C_8  and  O_13
REMARK    4  A    between atoms: S_15  and  O_17
REMARK                            x       y       z     vdW  Elec       q    Type
REMARK                         _______ _______ _______ _____ _____    ______ ____
ROOT
ATOM      1  C   UNL     1      34.389 -17.251 -21.607  0.00  0.00    +0.020 C 
ATOM      2  C   UNL     1      34.494 -17.020 -22.980  0.00  0.00    +0.100 C 
ATOM      3  C   UNL     1      34.344 -16.173 -20.722  0.00  0.00    +0.001 C 
ATOM      4  C   UNL     1      34.553 -15.713 -23.465  0.00  0.00    +0.018 C 
ATOM      5  C   UNL     1      34.403 -14.867 -21.207  0.00  0.00    +0.000 C 
ATOM      6  C   UNL     1      34.509 -14.637 -22.579  0.00  0.00    +0.001 C 
ENDROOT
BRANCH   1   7
ATOM      7  C   UNL     1      34.323 -18.591 -21.057  0.00  0.00    +0.035 C 
ATOM      8  C   UNL     1      35.487 -19.318 -20.809  0.00  0.00    +0.134 C 
ATOM      9  C   UNL     1      33.077 -19.151 -20.779  0.00  0.00    +0.003 C 
ATOM     10  C   UNL     1      35.403 -20.607 -20.282  0.00  0.00    +0.037 C 
ATOM     11  C   UNL     1      32.993 -20.439 -20.251  0.00  0.00    +0.000 C 
ATOM     12  C   UNL     1      34.157 -21.167 -20.003  0.00  0.00    +0.003 C 
BRANCH   8  13
ATOM     13  O   UNL     1      36.718 -18.796 -21.074  0.00  0.00    -0.506 OA
ATOM     14  H   UNL     1      36.957 -17.960 -20.725  0.00  0.00    +0.292 HD
ENDBRANCH   8  13
ENDBRANCH   1   7
BRANCH   2  15
ATOM     15  S   UNL     1      34.556 -18.369 -24.173  0.00  0.00    -0.031 S 
ATOM     16  O   UNL     1      34.418 -17.749 -25.533  0.00  0.00    -0.076 OA
BRANCH  15  17
ATOM     17  O   UNL     1      36.123 -18.635 -23.921  0.00  0.00    -0.274 OA
ATOM     18  H   UNL     1      36.361 -19.512 -24.262  0.00  0.00    +0.242 HD
ENDBRANCH  15  17
ENDBRANCH   2  15
TORSDOF 4
ENDMDL
MODEL 3
REMARK VINA RESULT:      -8.0      2.354      3.315
REMARK  Name = 441161
REMARK  4 active torsions:
REMARK  status: ('A' for Active; 'I' for Inactive)
REMARK    1  A    between atoms: C_1  and  C_7
REMARK    2  A    between atoms: C_2  and  S_15
REMARK    3  A    between atoms: C_8  and  O_13
REMARK    4  A    between atoms: S_15  and  O_17
REMARK                            x       y       z     vdW  Elec       q    Type
REMARK                         _______ _______ _______ _____ _____    ______ ____
ROOT
ATOM      1  C   UNL     1      34.858 -17.101 -21.664  0.00  0.00    +0.020 C 
ATOM      2  C   UNL     1      34.807 -16.836 -23.034  0.00  0.00    +0.100 C 
ATOM      3  C   UNL     1      34.645 -16.070 -20.748  0.00  0.00    +0.001 C 
ATOM      4  C   UNL     1      34.542 -15.543 -23.485  0.00  0.00    +0.018 C 
ATOM      5  C   UNL     1      34.380 -14.777 -21.199  0.00  0.00    +0.000 C 
ATOM      6  C   UNL     1      34.330 -14.514 -22.568  0.00  0.00    +0.001 C 
ENDROOT
BRANCH   1   7
ATOM      7  C   UNL     1      35.129 -18.429 -21.149  0.00  0.00    +0.035 C 
ATOM      8  C   UNL     1      34.086 -19.291 -20.811  0.00  0.00    +0.134 C 
ATOM      9  C   UNL     1      36.452 -18.840 -20.993  0.00  0.00    +0.003 C 
ATOM     10  C   UNL     1      34.368 -20.563 -20.315  0.00  0.00    +0.037 C 
ATOM     11  C   UNL     1      36.734 -20.113 -20.498  0.00  0.00    +0.000 C 
ATOM     12  C   UNL     1      35.691 -20.974 -20.159  0.00  0.00    +0.003 C 
BRANCH   8  13
ATOM     13  O   UNL     1      32.784 -18.914 -20.952  0.00  0.00    -0.506 OA
ATOM     14  H   UNL     1      32.110 -19.563 -20.990  0.00  0.00    +0.292 HD
ENDBRANCH   8  13
ENDBRANCH   1   7
BRANCH   2  15
ATOM     15  S   UNL     1      35.073 -18.124 -24.266  0.00  0.00    -0.031 S 
ATOM     16  O   UNL     1      33.851 -18.994 -24.252  0.00  0.00    -0.076 OA
BRANCH  15  17
ATOM     17  O   UNL     1      34.920 -17.099 -25.498  0.00  0.00    -0.274 OA
ATOM     18  H   UNL     1      34.969 -17.589 -26.334  0.00  0.00    +0.242 HD
ENDBRANCH  15  17
ENDBRANCH   2  15
TORSDOF 4
ENDMDL
MODEL 4
REMARK VINA RESULT:      -7.9      9.226     10.558
REMARK  Name = 441161
REMARK  4 active torsions:
REMARK  status: ('A' for Active; 'I' for Inactive)
REMARK    1  A    between atoms: C_1  and  C_7
REMARK    2  A    between atoms: C_2  and  S_15
REMARK    3  A    between atoms: C_8  and  O_13
REMARK    4  A    between atoms: S_15  and  O_17
REMARK                            x       y       z     vdW  Elec       q    Type
REMARK                         _______ _______ _______ _____ _____    ______ ____
ROOT
ATOM      1  C   UNL     1      32.916  -8.225 -22.753  0.00  0.00    +0.020 C 
ATOM      2  C   UNL     1      32.360  -7.011 -23.163  0.00  0.00    +0.100 C 
ATOM      3  C   UNL     1      34.125  -8.656 -23.300  0.00  0.00    +0.001 C 
ATOM      4  C   UNL     1      33.013  -6.232 -24.119  0.00  0.00    +0.018 C 
ATOM      5  C   UNL     1      34.778  -7.877 -24.255  0.00  0.00    +0.000 C 
ATOM      6  C   UNL     1      34.221  -6.665 -24.665  0.00  0.00    +0.001 C 
ENDROOT
BRANCH   1   7
ATOM      7  C   UNL     1      32.274  -9.067 -21.763  0.00  0.00    +0.035 C 
ATOM      8  C   UNL     1      32.402  -8.793 -20.401  0.00  0.00    +0.134 C 
ATOM      9  C   UNL     1      31.522 -10.162 -22.187  0.00  0.00    +0.003 C 
ATOM     10  C   UNL     1      31.778  -9.617 -19.464  0.00  0.00    +0.037 C 
ATOM     11  C   UNL     1      30.898 -10.984 -21.251  0.00  0.00    +0.000 C 
ATOM     12  C   UNL     1      31.027 -10.712 -19.888  0.00  0.00    +0.003 C 
BRANCH   8  13
ATOM     13  O   UNL     1      33.132  -7.731 -19.959  0.00  0.00    -0.506 OA
ATOM     14  H   UNL     1      32.979  -6.877 -20.313  0.00  0.00    +0.292 HD
ENDBRANCH   8  13
ENDBRANCH   1   7
BRANCH   2  15
ATOM     15  S   UNL     1      30.802  -6.400 -22.494  0.00  0.00    -0.031 S 
ATOM     16  O   UNL     1      31.123  -5.751 -21.180  0.00  0.00    -0.076 OA
BRANCH  15  17
ATOM     17  O   UNL     1      30.689  -5.230 -23.594  0.00  0.00    -0.274 OA
ATOM     18  H   UNL     1      30.578  -4.376 -23.147  0.00  0.00    +0.242 HD
ENDBRANCH  15  17
ENDBRANCH   2  15
TORSDOF 4
ENDMDL
MODEL 5
REMARK VINA RESULT:      -7.6      3.981      6.697
REMARK  Name = 441161
REMARK  4 active torsions:
REMARK  status: ('A' for Active; 'I' for Inactive)
REMARK    1  A    between atoms: C_1  and  C_7
REMARK    2  A    between atoms: C_2  and  S_15
REMARK    3  A    between atoms: C_8  and  O_13
REMARK    4  A    between atoms: S_15  and  O_17
REMARK                            x       y       z     vdW  Elec       q    Type
REMARK                         _______ _______ _______ _____ _____    ______ ____
ROOT
ATOM      1  C   UNL     1      33.950 -14.692 -23.803  0.00  0.00    +0.020 C 
ATOM      2  C   UNL     1      33.697 -15.350 -25.008  0.00  0.00    +0.100 C 
ATOM      3  C   UNL     1      34.696 -15.327 -22.808  0.00  0.00    +0.001 C 
ATOM      4  C   UNL     1      34.188 -16.638 -25.217  0.00  0.00    +0.018 C 
ATOM      5  C   UNL     1      35.188 -16.615 -23.018  0.00  0.00    +0.000 C 
ATOM      6  C   UNL     1      34.933 -17.271 -24.222  0.00  0.00    +0.001 C 
ENDROOT
BRANCH   1   7
ATOM      7  C   UNL     1      33.460 -13.354 -23.541  0.00  0.00    +0.035 C 
ATOM      8  C   UNL     1      32.438 -13.135 -22.617  0.00  0.00    +0.134 C 
ATOM      9  C   UNL     1      34.022 -12.278 -24.228  0.00  0.00    +0.003 C 
ATOM     10  C   UNL     1      31.978 -11.839 -22.381  0.00  0.00    +0.037 C 
ATOM     11  C   UNL     1      33.563 -10.983 -23.991  0.00  0.00    +0.000 C 
ATOM     12  C   UNL     1      32.540 -10.764 -23.068  0.00  0.00    +0.003 C 
BRANCH   8  13
ATOM     13  O   UNL     1      31.870 -14.168 -21.934  0.00  0.00    -0.506 OA
ATOM     14  H   UNL     1      32.044 -14.278 -21.020  0.00  0.00    +0.292 HD
ENDBRANCH   8  13
ENDBRANCH   1   7
BRANCH   2  15
ATOM     15  S   UNL     1      32.741 -14.584 -26.331  0.00  0.00    -0.031 S 
ATOM     16  O   UNL     1      33.730 -14.064 -27.332  0.00  0.00    -0.076 OA
BRANCH  15  17
ATOM     17  O   UNL     1      32.200 -15.999 -26.876  0.00  0.00    -0.274 OA
ATOM     18  H   UNL     1      31.747 -15.866 -27.724  0.00  0.00    +0.242 HD
ENDBRANCH  15  17
ENDBRANCH   2  15
TORSDOF 4
ENDMDL
MODEL 6
REMARK VINA RESULT:      -7.3      8.631     11.040
REMARK  Name = 441161
REMARK  4 active torsions:
REMARK  status: ('A' for Active; 'I' for Inactive)
REMARK    1  A    between atoms: C_1  and  C_7
REMARK    2  A    between atoms: C_2  and  S_15
REMARK    3  A    between atoms: C_8  and  O_13
REMARK    4  A    between atoms: S_15  and  O_17
REMARK                            x       y       z     vdW  Elec       q    Type
REMARK                         _______ _______ _______ _____ _____    ______ ____
ROOT
ATOM      1  C   UNL     1      32.326  -7.184 -23.178  0.00  0.00    +0.020 C 
ATOM      2  C   UNL     1      32.184  -6.801 -21.843  0.00  0.00    +0.100 C 
ATOM      3  C   UNL     1      31.735  -6.421 -24.187  0.00  0.00    +0.001 C 
ATOM      4  C   UNL     1      31.453  -5.659 -21.518  0.00  0.00    +0.018 C 
ATOM      5  C   UNL     1      31.004  -5.279 -23.862  0.00  0.00    +0.000 C 
ATOM      6  C   UNL     1      30.862  -4.898 -22.528  0.00  0.00    +0.001 C 
ENDROOT
BRANCH   1   7
ATOM      7  C   UNL     1      33.077  -8.363 -23.563  0.00  0.00    +0.035 C 
ATOM      8  C   UNL     1      32.514  -9.635 -23.456  0.00  0.00    +0.134 C 
ATOM      9  C   UNL     1      34.377  -8.214 -24.043  0.00  0.00    +0.003 C 
ATOM     10  C   UNL     1      33.253 -10.757 -23.829  0.00  0.00    +0.037 C 
ATOM     11  C   UNL     1      35.116  -9.335 -24.417  0.00  0.00    +0.000 C 
ATOM     12  C   UNL     1      34.554 -10.608 -24.309  0.00  0.00    +0.003 C 
BRANCH   8  13
ATOM     13  O   UNL     1      31.246  -9.810 -22.988  0.00  0.00    -0.506 OA
ATOM     14  H   UNL     1      31.090 -10.371 -22.255  0.00  0.00    +0.292 HD
ENDBRANCH   8  13
ENDBRANCH   1   7
BRANCH   2  15
ATOM     15  S   UNL     1      32.924  -7.744 -20.496  0.00  0.00    -0.031 S 
ATOM     16  O   UNL     1      32.962  -6.833 -19.304  0.00  0.00    -0.076 OA
BRANCH  15  17
ATOM     17  O   UNL     1      31.634  -8.693 -20.337  0.00  0.00    -0.274 OA
ATOM     18  H   UNL     1      30.829  -8.172 -20.488  0.00  0.00    +0.242 HD
ENDBRANCH  15  17
ENDBRANCH   2  15
TORSDOF 4
ENDMDL
MODEL 7
REMARK VINA RESULT:      -7.3      9.107     11.039
REMARK  Name = 441161
REMARK  4 active torsions:
REMARK  status: ('A' for Active; 'I' for Inactive)
REMARK    1  A    between atoms: C_1  and  C_7
REMARK    2  A    between atoms: C_2  and  S_15
REMARK    3  A    between atoms: C_8  and  O_13
REMARK    4  A    between atoms: S_15  and  O_17
REMARK                            x       y       z     vdW  Elec       q    Type
REMARK                         _______ _______ _______ _____ _____    ______ ____
ROOT
ATOM      1  C   UNL     1      36.631 -24.795 -14.055  0.00  0.00    +0.020 C 
ATOM      2  C   UNL     1      37.452 -24.336 -13.022  0.00  0.00    +0.100 C 
ATOM      3  C   UNL     1      37.090 -25.793 -14.916  0.00  0.00    +0.001 C 
ATOM      4  C   UNL     1      38.727 -24.874 -12.853  0.00  0.00    +0.018 C 
ATOM      5  C   UNL     1      38.365 -26.331 -14.746  0.00  0.00    +0.000 C 
ATOM      6  C   UNL     1      39.184 -25.871 -13.715  0.00  0.00    +0.001 C 
ENDROOT
BRANCH   1   7
ATOM      7  C   UNL     1      35.299 -24.266 -14.268  0.00  0.00    +0.035 C 
ATOM      8  C   UNL     1      34.296 -24.449 -13.316  0.00  0.00    +0.134 C 
ATOM      9  C   UNL     1      35.026 -23.567 -15.444  0.00  0.00    +0.003 C 
ATOM     10  C   UNL     1      33.020 -23.933 -13.542  0.00  0.00    +0.037 C 
ATOM     11  C   UNL     1      33.750 -23.051 -15.669  0.00  0.00    +0.000 C 
ATOM     12  C   UNL     1      32.746 -23.235 -14.717  0.00  0.00    +0.003 C 
BRANCH   8  13
ATOM     13  O   UNL     1      34.535 -25.129 -12.160  0.00  0.00    -0.506 OA
ATOM     14  H   UNL     1      34.811 -24.667 -11.393  0.00  0.00    +0.292 HD
ENDBRANCH   8  13
ENDBRANCH   1   7
BRANCH   2  15
ATOM     15  S   UNL     1      36.917 -23.051 -11.877  0.00  0.00    -0.031 S 
ATOM     16  O   UNL     1      36.699 -23.718 -10.551  0.00  0.00    -0.076 OA
BRANCH  15  17
ATOM     17  O   UNL     1      38.371 -22.361 -11.837  0.00  0.00    -0.274 OA
ATOM     18  H   UNL     1      38.280 -21.407 -11.995  0.00  0.00    +0.242 HD
ENDBRANCH  15  17
ENDBRANCH   2  15
TORSDOF 4
ENDMDL
MODEL 8
REMARK VINA RESULT:      -7.3      8.461      9.974
REMARK  Name = 441161
REMARK  4 active torsions:
REMARK  status: ('A' for Active; 'I' for Inactive)
REMARK    1  A    between atoms: C_1  and  C_7
REMARK    2  A    between atoms: C_2  and  S_15
REMARK    3  A    between atoms: C_8  and  O_13
REMARK    4  A    between atoms: S_15  and  O_17
REMARK                            x       y       z     vdW  Elec       q    Type
REMARK                         _______ _______ _______ _____ _____    ______ ____
ROOT
ATOM      1  C   UNL     1      32.362  -8.268 -22.526  0.00  0.00    +0.020 C 
ATOM      2  C   UNL     1      33.303  -8.559 -23.516  0.00  0.00    +0.100 C 
ATOM      3  C   UNL     1      31.793  -6.995 -22.461  0.00  0.00    +0.001 C 
ATOM      4  C   UNL     1      33.673  -7.579 -24.438  0.00  0.00    +0.018 C 
ATOM      5  C   UNL     1      32.163  -6.015 -23.382  0.00  0.00    +0.000 C 
ATOM      6  C   UNL     1      33.103  -6.307 -24.370  0.00  0.00    +0.001 C 
ENDROOT
BRANCH   1   7
ATOM      7  C   UNL     1      31.948  -9.254 -21.549  0.00  0.00    +0.035 C 
ATOM      8  C   UNL     1      32.276  -9.106 -20.201  0.00  0.00    +0.134 C 
ATOM      9  C   UNL     1      31.213 -10.362 -21.970  0.00  0.00    +0.003 C 
ATOM     10  C   UNL     1      31.870 -10.067 -19.276  0.00  0.00    +0.037 C 
ATOM     11  C   UNL     1      30.806 -11.323 -21.045  0.00  0.00    +0.000 C 
ATOM     12  C   UNL     1      31.135 -11.175 -19.697  0.00  0.00    +0.003 C 
BRANCH   8  13
ATOM     13  O   UNL     1      32.995  -8.035 -19.762  0.00  0.00    -0.506 OA
ATOM     14  H   UNL     1      33.628  -8.142 -19.080  0.00  0.00    +0.292 HD
ENDBRANCH   8  13
ENDBRANCH   1   7
BRANCH   2  15
ATOM     15  S   UNL     1      34.073 -10.183 -23.654  0.00  0.00    -0.031 S 
ATOM     16  O   UNL     1      33.450 -10.856 -24.841  0.00  0.00    -0.076 OA
BRANCH  15  17
ATOM     17  O   UNL     1      35.482  -9.570 -24.132  0.00  0.00    -0.274 OA
ATOM     18  H   UNL     1      35.388  -8.614 -24.273  0.00  0.00    +0.242 HD
ENDBRANCH  15  17
ENDBRANCH   2  15
TORSDOF 4
ENDMDL
MODEL 9
REMARK VINA RESULT:      -7.2      2.007      4.851
REMARK  Name = 441161
REMARK  4 active torsions:
REMARK  status: ('A' for Active; 'I' for Inactive)
REMARK    1  A    between atoms: C_1  and  C_7
REMARK    2  A    between atoms: C_2  and  S_15
REMARK    3  A    between atoms: C_8  and  O_13
REMARK    4  A    between atoms: S_15  and  O_17
REMARK                            x       y       z     vdW  Elec       q    Type
REMARK                         _______ _______ _______ _____ _____    ______ ____
ROOT
ATOM      1  C   UNL     1      35.667 -19.269 -21.208  0.00  0.00    +0.020 C 
ATOM      2  C   UNL     1      34.717 -20.148 -20.685  0.00  0.00    +0.100 C 
ATOM      3  C   UNL     1      36.995 -19.350 -20.787  0.00  0.00    +0.001 C 
ATOM      4  C   UNL     1      35.094 -21.104 -19.743  0.00  0.00    +0.018 C 
ATOM      5  C   UNL     1      37.373 -20.307 -19.845  0.00  0.00    +0.000 C 
ATOM      6  C   UNL     1      36.422 -21.183 -19.322  0.00  0.00    +0.001 C 
ENDROOT
BRANCH   1   7
ATOM      7  C   UNL     1      35.321 -18.259 -22.189  0.00  0.00    +0.035 C 
ATOM      8  C   UNL     1      35.043 -16.949 -21.798  0.00  0.00    +0.134 C 
ATOM      9  C   UNL     1      35.266 -18.612 -23.537  0.00  0.00    +0.003 C 
ATOM     10  C   UNL     1      34.709 -15.993 -22.757  0.00  0.00    +0.037 C 
ATOM     11  C   UNL     1      34.934 -17.655 -24.495  0.00  0.00    +0.000 C 
ATOM     12  C   UNL     1      34.655 -16.345 -24.105  0.00  0.00    +0.003 C 
BRANCH   8  13
ATOM     13  O   UNL     1      35.087 -16.578 -20.487  0.00  0.00    -0.506 OA
ATOM     14  H   UNL     1      35.849 -16.759 -19.974  0.00  0.00    +0.292 HD
ENDBRANCH   8  13
ENDBRANCH   1   7
BRANCH   2  15
ATOM     15  S   UNL     1      32.987 -20.094 -21.190  0.00  0.00    -0.031 S 
ATOM     16  O   UNL     1      32.303 -21.241 -20.506  0.00  0.00    -0.076 OA
BRANCH  15  17
ATOM     17  O   UNL     1      32.686 -18.769 -20.326  0.00  0.00    -0.274 OA
ATOM     18  H   UNL     1      33.372 -18.105 -20.504  0.00  0.00    +0.242 HD
ENDBRANCH  15  17
ENDBRANCH   2  15
TORSDOF 4
ENDMDL
