MODEL 1
REMARK VINA RESULT:      -7.5      0.000      0.000
REMARK  Name = 21133161
REMARK  8 active torsions:
REMARK  status: ('A' for Active; 'I' for Inactive)
REMARK    1  A    between atoms: C_1  and  C_9
REMARK    2  A    between atoms: C_2  and  C_17
REMARK    3  A    between atoms: N_8  and  C_11
REMARK    4  A    between atoms: C_11  and  C_12
REMARK    5  A    between atoms: C_12  and  S_13
REMARK    6  A    between atoms: N_16  and  C_19
REMARK    7  A    between atoms: C_19  and  C_20
REMARK    8  A    between atoms: C_20  and  S_21
REMARK                            x       y       z     vdW  Elec       q    Type
REMARK                         _______ _______ _______ _____ _____    ______ ____
ROOT
ATOM      1  C   UNL     1      35.211 -18.818 -21.182  0.00  0.00    +0.053 C 
ATOM      2  C   UNL     1      34.769 -20.843 -19.941  0.00  0.00    +0.053 C 
ATOM      3  C   UNL     1      34.304 -19.729 -20.641  0.00  0.00    +0.009 C 
ATOM      4  C   UNL     1      36.582 -19.021 -21.024  0.00  0.00    +0.005 C 
ATOM      5  C   UNL     1      36.139 -21.046 -19.783  0.00  0.00    +0.005 C 
ATOM      6  C   UNL     1      37.046 -20.134 -20.325  0.00  0.00    +0.000 C 
ENDROOT
BRANCH   1   9
ATOM      7  O   UNL     1      33.795 -16.969 -21.455  0.00  0.00    -0.270 OA
ATOM      8  N   UNL     1      35.371 -17.344 -23.113  0.00  0.00    -0.300 N 
ATOM      9  C   UNL     1      34.728 -17.655 -21.910  0.00  0.00    +0.246 C 
ATOM     10  H   UNL     1      36.102 -17.931 -23.414  0.00  0.00    +0.150 HD
BRANCH   8  11
ATOM     11  C   UNL     1      35.021 -16.210 -23.936  0.00  0.00    +0.101 C 
BRANCH  11  12
ATOM     12  C   UNL     1      34.190 -16.592 -25.153  0.00  0.00    +0.075 C 
BRANCH  12  13
ATOM     13  S   UNL     1      33.298 -15.169 -25.853  0.00  0.00    -0.166 S 
ATOM     14  H   UNL     1      32.051 -15.557 -26.231  0.00  0.00    +0.102 HD
ENDBRANCH  12  13
ENDBRANCH  11  12
ENDBRANCH   8  11
ENDBRANCH   1   9
BRANCH   2  17
ATOM     15  O   UNL     1      32.751 -22.038 -19.962  0.00  0.00    -0.270 OA
ATOM     16  N   UNL     1      34.189 -22.425 -18.184  0.00  0.00    -0.300 N 
ATOM     17  C   UNL     1      33.824 -21.794 -19.379  0.00  0.00    +0.246 C 
ATOM     18  H   UNL     1      35.053 -22.184 -17.776  0.00  0.00    +0.150 HD
BRANCH  16  19
ATOM     19  C   UNL     1      33.370 -23.409 -17.516  0.00  0.00    +0.101 C 
BRANCH  19  20
ATOM     20  C   UNL     1      33.582 -23.438 -16.009  0.00  0.00    +0.075 C 
BRANCH  20  21
ATOM     21  S   UNL     1      35.281 -22.982 -15.546  0.00  0.00    -0.166 S 
ATOM     22  H   UNL     1      35.480 -21.661 -15.797  0.00  0.00    +0.102 HD
ENDBRANCH  20  21
ENDBRANCH  19  20
ENDBRANCH  16  19
ENDBRANCH   2  17
TORSDOF 8
ENDMDL
MODEL 2
REMARK VINA RESULT:      -7.4      0.995      7.500
REMARK  Name = 21133161
REMARK  8 active torsions:
REMARK  status: ('A' for Active; 'I' for Inactive)
REMARK    1  A    between atoms: C_1  and  C_9
REMARK    2  A    between atoms: C_2  and  C_17
REMARK    3  A    between atoms: N_8  and  C_11
REMARK    4  A    between atoms: C_11  and  C_12
REMARK    5  A    between atoms: C_12  and  S_13
REMARK    6  A    between atoms: N_16  and  C_19
REMARK    7  A    between atoms: C_19  and  C_20
REMARK    8  A    between atoms: C_20  and  S_21
REMARK                            x       y       z     vdW  Elec       q    Type
REMARK                         _______ _______ _______ _____ _____    ______ ____
ROOT
ATOM      1  C   UNL     1      34.788 -20.822 -19.985  0.00  0.00    +0.053 C 
ATOM      2  C   UNL     1      35.216 -18.771 -21.188  0.00  0.00    +0.053 C 
ATOM      3  C   UNL     1      34.316 -19.703 -20.670  0.00  0.00    +0.009 C 
ATOM      4  C   UNL     1      36.159 -21.009 -19.816  0.00  0.00    +0.005 C 
ATOM      5  C   UNL     1      36.587 -18.959 -21.020  0.00  0.00    +0.005 C 
ATOM      6  C   UNL     1      37.060 -20.078 -20.333  0.00  0.00    +0.000 C 
ENDROOT
BRANCH   1   9
ATOM      7  O   UNL     1      32.740 -21.964 -19.981  0.00  0.00    -0.270 OA
ATOM      8  N   UNL     1      34.266 -22.530 -18.329  0.00  0.00    -0.300 N 
ATOM      9  C   UNL     1      33.850 -21.795 -19.446  0.00  0.00    +0.246 C 
ATOM     10  H   UNL     1      35.158 -22.343 -17.957  0.00  0.00    +0.150 HD
BRANCH   8  11
ATOM     11  C   UNL     1      33.457 -23.546 -17.696  0.00  0.00    +0.101 C 
BRANCH  11  12
ATOM     12  C   UNL     1      32.997 -23.155 -16.298  0.00  0.00    +0.075 C 
BRANCH  12  13
ATOM     13  S   UNL     1      31.185 -23.081 -16.165  0.00  0.00    -0.166 S 
ATOM     14  H   UNL     1      30.698 -22.199 -17.078  0.00  0.00    +0.102 HD
ENDBRANCH  12  13
ENDBRANCH  11  12
ENDBRANCH   8  11
ENDBRANCH   1   9
BRANCH   2  17
ATOM     15  O   UNL     1      33.797 -16.920 -21.429  0.00  0.00    -0.270 OA
ATOM     16  N   UNL     1      35.352 -17.285 -23.110  0.00  0.00    -0.300 N 
ATOM     17  C   UNL     1      34.724 -17.604 -21.901  0.00  0.00    +0.246 C 
ATOM     18  H   UNL     1      36.079 -17.870 -23.426  0.00  0.00    +0.150 HD
BRANCH  16  19
ATOM     19  C   UNL     1      34.993 -16.144 -23.921  0.00  0.00    +0.101 C 
BRANCH  19  20
ATOM     20  C   UNL     1      34.228 -16.526 -25.181  0.00  0.00    +0.075 C 
BRANCH  20  21
ATOM     21  S   UNL     1      33.276 -15.130 -25.856  0.00  0.00    -0.166 S 
ATOM     22  H   UNL     1      31.947 -15.384 -25.726  0.00  0.00    +0.102 HD
ENDBRANCH  20  21
ENDBRANCH  19  20
ENDBRANCH  16  19
ENDBRANCH   2  17
TORSDOF 8
ENDMDL
MODEL 3
REMARK VINA RESULT:      -7.3      3.701      5.893
REMARK  Name = 21133161
REMARK  8 active torsions:
REMARK  status: ('A' for Active; 'I' for Inactive)
REMARK    1  A    between atoms: C_1  and  C_9
REMARK    2  A    between atoms: C_2  and  C_17
REMARK    3  A    between atoms: N_8  and  C_11
REMARK    4  A    between atoms: C_11  and  C_12
REMARK    5  A    between atoms: C_12  and  S_13
REMARK    6  A    between atoms: N_16  and  C_19
REMARK    7  A    between atoms: C_19  and  C_20
REMARK    8  A    between atoms: C_20  and  S_21
REMARK                            x       y       z     vdW  Elec       q    Type
REMARK                         _______ _______ _______ _____ _____    ______ ____
ROOT
ATOM      1  C   UNL     1      33.742 -14.278 -23.637  0.00  0.00    +0.053 C 
ATOM      2  C   UNL     1      34.711 -16.308 -22.756  0.00  0.00    +0.053 C 
ATOM      3  C   UNL     1      34.277 -14.995 -22.567  0.00  0.00    +0.009 C 
ATOM      4  C   UNL     1      33.638 -14.873 -24.894  0.00  0.00    +0.005 C 
ATOM      5  C   UNL     1      34.609 -16.903 -24.012  0.00  0.00    +0.005 C 
ATOM      6  C   UNL     1      34.072 -16.185 -25.082  0.00  0.00    +0.000 C 
ENDROOT
BRANCH   1   9
ATOM      7  O   UNL     1      32.313 -12.665 -22.714  0.00  0.00    -0.270 OA
ATOM      8  N   UNL     1      34.019 -11.901 -24.086  0.00  0.00    -0.300 N 
ATOM      9  C   UNL     1      33.291 -12.909 -23.442  0.00  0.00    +0.246 C 
ATOM     10  H   UNL     1      34.782 -12.166 -24.647  0.00  0.00    +0.150 HD
BRANCH   8  11
ATOM     11  C   UNL     1      33.709 -10.494 -23.970  0.00  0.00    +0.101 C 
BRANCH  11  12
ATOM     12  C   UNL     1      34.908  -9.597 -24.245  0.00  0.00    +0.075 C 
BRANCH  12  13
ATOM     13  S   UNL     1      34.634  -7.890 -23.679  0.00  0.00    -0.166 S 
ATOM     14  H   UNL     1      33.938  -7.905 -22.512  0.00  0.00    +0.102 HD
ENDBRANCH  12  13
ENDBRANCH  11  12
ENDBRANCH   8  11
ENDBRANCH   1   9
BRANCH   2  17
ATOM     15  O   UNL     1      35.164 -16.626 -20.477  0.00  0.00    -0.270 OA
ATOM     16  N   UNL     1      35.892 -18.273 -21.939  0.00  0.00    -0.300 N 
ATOM     17  C   UNL     1      35.268 -17.056 -21.641  0.00  0.00    +0.246 C 
ATOM     18  H   UNL     1      35.940 -18.553 -22.882  0.00  0.00    +0.150 HD
BRANCH  16  19
ATOM     19  C   UNL     1      36.472 -19.140 -20.939  0.00  0.00    +0.101 C 
BRANCH  19  20
ATOM     20  C   UNL     1      35.550 -20.283 -20.535  0.00  0.00    +0.075 C 
BRANCH  20  21
ATOM     21  S   UNL     1      36.292 -21.346 -19.259  0.00  0.00    -0.166 S 
ATOM     22  H   UNL     1      37.134 -22.238 -19.846  0.00  0.00    +0.102 HD
ENDBRANCH  20  21
ENDBRANCH  19  20
ENDBRANCH  16  19
ENDBRANCH   2  17
TORSDOF 8
ENDMDL
MODEL 4
REMARK VINA RESULT:      -7.3      3.498      8.941
REMARK  Name = 21133161
REMARK  8 active torsions:
REMARK  status: ('A' for Active; 'I' for Inactive)
REMARK    1  A    between atoms: C_1  and  C_9
REMARK    2  A    between atoms: C_2  and  C_17
REMARK    3  A    between atoms: N_8  and  C_11
REMARK    4  A    between atoms: C_11  and  C_12
REMARK    5  A    between atoms: C_12  and  S_13
REMARK    6  A    between atoms: N_16  and  C_19
REMARK    7  A    between atoms: C_19  and  C_20
REMARK    8  A    between atoms: C_20  and  S_21
REMARK                            x       y       z     vdW  Elec       q    Type
REMARK                         _______ _______ _______ _____ _____    ______ ____
ROOT
ATOM      1  C   UNL     1      34.824 -16.588 -22.763  0.00  0.00    +0.053 C 
ATOM      2  C   UNL     1      33.821 -14.623 -23.748  0.00  0.00    +0.053 C 
ATOM      3  C   UNL     1      34.332 -15.289 -22.633  0.00  0.00    +0.009 C 
ATOM      4  C   UNL     1      34.807 -17.220 -24.006  0.00  0.00    +0.005 C 
ATOM      5  C   UNL     1      33.803 -15.255 -24.991  0.00  0.00    +0.005 C 
ATOM      6  C   UNL     1      34.297 -16.554 -25.120  0.00  0.00    +0.000 C 
ENDROOT
BRANCH   1   9
ATOM      7  O   UNL     1      35.262 -16.779 -20.468  0.00  0.00    -0.270 OA
ATOM      8  N   UNL     1      35.942 -18.535 -21.821  0.00  0.00    -0.300 N 
ATOM      9  C   UNL     1      35.355 -17.283 -21.601  0.00  0.00    +0.246 C 
ATOM     10  H   UNL     1      35.982 -18.873 -22.745  0.00  0.00    +0.150 HD
BRANCH   8  11
ATOM     11  C   UNL     1      36.492 -19.356 -20.767  0.00  0.00    +0.101 C 
BRANCH  11  12
ATOM     12  C   UNL     1      35.585 -20.516 -20.382  0.00  0.00    +0.075 C 
BRANCH  12  13
ATOM     13  S   UNL     1      36.255 -21.484 -18.996  0.00  0.00    -0.166 S 
ATOM     14  H   UNL     1      37.612 -21.408 -19.004  0.00  0.00    +0.102 HD
ENDBRANCH  12  13
ENDBRANCH  11  12
ENDBRANCH   8  11
ENDBRANCH   1   9
BRANCH   2  17
ATOM     15  O   UNL     1      32.253 -13.051 -22.993  0.00  0.00    -0.270 OA
ATOM     16  N   UNL     1      34.068 -12.242 -24.188  0.00  0.00    -0.300 N 
ATOM     17  C   UNL     1      33.310 -13.269 -23.614  0.00  0.00    +0.246 C 
ATOM     18  H   UNL     1      34.894 -12.485 -24.666  0.00  0.00    +0.150 HD
BRANCH  16  19
ATOM     19  C   UNL     1      33.705 -10.845 -24.119  0.00  0.00    +0.101 C 
BRANCH  19  20
ATOM     20  C   UNL     1      34.873  -9.911 -24.405  0.00  0.00    +0.075 C 
BRANCH  20  21
ATOM     21  S   UNL     1      34.570  -8.225 -23.794  0.00  0.00    -0.166 S 
ATOM     22  H   UNL     1      34.701  -8.203 -22.440  0.00  0.00    +0.102 HD
ENDBRANCH  20  21
ENDBRANCH  19  20
ENDBRANCH  16  19
ENDBRANCH   2  17
TORSDOF 8
ENDMDL
MODEL 5
REMARK VINA RESULT:      -7.2      2.841      7.535
REMARK  Name = 21133161
REMARK  8 active torsions:
REMARK  status: ('A' for Active; 'I' for Inactive)
REMARK    1  A    between atoms: C_1  and  C_9
REMARK    2  A    between atoms: C_2  and  C_17
REMARK    3  A    between atoms: N_8  and  C_11
REMARK    4  A    between atoms: C_11  and  C_12
REMARK    5  A    between atoms: C_12  and  S_13
REMARK    6  A    between atoms: N_16  and  C_19
REMARK    7  A    between atoms: C_19  and  C_20
REMARK    8  A    between atoms: C_20  and  S_21
REMARK                            x       y       z     vdW  Elec       q    Type
REMARK                         _______ _______ _______ _____ _____    ______ ____
ROOT
ATOM      1  C   UNL     1      35.049 -18.361 -22.713  0.00  0.00    +0.053 C 
ATOM      2  C   UNL     1      34.247 -16.703 -24.278  0.00  0.00    +0.053 C 
ATOM      3  C   UNL     1      34.680 -17.046 -22.996  0.00  0.00    +0.009 C 
ATOM      4  C   UNL     1      34.989 -19.332 -23.711  0.00  0.00    +0.005 C 
ATOM      5  C   UNL     1      34.185 -17.675 -25.276  0.00  0.00    +0.005 C 
ATOM      6  C   UNL     1      34.556 -18.991 -24.993  0.00  0.00    +0.000 C 
ENDROOT
BRANCH   1   9
ATOM      7  O   UNL     1      35.659 -17.841 -20.510  0.00  0.00    -0.270 OA
ATOM      8  N   UNL     1      35.715 -20.077 -21.120  0.00  0.00    -0.300 N 
ATOM      9  C   UNL     1      35.499 -18.718 -21.377  0.00  0.00    +0.246 C 
ATOM     10  H   UNL     1      35.569 -20.717 -21.854  0.00  0.00    +0.150 HD
BRANCH   8  11
ATOM     11  C   UNL     1      36.139 -20.590 -19.837  0.00  0.00    +0.101 C 
BRANCH  11  12
ATOM     12  C   UNL     1      35.315 -21.782 -19.372  0.00  0.00    +0.075 C 
BRANCH  12  13
ATOM     13  S   UNL     1      33.527 -21.490 -19.535  0.00  0.00    -0.166 S 
ATOM     14  H   UNL     1      32.929 -22.603 -20.036  0.00  0.00    +0.102 HD
ENDBRANCH  12  13
ENDBRANCH  11  12
ENDBRANCH   8  11
ENDBRANCH   1   9
BRANCH   2  17
ATOM     15  O   UNL     1      33.288 -15.054 -25.642  0.00  0.00    -0.270 OA
ATOM     16  N   UNL     1      34.148 -14.368 -23.600  0.00  0.00    -0.300 N 
ATOM     17  C   UNL     1      33.863 -15.333 -24.574  0.00  0.00    +0.246 C 
ATOM     18  H   UNL     1      34.606 -14.658 -22.778  0.00  0.00    +0.150 HD
BRANCH  16  19
ATOM     19  C   UNL     1      33.808 -12.970 -23.736  0.00  0.00    +0.101 C 
BRANCH  19  20
ATOM     20  C   UNL     1      32.627 -12.557 -22.869  0.00  0.00    +0.075 C 
BRANCH  20  21
ATOM     21  S   UNL     1      32.406 -13.659 -21.438  0.00  0.00    -0.166 S 
ATOM     22  H   UNL     1      31.975 -12.936 -20.371  0.00  0.00    +0.102 HD
ENDBRANCH  20  21
ENDBRANCH  19  20
ENDBRANCH  16  19
ENDBRANCH   2  17
TORSDOF 8
ENDMDL
MODEL 6
REMARK VINA RESULT:      -7.2      2.846      4.402
REMARK  Name = 21133161
REMARK  8 active torsions:
REMARK  status: ('A' for Active; 'I' for Inactive)
REMARK    1  A    between atoms: C_1  and  C_9
REMARK    2  A    between atoms: C_2  and  C_17
REMARK    3  A    between atoms: N_8  and  C_11
REMARK    4  A    between atoms: C_11  and  C_12
REMARK    5  A    between atoms: C_12  and  S_13
REMARK    6  A    between atoms: N_16  and  C_19
REMARK    7  A    between atoms: C_19  and  C_20
REMARK    8  A    between atoms: C_20  and  S_21
REMARK                            x       y       z     vdW  Elec       q    Type
REMARK                         _______ _______ _______ _____ _____    ______ ____
ROOT
ATOM      1  C   UNL     1      34.239 -16.660 -24.343  0.00  0.00    +0.053 C 
ATOM      2  C   UNL     1      35.026 -18.294 -22.745  0.00  0.00    +0.053 C 
ATOM      3  C   UNL     1      34.682 -16.978 -23.059  0.00  0.00    +0.009 C 
ATOM      4  C   UNL     1      34.138 -17.657 -25.312  0.00  0.00    +0.005 C 
ATOM      5  C   UNL     1      34.925 -19.290 -23.715  0.00  0.00    +0.005 C 
ATOM      6  C   UNL     1      34.481 -18.972 -24.999  0.00  0.00    +0.000 C 
ENDROOT
BRANCH   1   9
ATOM      7  O   UNL     1      33.405 -15.010 -25.784  0.00  0.00    -0.270 OA
ATOM      8  N   UNL     1      34.081 -14.324 -23.675  0.00  0.00    -0.300 N 
ATOM      9  C   UNL     1      33.883 -15.289 -24.670  0.00  0.00    +0.246 C 
ATOM     10  H   UNL     1      34.464 -14.615 -22.816  0.00  0.00    +0.150 HD
BRANCH   8  11
ATOM     11  C   UNL     1      33.754 -12.926 -23.841  0.00  0.00    +0.101 C 
BRANCH  11  12
ATOM     12  C   UNL     1      32.706 -12.439 -22.850  0.00  0.00    +0.075 C 
BRANCH  12  13
ATOM     13  S   UNL     1      32.376 -13.658 -21.541  0.00  0.00    -0.166 S 
ATOM     14  H   UNL     1      32.554 -13.077 -20.325  0.00  0.00    +0.102 HD
ENDBRANCH  12  13
ENDBRANCH  11  12
ENDBRANCH   8  11
ENDBRANCH   1   9
BRANCH   2  17
ATOM     15  O   UNL     1      35.610 -17.737 -20.543  0.00  0.00    -0.270 OA
ATOM     16  N   UNL     1      35.753 -19.973 -21.141  0.00  0.00    -0.300 N 
ATOM     17  C   UNL     1      35.486 -18.625 -21.407  0.00  0.00    +0.246 C 
ATOM     18  H   UNL     1      35.635 -20.624 -21.871  0.00  0.00    +0.150 HD
BRANCH  16  19
ATOM     19  C   UNL     1      36.194 -20.463 -19.855  0.00  0.00    +0.101 C 
BRANCH  19  20
ATOM     20  C   UNL     1      35.397 -21.666 -19.371  0.00  0.00    +0.075 C 
BRANCH  20  21
ATOM     21  S   UNL     1      33.605 -21.435 -19.586  0.00  0.00    -0.166 S 
ATOM     22  H   UNL     1      33.135 -20.612 -18.612  0.00  0.00    +0.102 HD
ENDBRANCH  20  21
ENDBRANCH  19  20
ENDBRANCH  16  19
ENDBRANCH   2  17
TORSDOF 8
ENDMDL
MODEL 7
REMARK VINA RESULT:      -7.2      3.602      6.144
REMARK  Name = 21133161
REMARK  8 active torsions:
REMARK  status: ('A' for Active; 'I' for Inactive)
REMARK    1  A    between atoms: C_1  and  C_9
REMARK    2  A    between atoms: C_2  and  C_17
REMARK    3  A    between atoms: N_8  and  C_11
REMARK    4  A    between atoms: C_11  and  C_12
REMARK    5  A    between atoms: C_12  and  S_13
REMARK    6  A    between atoms: N_16  and  C_19
REMARK    7  A    between atoms: C_19  and  C_20
REMARK    8  A    between atoms: C_20  and  S_21
REMARK                            x       y       z     vdW  Elec       q    Type
REMARK                         _______ _______ _______ _____ _____    ______ ____
ROOT
ATOM      1  C   UNL     1      33.275 -22.976 -17.294  0.00  0.00    +0.053 C 
ATOM      2  C   UNL     1      34.170 -23.531 -15.119  0.00  0.00    +0.053 C 
ATOM      3  C   UNL     1      34.370 -23.166 -16.452  0.00  0.00    +0.009 C 
ATOM      4  C   UNL     1      31.981 -23.149 -16.805  0.00  0.00    +0.005 C 
ATOM      5  C   UNL     1      32.876 -23.704 -14.631  0.00  0.00    +0.005 C 
ATOM      6  C   UNL     1      31.781 -23.513 -15.474  0.00  0.00    +0.000 C 
ENDROOT
BRANCH   1   9
ATOM      7  O   UNL     1      33.988 -23.400 -19.487  0.00  0.00    -0.270 OA
ATOM      8  N   UNL     1      33.070 -21.314 -19.061  0.00  0.00    -0.300 N 
ATOM      9  C   UNL     1      33.483 -22.597 -18.683  0.00  0.00    +0.246 C 
ATOM     10  H   UNL     1      32.678 -20.730 -18.373  0.00  0.00    +0.150 HD
BRANCH   8  11
ATOM     11  C   UNL     1      33.188 -20.802 -20.407  0.00  0.00    +0.101 C 
BRANCH  11  12
ATOM     12  C   UNL     1      34.526 -20.124 -20.670  0.00  0.00    +0.075 C 
BRANCH  12  13
ATOM     13  S   UNL     1      34.326 -18.439 -21.327  0.00  0.00    -0.166 S 
ATOM     14  H   UNL     1      33.005 -18.120 -21.362  0.00  0.00    +0.102 HD
ENDBRANCH  12  13
ENDBRANCH  11  12
ENDBRANCH   8  11
ENDBRANCH   1   9
BRANCH   2  17
ATOM     15  O   UNL     1      36.297 -22.970 -14.307  0.00  0.00    -0.270 OA
ATOM     16  N   UNL     1      35.233 -24.778 -13.320  0.00  0.00    -0.300 N 
ATOM     17  C   UNL     1      35.312 -23.727 -14.241  0.00  0.00    +0.246 C 
ATOM     18  H   UNL     1      34.424 -25.339 -13.322  0.00  0.00    +0.150 HD
BRANCH  16  19
ATOM     19  C   UNL     1      36.274 -25.085 -12.366  0.00  0.00    +0.101 C 
BRANCH  19  20
ATOM     20  C   UNL     1      37.220 -26.176 -12.847  0.00  0.00    +0.075 C 
BRANCH  20  21
ATOM     21  S   UNL     1      38.777 -25.497 -13.498  0.00  0.00    -0.166 S 
ATOM     22  H   UNL     1      39.770 -25.690 -12.591  0.00  0.00    +0.102 HD
ENDBRANCH  20  21
ENDBRANCH  19  20
ENDBRANCH  16  19
ENDBRANCH   2  17
TORSDOF 8
ENDMDL
MODEL 8
REMARK VINA RESULT:      -7.2      3.627      9.123
REMARK  Name = 21133161
REMARK  8 active torsions:
REMARK  status: ('A' for Active; 'I' for Inactive)
REMARK    1  A    between atoms: C_1  and  C_9
REMARK    2  A    between atoms: C_2  and  C_17
REMARK    3  A    between atoms: N_8  and  C_11
REMARK    4  A    between atoms: C_11  and  C_12
REMARK    5  A    between atoms: C_12  and  S_13
REMARK    6  A    between atoms: N_16  and  C_19
REMARK    7  A    between atoms: C_19  and  C_20
REMARK    8  A    between atoms: C_20  and  S_21
REMARK                            x       y       z     vdW  Elec       q    Type
REMARK                         _______ _______ _______ _____ _____    ______ ____
ROOT
ATOM      1  C   UNL     1      34.158 -23.560 -15.054  0.00  0.00    +0.053 C 
ATOM      2  C   UNL     1      33.265 -23.023 -17.234  0.00  0.00    +0.053 C 
ATOM      3  C   UNL     1      34.360 -23.204 -16.387  0.00  0.00    +0.009 C 
ATOM      4  C   UNL     1      32.864 -23.738 -14.567  0.00  0.00    +0.005 C 
ATOM      5  C   UNL     1      31.971 -23.200 -16.747  0.00  0.00    +0.005 C 
ATOM      6  C   UNL     1      31.770 -23.557 -15.413  0.00  0.00    +0.000 C 
ENDROOT
BRANCH   1   9
ATOM      7  O   UNL     1      36.282 -22.989 -14.242  0.00  0.00    -0.270 OA
ATOM      8  N   UNL     1      35.221 -24.791 -13.242  0.00  0.00    -0.300 N 
ATOM      9  C   UNL     1      35.299 -23.747 -14.171  0.00  0.00    +0.246 C 
ATOM     10  H   UNL     1      34.413 -25.353 -13.242  0.00  0.00    +0.150 HD
BRANCH   8  11
ATOM     11  C   UNL     1      36.261 -25.087 -12.284  0.00  0.00    +0.101 C 
BRANCH  11  12
ATOM     12  C   UNL     1      37.225 -26.163 -12.766  0.00  0.00    +0.075 C 
BRANCH  12  13
ATOM     13  S   UNL     1      38.792 -25.463 -13.368  0.00  0.00    -0.166 S 
ATOM     14  H   UNL     1      39.412 -26.366 -14.173  0.00  0.00    +0.102 HD
ENDBRANCH  12  13
ENDBRANCH  11  12
ENDBRANCH   8  11
ENDBRANCH   1   9
BRANCH   2  17
ATOM     15  O   UNL     1      33.955 -23.472 -19.429  0.00  0.00    -0.270 OA
ATOM     16  N   UNL     1      33.092 -21.362 -19.004  0.00  0.00    -0.300 N 
ATOM     17  C   UNL     1      33.475 -22.654 -18.624  0.00  0.00    +0.246 C 
ATOM     18  H   UNL     1      32.720 -20.765 -18.314  0.00  0.00    +0.150 HD
BRANCH  16  19
ATOM     19  C   UNL     1      33.215 -20.855 -20.351  0.00  0.00    +0.101 C 
BRANCH  19  20
ATOM     20  C   UNL     1      34.561 -20.195 -20.619  0.00  0.00    +0.075 C 
BRANCH  20  21
ATOM     21  S   UNL     1      34.419 -18.785 -21.760  0.00  0.00    -0.166 S 
ATOM     22  H   UNL     1      35.419 -17.899 -21.511  0.00  0.00    +0.102 HD
ENDBRANCH  20  21
ENDBRANCH  19  20
ENDBRANCH  16  19
ENDBRANCH   2  17
TORSDOF 8
ENDMDL
MODEL 9
REMARK VINA RESULT:      -7.2      3.434      5.198
REMARK  Name = 21133161
REMARK  8 active torsions:
REMARK  status: ('A' for Active; 'I' for Inactive)
REMARK    1  A    between atoms: C_1  and  C_9
REMARK    2  A    between atoms: C_2  and  C_17
REMARK    3  A    between atoms: N_8  and  C_11
REMARK    4  A    between atoms: C_11  and  C_12
REMARK    5  A    between atoms: C_12  and  S_13
REMARK    6  A    between atoms: N_16  and  C_19
REMARK    7  A    between atoms: C_19  and  C_20
REMARK    8  A    between atoms: C_20  and  S_21
REMARK                            x       y       z     vdW  Elec       q    Type
REMARK                         _______ _______ _______ _____ _____    ______ ____
ROOT
ATOM      1  C   UNL     1      33.970 -14.658 -22.969  0.00  0.00    +0.053 C 
ATOM      2  C   UNL     1      34.896 -16.597 -21.864  0.00  0.00    +0.053 C 
ATOM      3  C   UNL     1      34.644 -15.878 -23.033  0.00  0.00    +0.009 C 
ATOM      4  C   UNL     1      33.549 -14.157 -21.739  0.00  0.00    +0.005 C 
ATOM      5  C   UNL     1      34.474 -16.096 -20.633  0.00  0.00    +0.005 C 
ATOM      6  C   UNL     1      33.800 -14.876 -20.570  0.00  0.00    +0.000 C 
ENDROOT
BRANCH   1   9
ATOM      7  O   UNL     1      33.136 -14.452 -25.151  0.00  0.00    -0.270 OA
ATOM      8  N   UNL     1      34.100 -12.566 -24.208  0.00  0.00    -0.300 N 
ATOM      9  C   UNL     1      33.706 -13.909 -24.188  0.00  0.00    +0.246 C 
ATOM     10  H   UNL     1      34.547 -12.202 -23.410  0.00  0.00    +0.150 HD
BRANCH   8  11
ATOM     11  C   UNL     1      33.886 -11.687 -25.335  0.00  0.00    +0.101 C 
BRANCH  11  12
ATOM     12  C   UNL     1      34.954 -10.610 -25.460  0.00  0.00    +0.075 C 
BRANCH  12  13
ATOM     13  S   UNL     1      34.763  -9.302 -24.210  0.00  0.00    -0.166 S 
ATOM     14  H   UNL     1      33.442  -9.101 -23.962  0.00  0.00    +0.102 HD
ENDBRANCH  12  13
ENDBRANCH  11  12
ENDBRANCH   8  11
ENDBRANCH   1   9
BRANCH   2  17
ATOM     15  O   UNL     1      35.934 -18.348 -23.028  0.00  0.00    -0.270 OA
ATOM     16  N   UNL     1      35.897 -18.494 -20.714  0.00  0.00    -0.300 N 
ATOM     17  C   UNL     1      35.600 -17.867 -21.929  0.00  0.00    +0.246 C 
ATOM     18  H   UNL     1      35.602 -18.058 -19.881  0.00  0.00    +0.150 HD
BRANCH  16  19
ATOM     19  C   UNL     1      36.612 -19.746 -20.613  0.00  0.00    +0.101 C 
BRANCH  19  20
ATOM     20  C   UNL     1      35.757 -20.877 -20.057  0.00  0.00    +0.075 C 
BRANCH  20  21
ATOM     21  S   UNL     1      36.469 -21.597 -18.546  0.00  0.00    -0.166 S 
ATOM     22  H   UNL     1      35.480 -21.821 -17.641  0.00  0.00    +0.102 HD
ENDBRANCH  20  21
ENDBRANCH  19  20
ENDBRANCH  16  19
ENDBRANCH   2  17
TORSDOF 8
ENDMDL
