MODEL 1
REMARK VINA RESULT:      -7.2      0.000      0.000
REMARK  Name = 5289295
REMARK  3 active torsions:
REMARK  status: ('A' for Active; 'I' for Inactive)
REMARK    1  A    between atoms: C_1  and  N_10
REMARK    2  A    between atoms: N_10  and  C_13
REMARK    3  A    between atoms: C_13  and  C_14
REMARK                            x       y       z     vdW  Elec       q    Type
REMARK                         _______ _______ _______ _____ _____    ______ ____
ROOT
ATOM      1  C   UNL     1      34.993 -16.416 -22.124  0.00  0.00    -0.033 C 
ATOM      2  C   UNL     1      34.858 -16.080 -20.622  0.00  0.00    -0.012 C 
ATOM      3  C   UNL     1      33.472 -15.444 -20.428  0.00  0.00    +0.024 C 
ATOM      4  C   UNL     1      34.130 -15.340 -22.721  0.00  0.00    -0.045 C 
ATOM      5  C   UNL     1      33.272 -14.789 -21.758  0.00  0.00    -0.028 C 
ATOM      6  C   UNL     1      34.096 -14.905 -24.036  0.00  0.00    -0.007 C 
ATOM      7  C   UNL     1      32.360 -13.803 -22.093  0.00  0.00    -0.005 C 
ATOM      8  C   UNL     1      33.188 -13.902 -24.380  0.00  0.00    -0.000 C 
ATOM      9  C   UNL     1      32.325 -13.356 -23.415  0.00  0.00    -0.000 C 
ENDROOT
BRANCH   1  10
ATOM     10  N   UNL     1      34.495 -17.755 -22.418  0.00  0.00    +0.397 N 
ATOM     11  C   UNL     1      34.972 -18.210 -23.725  0.00  0.00    -0.099 C 
ATOM     12  H   UNL     1      33.477 -17.714 -22.439  0.00  0.00    -0.078 HD
BRANCH  10  13
ATOM     13  C   UNL     1      34.903 -18.700 -21.375  0.00  0.00    +0.003 C 
BRANCH  13  14
ATOM     14  C   UNL     1      33.761 -19.497 -20.915  0.00  0.00    -0.101 C 
ATOM     15  C   UNL     1      32.825 -20.144 -20.535  0.00  0.00    -0.016 C 
ENDBRANCH  13  14
ENDBRANCH  10  13
ENDBRANCH   1  10
TORSDOF 3
ENDMDL
MODEL 2
REMARK VINA RESULT:      -7.1      2.594      5.805
REMARK  Name = 5289295
REMARK  3 active torsions:
REMARK  status: ('A' for Active; 'I' for Inactive)
REMARK    1  A    between atoms: C_1  and  N_10
REMARK    2  A    between atoms: N_10  and  C_13
REMARK    3  A    between atoms: C_13  and  C_14
REMARK                            x       y       z     vdW  Elec       q    Type
REMARK                         _______ _______ _______ _____ _____    ______ ____
ROOT
ATOM      1  C   UNL     1      33.045 -14.066 -24.660  0.00  0.00    -0.033 C 
ATOM      2  C   UNL     1      32.999 -13.608 -23.185  0.00  0.00    -0.012 C 
ATOM      3  C   UNL     1      34.233 -14.208 -22.491  0.00  0.00    +0.024 C 
ATOM      4  C   UNL     1      33.751 -15.385 -24.512  0.00  0.00    -0.045 C 
ATOM      5  C   UNL     1      34.420 -15.464 -23.282  0.00  0.00    -0.028 C 
ATOM      6  C   UNL     1      33.813 -16.426 -25.424  0.00  0.00    -0.007 C 
ATOM      7  C   UNL     1      35.170 -16.578 -22.946  0.00  0.00    -0.005 C 
ATOM      8  C   UNL     1      34.557 -17.560 -25.087  0.00  0.00    -0.000 C 
ATOM      9  C   UNL     1      35.231 -17.634 -23.858  0.00  0.00    -0.000 C 
ENDROOT
BRANCH   1  10
ATOM     10  N   UNL     1      33.791 -13.125 -25.488  0.00  0.00    +0.397 N 
ATOM     11  C   UNL     1      33.273 -13.117 -26.857  0.00  0.00    -0.099 C 
ATOM     12  H   UNL     1      34.764 -13.429 -25.509  0.00  0.00    -0.078 HD
BRANCH  10  13
ATOM     13  C   UNL     1      33.735 -11.776 -24.918  0.00  0.00    +0.003 C 
BRANCH  13  14
ATOM     14  C   UNL     1      34.785 -10.925 -25.485  0.00  0.00    -0.101 C 
ATOM     15  C   UNL     1      35.649 -10.233 -25.948  0.00  0.00    -0.016 C 
ENDBRANCH  13  14
ENDBRANCH  10  13
ENDBRANCH   1  10
TORSDOF 3
ENDMDL
MODEL 3
REMARK VINA RESULT:      -6.8      1.593      5.423
REMARK  Name = 5289295
REMARK  3 active torsions:
REMARK  status: ('A' for Active; 'I' for Inactive)
REMARK    1  A    between atoms: C_1  and  N_10
REMARK    2  A    between atoms: N_10  and  C_13
REMARK    3  A    between atoms: C_13  and  C_14
REMARK                            x       y       z     vdW  Elec       q    Type
REMARK                         _______ _______ _______ _____ _____    ______ ____
ROOT
ATOM      1  C   UNL     1      34.770 -15.749 -23.727  0.00  0.00    -0.033 C 
ATOM      2  C   UNL     1      34.944 -16.315 -25.154  0.00  0.00    -0.012 C 
ATOM      3  C   UNL     1      34.477 -17.780 -25.115  0.00  0.00    +0.024 C 
ATOM      4  C   UNL     1      34.972 -16.996 -22.913  0.00  0.00    -0.045 C 
ATOM      5  C   UNL     1      34.809 -18.145 -23.702  0.00  0.00    -0.028 C 
ATOM      6  C   UNL     1      35.254 -17.096 -21.560  0.00  0.00    -0.007 C 
ATOM      7  C   UNL     1      34.914 -19.411 -23.152  0.00  0.00    -0.005 C 
ATOM      8  C   UNL     1      35.375 -18.370 -21.001  0.00  0.00    -0.000 C 
ATOM      9  C   UNL     1      35.205 -19.518 -21.791  0.00  0.00    -0.000 C 
ENDROOT
BRANCH   1  10
ATOM     10  N   UNL     1      33.444 -15.172 -23.540  0.00  0.00    +0.397 N 
ATOM     11  C   UNL     1      33.397 -14.364 -22.320  0.00  0.00    -0.099 C 
ATOM     12  H   UNL     1      32.778 -15.938 -23.449  0.00  0.00    -0.078 HD
BRANCH  10  13
ATOM     13  C   UNL     1      33.064 -14.358 -24.699  0.00  0.00    +0.003 C 
BRANCH  13  14
ATOM     14  C   UNL     1      33.482 -12.965 -24.520  0.00  0.00    -0.101 C 
ATOM     15  C   UNL     1      33.819 -11.822 -24.375  0.00  0.00    -0.016 C 
ENDBRANCH  13  14
ENDBRANCH  10  13
ENDBRANCH   1  10
TORSDOF 3
ENDMDL
MODEL 4
REMARK VINA RESULT:      -6.7      2.080      5.049
REMARK  Name = 5289295
REMARK  3 active torsions:
REMARK  status: ('A' for Active; 'I' for Inactive)
REMARK    1  A    between atoms: C_1  and  N_10
REMARK    2  A    between atoms: N_10  and  C_13
REMARK    3  A    between atoms: C_13  and  C_14
REMARK                            x       y       z     vdW  Elec       q    Type
REMARK                         _______ _______ _______ _____ _____    ______ ____
ROOT
ATOM      1  C   UNL     1      33.927 -14.119 -22.714  0.00  0.00    -0.033 C 
ATOM      2  C   UNL     1      33.747 -13.416 -24.078  0.00  0.00    -0.012 C 
ATOM      3  C   UNL     1      33.329 -14.498 -25.088  0.00  0.00    +0.024 C 
ATOM      4  C   UNL     1      34.348 -15.489 -23.168  0.00  0.00    -0.045 C 
ATOM      5  C   UNL     1      34.011 -15.700 -24.514  0.00  0.00    -0.028 C 
ATOM      6  C   UNL     1      34.961 -16.484 -22.424  0.00  0.00    -0.007 C 
ATOM      7  C   UNL     1      34.271 -16.909 -25.135  0.00  0.00    -0.005 C 
ATOM      8  C   UNL     1      35.240 -17.702 -23.048  0.00  0.00    -0.000 C 
ATOM      9  C   UNL     1      34.896 -17.913 -24.393  0.00  0.00    -0.000 C 
ENDROOT
BRANCH   1  10
ATOM     10  N   UNL     1      32.681 -14.142 -21.957  0.00  0.00    +0.397 N 
ATOM     11  C   UNL     1      32.943 -14.371 -20.535  0.00  0.00    -0.099 C 
ATOM     12  H   UNL     1      32.113 -14.911 -22.311  0.00  0.00    -0.078 HD
BRANCH  10  13
ATOM     13  C   UNL     1      31.940 -12.891 -22.139  0.00  0.00    +0.003 C 
BRANCH  13  14
ATOM     14  C   UNL     1      31.781 -12.186 -20.864  0.00  0.00    -0.101 C 
ATOM     15  C   UNL     1      31.644 -11.610 -19.820  0.00  0.00    -0.016 C 
ENDBRANCH  13  14
ENDBRANCH  10  13
ENDBRANCH   1  10
TORSDOF 3
ENDMDL
MODEL 5
REMARK VINA RESULT:      -6.7      6.421      8.739
REMARK  Name = 5289295
REMARK  3 active torsions:
REMARK  status: ('A' for Active; 'I' for Inactive)
REMARK    1  A    between atoms: C_1  and  N_10
REMARK    2  A    between atoms: N_10  and  C_13
REMARK    3  A    between atoms: C_13  and  C_14
REMARK                            x       y       z     vdW  Elec       q    Type
REMARK                         _______ _______ _______ _____ _____    ______ ____
ROOT
ATOM      1  C   UNL     1      32.681  -8.385 -22.683  0.00  0.00    -0.033 C 
ATOM      2  C   UNL     1      32.645  -7.140 -21.769  0.00  0.00    -0.012 C 
ATOM      3  C   UNL     1      32.768  -7.642 -20.321  0.00  0.00    +0.024 C 
ATOM      4  C   UNL     1      32.071  -9.410 -21.768  0.00  0.00    -0.045 C 
ATOM      5  C   UNL     1      32.118  -8.985 -20.431  0.00  0.00    -0.028 C 
ATOM      6  C   UNL     1      31.537 -10.644 -22.103  0.00  0.00    -0.007 C 
ATOM      7  C   UNL     1      31.644  -9.789 -19.409  0.00  0.00    -0.005 C 
ATOM      8  C   UNL     1      31.045 -11.455 -21.078  0.00  0.00    -0.000 C 
ATOM      9  C   UNL     1      31.099 -11.030 -19.741  0.00  0.00    -0.000 C 
ENDROOT
BRANCH   1  10
ATOM     10  N   UNL     1      34.046  -8.726 -23.067  0.00  0.00    +0.397 N 
ATOM     11  C   UNL     1      34.053  -9.542 -24.283  0.00  0.00    -0.099 C 
ATOM     12  H   UNL     1      34.460  -9.267 -22.309  0.00  0.00    -0.078 HD
BRANCH  10  13
ATOM     13  C   UNL     1      34.845  -7.514 -23.268  0.00  0.00    +0.003 C 
BRANCH  13  14
ATOM     14  C   UNL     1      34.453  -6.826 -24.501  0.00  0.00    -0.101 C 
ATOM     15  C   UNL     1      34.137  -6.264 -25.513  0.00  0.00    -0.016 C 
ENDBRANCH  13  14
ENDBRANCH  10  13
ENDBRANCH   1  10
TORSDOF 3
ENDMDL
MODEL 6
REMARK VINA RESULT:      -6.7      3.981      6.083
REMARK  Name = 5289295
REMARK  3 active torsions:
REMARK  status: ('A' for Active; 'I' for Inactive)
REMARK    1  A    between atoms: C_1  and  N_10
REMARK    2  A    between atoms: N_10  and  C_13
REMARK    3  A    between atoms: C_13  and  C_14
REMARK                            x       y       z     vdW  Elec       q    Type
REMARK                         _______ _______ _______ _____ _____    ______ ____
ROOT
ATOM      1  C   UNL     1      33.150 -11.307 -24.338  0.00  0.00    -0.033 C 
ATOM      2  C   UNL     1      34.234 -11.251 -25.438  0.00  0.00    -0.012 C 
ATOM      3  C   UNL     1      35.312 -10.266 -24.955  0.00  0.00    +0.024 C 
ATOM      4  C   UNL     1      33.266  -9.920 -23.771  0.00  0.00    -0.045 C 
ATOM      5  C   UNL     1      34.489  -9.331 -24.125  0.00  0.00    -0.028 C 
ATOM      6  C   UNL     1      32.356  -9.245 -22.974  0.00  0.00    -0.007 C 
ATOM      7  C   UNL     1      34.828  -8.064 -23.681  0.00  0.00    -0.005 C 
ATOM      8  C   UNL     1      32.684  -7.961 -22.533  0.00  0.00    -0.000 C 
ATOM      9  C   UNL     1      33.912  -7.376 -22.883  0.00  0.00    -0.000 C 
ENDROOT
BRANCH   1  10
ATOM     10  N   UNL     1      33.447 -12.338 -23.350  0.00  0.00    +0.397 N 
ATOM     11  C   UNL     1      32.264 -12.636 -22.540  0.00  0.00    -0.099 C 
ATOM     12  H   UNL     1      34.181 -11.984 -22.737  0.00  0.00    -0.078 HD
BRANCH  10  13
ATOM     13  C   UNL     1      33.933 -13.558 -24.003  0.00  0.00    +0.003 C 
BRANCH  13  14
ATOM     14  C   UNL     1      34.295 -14.574 -23.011  0.00  0.00    -0.101 C 
ATOM     15  C   UNL     1      34.595 -15.403 -22.196  0.00  0.00    -0.016 C 
ENDBRANCH  13  14
ENDBRANCH  10  13
ENDBRANCH   1  10
TORSDOF 3
ENDMDL
MODEL 7
REMARK VINA RESULT:      -6.6      2.588      5.822
REMARK  Name = 5289295
REMARK  3 active torsions:
REMARK  status: ('A' for Active; 'I' for Inactive)
REMARK    1  A    between atoms: C_1  and  N_10
REMARK    2  A    between atoms: N_10  and  C_13
REMARK    3  A    between atoms: C_13  and  C_14
REMARK                            x       y       z     vdW  Elec       q    Type
REMARK                         _______ _______ _______ _____ _____    ______ ____
ROOT
ATOM      1  C   UNL     1      32.846 -13.254 -23.388  0.00  0.00    -0.033 C 
ATOM      2  C   UNL     1      31.918 -12.859 -22.219  0.00  0.00    -0.012 C 
ATOM      3  C   UNL     1      32.661 -13.208 -20.919  0.00  0.00    +0.024 C 
ATOM      4  C   UNL     1      33.594 -14.401 -22.766  0.00  0.00    -0.045 C 
ATOM      5  C   UNL     1      33.484 -14.374 -21.368  0.00  0.00    -0.028 C 
ATOM      6  C   UNL     1      34.339 -15.379 -23.403  0.00  0.00    -0.007 C 
ATOM      7  C   UNL     1      34.126 -15.317 -20.583  0.00  0.00    -0.005 C 
ATOM      8  C   UNL     1      34.978 -16.342 -22.619  0.00  0.00    -0.000 C 
ATOM      9  C   UNL     1      34.873 -16.310 -21.219  0.00  0.00    -0.000 C 
ENDROOT
BRANCH   1  10
ATOM     10  N   UNL     1      33.727 -12.155 -23.765  0.00  0.00    +0.397 N 
ATOM     11  C   UNL     1      34.039 -12.207 -25.195  0.00  0.00    -0.099 C 
ATOM     12  H   UNL     1      34.595 -12.253 -23.239  0.00  0.00    -0.078 HD
BRANCH  10  13
ATOM     13  C   UNL     1      33.120 -10.865 -23.428  0.00  0.00    +0.003 C 
BRANCH  13  14
ATOM     14  C   UNL     1      34.012  -9.757 -23.784  0.00  0.00    -0.101 C 
ATOM     15  C   UNL     1      34.739  -8.846 -24.071  0.00  0.00    -0.016 C 
ENDBRANCH  13  14
ENDBRANCH  10  13
ENDBRANCH   1  10
TORSDOF 3
ENDMDL
MODEL 8
REMARK VINA RESULT:      -6.6      3.421      6.620
REMARK  Name = 5289295
REMARK  3 active torsions:
REMARK  status: ('A' for Active; 'I' for Inactive)
REMARK    1  A    between atoms: C_1  and  N_10
REMARK    2  A    between atoms: N_10  and  C_13
REMARK    3  A    between atoms: C_13  and  C_14
REMARK                            x       y       z     vdW  Elec       q    Type
REMARK                         _______ _______ _______ _____ _____    ______ ____
ROOT
ATOM      1  C   UNL     1      31.985 -11.692 -22.876  0.00  0.00    -0.033 C 
ATOM      2  C   UNL     1      31.118 -11.233 -21.682  0.00  0.00    -0.012 C 
ATOM      3  C   UNL     1      31.714 -11.880 -20.421  0.00  0.00    +0.024 C 
ATOM      4  C   UNL     1      32.439 -13.037 -22.381  0.00  0.00    -0.045 C 
ATOM      5  C   UNL     1      32.281 -13.142 -20.991  0.00  0.00    -0.028 C 
ATOM      6  C   UNL     1      32.979 -14.079 -23.116  0.00  0.00    -0.007 C 
ATOM      7  C   UNL     1      32.670 -14.284 -20.312  0.00  0.00    -0.005 C 
ATOM      8  C   UNL     1      33.361 -15.240 -22.440  0.00  0.00    -0.000 C 
ATOM      9  C   UNL     1      33.208 -15.341 -21.048  0.00  0.00    -0.000 C 
ENDROOT
BRANCH   1  10
ATOM     10  N   UNL     1      33.099 -10.780 -23.108  0.00  0.00    +0.397 N 
ATOM     11  C   UNL     1      33.722 -11.042 -24.407  0.00  0.00    -0.099 C 
ATOM     12  H   UNL     1      33.792 -10.938 -22.377  0.00  0.00    -0.078 HD
BRANCH  10  13
ATOM     13  C   UNL     1      32.652  -9.386 -23.034  0.00  0.00    +0.003 C 
BRANCH  13  14
ATOM     14  C   UNL     1      33.775  -8.465 -23.227  0.00  0.00    -0.101 C 
ATOM     15  C   UNL     1      34.692  -7.706 -23.382  0.00  0.00    -0.016 C 
ENDBRANCH  13  14
ENDBRANCH  10  13
ENDBRANCH   1  10
TORSDOF 3
ENDMDL
MODEL 9
REMARK VINA RESULT:      -6.6      5.971      7.694
REMARK  Name = 5289295
REMARK  3 active torsions:
REMARK  status: ('A' for Active; 'I' for Inactive)
REMARK    1  A    between atoms: C_1  and  N_10
REMARK    2  A    between atoms: N_10  and  C_13
REMARK    3  A    between atoms: C_13  and  C_14
REMARK                            x       y       z     vdW  Elec       q    Type
REMARK                         _______ _______ _______ _____ _____    ______ ____
ROOT
ATOM      1  C   UNL     1      32.604  -9.421 -23.200  0.00  0.00    -0.033 C 
ATOM      2  C   UNL     1      32.856  -7.936 -22.860  0.00  0.00    -0.012 C 
ATOM      3  C   UNL     1      33.091  -7.857 -21.342  0.00  0.00    +0.024 C 
ATOM      4  C   UNL     1      31.980  -9.892 -21.916  0.00  0.00    -0.045 C 
ATOM      5  C   UNL     1      32.254  -9.002 -20.866  0.00  0.00    -0.028 C 
ATOM      6  C   UNL     1      31.244 -11.045 -21.697  0.00  0.00    -0.007 C 
ATOM      7  C   UNL     1      31.808  -9.254 -19.580  0.00  0.00    -0.005 C 
ATOM      8  C   UNL     1      30.778 -11.299 -20.405  0.00  0.00    -0.000 C 
ATOM      9  C   UNL     1      31.059 -10.411 -19.354  0.00  0.00    -0.000 C 
ENDROOT
BRANCH   1  10
ATOM     10  N   UNL     1      33.849 -10.118 -23.501  0.00  0.00    +0.397 N 
ATOM     11  C   UNL     1      33.589 -11.333 -24.276  0.00  0.00    -0.099 C 
ATOM     12  H   UNL     1      34.282 -10.383 -22.616  0.00  0.00    -0.078 HD
BRANCH  10  13
ATOM     13  C   UNL     1      34.771  -9.242 -24.229  0.00  0.00    +0.003 C 
BRANCH  13  14
ATOM     14  C   UNL     1      35.310  -9.917 -25.413  0.00  0.00    -0.101 C 
ATOM     15  C   UNL     1      35.756 -10.471 -26.380  0.00  0.00    -0.016 C 
ENDBRANCH  13  14
ENDBRANCH  10  13
ENDBRANCH   1  10
TORSDOF 3
ENDMDL
