MODEL 1
REMARK VINA RESULT:     -10.8      0.000      0.000
REMARK  Name = 447360
REMARK  5 active torsions:
REMARK  status: ('A' for Active; 'I' for Inactive)
REMARK    1  A    between atoms: N_2  and  C_19
REMARK    2  A    between atoms: N_3  and  S_8
REMARK    3  A    between atoms: S_8  and  C_11
REMARK    4  A    between atoms: C_12  and  C_15
REMARK    5  A    between atoms: C_19  and  C_22
REMARK                            x       y       z     vdW  Elec       q    Type
REMARK                         _______ _______ _______ _____ _____    ______ ____
ROOT
ATOM      1  O   UNL     1      35.085 -16.001 -20.457  0.00  0.00    -0.273 OA
ATOM      2  N   UNL     1      35.448 -17.100 -22.467  0.00  0.00    -0.271 N 
ATOM      3  N   UNL     1      34.140 -15.022 -23.811  0.00  0.00    -0.144 NA
ATOM      4  C   UNL     1      35.374 -17.083 -23.924  0.00  0.00    +0.113 C 
ATOM      5  C   UNL     1      34.144 -16.363 -24.435  0.00  0.00    +0.118 C 
ATOM      6  C   UNL     1      33.978 -15.108 -22.347  0.00  0.00    +0.181 C 
ATOM      7  C   UNL     1      34.905 -16.092 -21.676  0.00  0.00    +0.244 C 
ENDROOT
BRANCH   3   8
ATOM      8  S   UNL     1      33.183 -13.839 -24.593  0.00  0.00    +0.065 S 
ATOM      9  O   UNL     1      31.806 -14.031 -24.169  0.00  0.00    -0.153 OA
ATOM     10  O   UNL     1      33.514 -13.861 -26.008  0.00  0.00    -0.153 OA
BRANCH   8  11
ATOM     11  C   UNL     1      33.741 -12.336 -23.935  0.00  0.00    +0.141 C 
ATOM     12  C   UNL     1      33.049 -11.237 -24.255  0.00  0.00    +0.028 C 
BRANCH  12  15
ATOM     13 CL   UNL     1      32.783  -6.356 -21.818  0.00  0.00    -0.075 Cl
ATOM     14  S   UNL     1      32.220  -9.080 -22.858  0.00  0.00    -0.075 S 
ATOM     15  C   UNL     1      33.374  -9.924 -23.779  0.00  0.00    +0.032 C 
ATOM     16  C   UNL     1      34.530  -9.227 -23.971  0.00  0.00    +0.008 C 
ATOM     17  C   UNL     1      34.476  -7.951 -23.340  0.00  0.00    +0.018 C 
ATOM     18  C   UNL     1      33.276  -7.741 -22.698  0.00  0.00    +0.087 C 
ENDBRANCH  12  15
ENDBRANCH   8  11
ENDBRANCH   3   8
BRANCH   2  19
ATOM     19  C   UNL     1      36.324 -18.102 -21.877  0.00  0.00    +0.135 C 
BRANCH  19  22
ATOM     20  N   UNL     1      36.099 -20.043 -20.352  0.00  0.00    -0.314 N 
ATOM     21  N   UNL     1      32.839 -22.165 -19.042  0.00  0.00    -0.242 NA
ATOM     22  C   UNL     1      35.503 -19.127 -21.156  0.00  0.00    +0.046 C 
ATOM     23  C   UNL     1      34.158 -19.328 -21.156  0.00  0.00    +0.015 C 
ATOM     24  C   UNL     1      35.138 -20.866 -19.810  0.00  0.00    +0.051 C 
ATOM     25  C   UNL     1      33.904 -20.435 -20.300  0.00  0.00    +0.034 C 
ATOM     26  C   UNL     1      35.259 -21.940 -18.934  0.00  0.00    +0.035 C 
ATOM     27  C   UNL     1      32.752 -21.115 -19.893  0.00  0.00    +0.100 C 
ATOM     28  C   UNL     1      34.058 -22.544 -18.594  0.00  0.00    +0.100 C 
ATOM     29  H   UNL     1      37.066 -20.110 -20.183  0.00  0.00    +0.152 HD
ENDBRANCH  19  22
ENDBRANCH   2  19
TORSDOF 5
ENDMDL
MODEL 2
REMARK VINA RESULT:     -10.7      1.481      1.681
REMARK  Name = 447360
REMARK  5 active torsions:
REMARK  status: ('A' for Active; 'I' for Inactive)
REMARK    1  A    between atoms: N_2  and  C_19
REMARK    2  A    between atoms: N_3  and  S_8
REMARK    3  A    between atoms: S_8  and  C_11
REMARK    4  A    between atoms: C_12  and  C_15
REMARK    5  A    between atoms: C_19  and  C_22
REMARK                            x       y       z     vdW  Elec       q    Type
REMARK                         _______ _______ _______ _____ _____    ______ ____
ROOT
ATOM      1  O   UNL     1      35.129 -16.134 -20.283  0.00  0.00    -0.273 OA
ATOM      2  N   UNL     1      35.393 -17.057 -22.393  0.00  0.00    -0.271 N 
ATOM      3  N   UNL     1      34.066 -14.853 -23.496  0.00  0.00    -0.144 NA
ATOM      4  C   UNL     1      35.262 -16.911 -23.840  0.00  0.00    +0.113 C 
ATOM      5  C   UNL     1      34.024 -16.134 -24.234  0.00  0.00    +0.118 C 
ATOM      6  C   UNL     1      33.962 -15.065 -22.040  0.00  0.00    +0.181 C 
ATOM      7  C   UNL     1      34.899 -16.115 -21.496  0.00  0.00    +0.244 C 
ENDROOT
BRANCH   3   8
ATOM      8  S   UNL     1      33.097 -13.593 -24.132  0.00  0.00    +0.065 S 
ATOM      9  O   UNL     1      31.722 -14.064 -24.161  0.00  0.00    -0.153 OA
ATOM     10  O   UNL     1      33.726 -13.121 -25.354  0.00  0.00    -0.153 OA
BRANCH   8  11
ATOM     11  C   UNL     1      33.208 -12.333 -22.949  0.00  0.00    +0.141 C 
ATOM     12  C   UNL     1      32.057 -11.828 -22.488  0.00  0.00    +0.028 C 
BRANCH  12  15
ATOM     13 CL   UNL     1      32.283  -6.982 -19.977  0.00  0.00    -0.075 Cl
ATOM     14  S   UNL     1      32.400  -9.205 -21.942  0.00  0.00    -0.075 S 
ATOM     15  C   UNL     1      31.982 -10.794 -21.498  0.00  0.00    +0.032 C 
ATOM     16  C   UNL     1      31.605 -10.910 -20.193  0.00  0.00    +0.008 C 
ATOM     17  C   UNL     1      31.659  -9.654 -19.524  0.00  0.00    +0.018 C 
ATOM     18  C   UNL     1      32.075  -8.640 -20.358  0.00  0.00    +0.087 C 
ENDBRANCH  12  15
ENDBRANCH   8  11
ENDBRANCH   3   8
BRANCH   2  19
ATOM     19  C   UNL     1      36.276 -18.117 -21.930  0.00  0.00    +0.135 C 
BRANCH  19  22
ATOM     20  N   UNL     1      36.096 -20.029 -20.361  0.00  0.00    -0.314 N 
ATOM     21  N   UNL     1      32.889 -22.208 -19.016  0.00  0.00    -0.242 NA
ATOM     22  C   UNL     1      35.479 -19.147 -21.189  0.00  0.00    +0.046 C 
ATOM     23  C   UNL     1      34.140 -19.385 -21.189  0.00  0.00    +0.015 C 
ATOM     24  C   UNL     1      35.155 -20.864 -19.804  0.00  0.00    +0.051 C 
ATOM     25  C   UNL     1      33.913 -20.479 -20.309  0.00  0.00    +0.034 C 
ATOM     26  C   UNL     1      35.302 -21.915 -18.903  0.00  0.00    +0.035 C 
ATOM     27  C   UNL     1      32.777 -21.180 -19.891  0.00  0.00    +0.100 C 
ATOM     28  C   UNL     1      34.115 -22.543 -18.554  0.00  0.00    +0.100 C 
ATOM     29  H   UNL     1      37.064 -20.066 -20.187  0.00  0.00    +0.152 HD
ENDBRANCH  19  22
ENDBRANCH   2  19
TORSDOF 5
ENDMDL
MODEL 3
REMARK VINA RESULT:     -10.2      6.232     10.914
REMARK  Name = 447360
REMARK  5 active torsions:
REMARK  status: ('A' for Active; 'I' for Inactive)
REMARK    1  A    between atoms: N_2  and  C_19
REMARK    2  A    between atoms: N_3  and  S_8
REMARK    3  A    between atoms: S_8  and  C_11
REMARK    4  A    between atoms: C_12  and  C_15
REMARK    5  A    between atoms: C_19  and  C_22
REMARK                            x       y       z     vdW  Elec       q    Type
REMARK                         _______ _______ _______ _____ _____    ______ ____
ROOT
ATOM      1  O   UNL     1      37.567 -19.770 -20.548  0.00  0.00    -0.273 OA
ATOM      2  N   UNL     1      35.470 -19.173 -21.335  0.00  0.00    -0.271 N 
ATOM      3  N   UNL     1      34.319 -21.094 -19.655  0.00  0.00    -0.144 NA
ATOM      4  C   UNL     1      34.020 -19.305 -21.234  0.00  0.00    +0.113 C 
ATOM      5  C   UNL     1      33.588 -20.713 -20.883  0.00  0.00    +0.118 C 
ATOM      6  C   UNL     1      35.773 -21.166 -19.893  0.00  0.00    +0.181 C 
ATOM      7  C   UNL     1      36.348 -19.962 -20.598  0.00  0.00    +0.244 C 
ENDROOT
BRANCH   3   8
ATOM      8  S   UNL     1      33.650 -22.391 -18.761  0.00  0.00    +0.065 S 
ATOM      9  O   UNL     1      33.847 -23.608 -19.532  0.00  0.00    -0.153 OA
ATOM     10  O   UNL     1      32.312 -22.005 -18.348  0.00  0.00    -0.153 OA
BRANCH   8  11
ATOM     11  C   UNL     1      34.643 -22.488 -17.344  0.00  0.00    +0.141 C 
ATOM     12  C   UNL     1      34.195 -23.250 -16.339  0.00  0.00    +0.028 C 
BRANCH  12  15
ATOM     13 CL   UNL     1      35.467 -24.620 -11.206  0.00  0.00    -0.075 Cl
ATOM     14  S   UNL     1      34.096 -24.169 -13.801  0.00  0.00    -0.075 S 
ATOM     15  C   UNL     1      34.907 -23.443 -15.109  0.00  0.00    +0.032 C 
ATOM     16  C   UNL     1      36.199 -23.111 -14.829  0.00  0.00    +0.008 C 
ATOM     17  C   UNL     1      36.546 -23.463 -13.493  0.00  0.00    +0.018 C 
ATOM     18  C   UNL     1      35.495 -24.047 -12.822  0.00  0.00    +0.087 C 
ENDBRANCH  12  15
ENDBRANCH   8  11
ENDBRANCH   3   8
BRANCH   2  19
ATOM     19  C   UNL     1      35.963 -18.015 -22.066  0.00  0.00    +0.135 C 
BRANCH  19  22
ATOM     20  N   UNL     1      34.525 -16.189 -22.930  0.00  0.00    -0.314 N 
ATOM     21  N   UNL     1      32.210 -13.369 -21.050  0.00  0.00    -0.242 NA
ATOM     22  C   UNL     1      35.031 -16.859 -21.864  0.00  0.00    +0.046 C 
ATOM     23  C   UNL     1      34.557 -16.308 -20.714  0.00  0.00    +0.015 C 
ATOM     24  C   UNL     1      33.704 -15.179 -22.484  0.00  0.00    +0.051 C 
ATOM     25  C   UNL     1      33.706 -15.232 -21.090  0.00  0.00    +0.034 C 
ATOM     26  C   UNL     1      32.967 -14.235 -23.194  0.00  0.00    +0.035 C 
ATOM     27  C   UNL     1      32.937 -14.300 -20.387  0.00  0.00    +0.100 C 
ATOM     28  C   UNL     1      32.241 -13.358 -22.402  0.00  0.00    +0.100 C 
ATOM     29  H   UNL     1      34.716 -16.392 -23.874  0.00  0.00    +0.152 HD
ENDBRANCH  19  22
ENDBRANCH   2  19
TORSDOF 5
ENDMDL
MODEL 4
REMARK VINA RESULT:     -10.2      6.112     11.100
REMARK  Name = 447360
REMARK  5 active torsions:
REMARK  status: ('A' for Active; 'I' for Inactive)
REMARK    1  A    between atoms: N_2  and  C_19
REMARK    2  A    between atoms: N_3  and  S_8
REMARK    3  A    between atoms: S_8  and  C_11
REMARK    4  A    between atoms: C_12  and  C_15
REMARK    5  A    between atoms: C_19  and  C_22
REMARK                            x       y       z     vdW  Elec       q    Type
REMARK                         _______ _______ _______ _____ _____    ______ ____
ROOT
ATOM      1  O   UNL     1      33.389 -19.339 -21.737  0.00  0.00    -0.273 OA
ATOM      2  N   UNL     1      35.466 -19.813 -20.821  0.00  0.00    -0.271 N 
ATOM      3  N   UNL     1      34.315 -21.901 -19.354  0.00  0.00    -0.144 NA
ATOM      4  C   UNL     1      36.292 -20.696 -20.004  0.00  0.00    +0.113 C 
ATOM      5  C   UNL     1      35.539 -21.265 -18.820  0.00  0.00    +0.118 C 
ATOM      6  C   UNL     1      33.413 -20.907 -19.967  0.00  0.00    +0.181 C 
ATOM      7  C   UNL     1      34.088 -19.970 -20.937  0.00  0.00    +0.244 C 
ENDROOT
BRANCH   3   8
ATOM      8  S   UNL     1      33.565 -23.050 -18.331  0.00  0.00    +0.065 S 
ATOM      9  O   UNL     1      33.712 -24.356 -18.950  0.00  0.00    -0.153 OA
ATOM     10  O   UNL     1      32.241 -22.552 -17.997  0.00  0.00    -0.153 OA
BRANCH   8  11
ATOM     11  C   UNL     1      34.526 -23.027 -16.890  0.00  0.00    +0.141 C 
ATOM     12  C   UNL     1      33.997 -23.590 -15.797  0.00  0.00    +0.028 C 
BRANCH  12  15
ATOM     13 CL   UNL     1      37.780 -23.232 -11.873  0.00  0.00    -0.075 Cl
ATOM     14  S   UNL     1      36.282 -23.125 -14.435  0.00  0.00    -0.075 S 
ATOM     15  C   UNL     1      34.671 -23.665 -14.534  0.00  0.00    +0.032 C 
ATOM     16  C   UNL     1      34.181 -24.130 -13.350  0.00  0.00    +0.008 C 
ATOM     17  C   UNL     1      35.157 -24.042 -12.316  0.00  0.00    +0.018 C 
ATOM     18  C   UNL     1      36.346 -23.514 -12.768  0.00  0.00    +0.087 C 
ENDBRANCH  12  15
ENDBRANCH   8  11
ENDBRANCH   3   8
BRANCH   2  19
ATOM     19  C   UNL     1      36.177 -18.900 -21.705  0.00  0.00    +0.135 C 
BRANCH  19  22
ATOM     20  N   UNL     1      34.980 -17.192 -23.045  0.00  0.00    -0.314 N 
ATOM     21  N   UNL     1      33.076 -13.705 -22.015  0.00  0.00    -0.242 NA
ATOM     22  C   UNL     1      35.407 -17.621 -21.830  0.00  0.00    +0.046 C 
ATOM     23  C   UNL     1      35.023 -16.733 -20.874  0.00  0.00    +0.015 C 
ATOM     24  C   UNL     1      34.303 -16.003 -22.896  0.00  0.00    +0.051 C 
ATOM     25  C   UNL     1      34.315 -15.692 -21.536  0.00  0.00    +0.034 C 
ATOM     26  C   UNL     1      33.687 -15.190 -23.843  0.00  0.00    +0.035 C 
ATOM     27  C   UNL     1      33.683 -14.517 -21.116  0.00  0.00    +0.100 C 
ATOM     28  C   UNL     1      33.092 -14.051 -23.322  0.00  0.00    +0.100 C 
ATOM     29  H   UNL     1      35.131 -17.657 -23.899  0.00  0.00    +0.152 HD
ENDBRANCH  19  22
ENDBRANCH   2  19
TORSDOF 5
ENDMDL
MODEL 5
REMARK VINA RESULT:     -10.0      4.404     10.069
REMARK  Name = 447360
REMARK  5 active torsions:
REMARK  status: ('A' for Active; 'I' for Inactive)
REMARK    1  A    between atoms: N_2  and  C_19
REMARK    2  A    between atoms: N_3  and  S_8
REMARK    3  A    between atoms: S_8  and  C_11
REMARK    4  A    between atoms: C_12  and  C_15
REMARK    5  A    between atoms: C_19  and  C_22
REMARK                            x       y       z     vdW  Elec       q    Type
REMARK                         _______ _______ _______ _____ _____    ______ ____
ROOT
ATOM      1  O   UNL     1      32.702 -14.575 -20.320  0.00  0.00    -0.273 OA
ATOM      2  N   UNL     1      32.714 -14.135 -22.597  0.00  0.00    -0.271 N 
ATOM      3  N   UNL     1      34.070 -16.544 -23.032  0.00  0.00    -0.144 NA
ATOM      4  C   UNL     1      33.001 -14.596 -23.951  0.00  0.00    +0.113 C 
ATOM      5  C   UNL     1      34.245 -15.457 -24.019  0.00  0.00    +0.118 C 
ATOM      6  C   UNL     1      34.018 -16.019 -21.654  0.00  0.00    +0.181 C 
ATOM      7  C   UNL     1      33.067 -14.863 -21.465  0.00  0.00    +0.244 C 
ENDROOT
BRANCH   3   8
ATOM      8  S   UNL     1      35.055 -17.925 -23.261  0.00  0.00    +0.065 S 
ATOM      9  O   UNL     1      36.418 -17.559 -22.914  0.00  0.00    -0.153 OA
ATOM     10  O   UNL     1      34.763 -18.467 -24.577  0.00  0.00    -0.153 OA
BRANCH   8  11
ATOM     11  C   UNL     1      34.486 -19.055 -22.077  0.00  0.00    +0.141 C 
ATOM     12  C   UNL     1      35.407 -19.646 -21.307  0.00  0.00    +0.028 C 
BRANCH  12  15
ATOM     13 CL   UNL     1      32.693 -22.837 -17.802  0.00  0.00    -0.075 Cl
ATOM     14  S   UNL     1      33.461 -20.903 -19.920  0.00  0.00    -0.075 S 
ATOM     15  C   UNL     1      35.095 -20.589 -20.274  0.00  0.00    +0.032 C 
ATOM     16  C   UNL     1      35.963 -21.302 -19.501  0.00  0.00    +0.008 C 
ATOM     17  C   UNL     1      35.270 -22.140 -18.581  0.00  0.00    +0.018 C 
ATOM     18  C   UNL     1      33.903 -22.022 -18.702  0.00  0.00    +0.087 C 
ENDBRANCH  12  15
ENDBRANCH   8  11
ENDBRANCH   3   8
BRANCH   2  19
ATOM     19  C   UNL     1      31.825 -12.987 -22.482  0.00  0.00    +0.135 C 
BRANCH  19  22
ATOM     20  N   UNL     1      32.198 -10.538 -22.372  0.00  0.00    -0.314 N 
ATOM     21  N   UNL     1      34.904  -8.068 -24.221  0.00  0.00    -0.242 NA
ATOM     22  C   UNL     1      32.558 -11.742 -22.884  0.00  0.00    +0.046 C 
ATOM     23  C   UNL     1      33.604 -11.580 -23.737  0.00  0.00    +0.015 C 
ATOM     24  C   UNL     1      33.015  -9.561 -22.892  0.00  0.00    +0.051 C 
ATOM     25  C   UNL     1      33.912 -10.191 -23.755  0.00  0.00    +0.034 C 
ATOM     26  C   UNL     1      33.034  -8.187 -22.669  0.00  0.00    +0.035 C 
ATOM     27  C   UNL     1      34.862  -9.407 -24.418  0.00  0.00    +0.100 C 
ATOM     28  C   UNL     1      34.013  -7.503 -23.374  0.00  0.00    +0.100 C 
ATOM     29  H   UNL     1      31.466 -10.387 -21.731  0.00  0.00    +0.152 HD
ENDBRANCH  19  22
ENDBRANCH   2  19
TORSDOF 5
ENDMDL
MODEL 6
REMARK VINA RESULT:      -9.9      2.140      2.878
REMARK  Name = 447360
REMARK  5 active torsions:
REMARK  status: ('A' for Active; 'I' for Inactive)
REMARK    1  A    between atoms: N_2  and  C_19
REMARK    2  A    between atoms: N_3  and  S_8
REMARK    3  A    between atoms: S_8  and  C_11
REMARK    4  A    between atoms: C_12  and  C_15
REMARK    5  A    between atoms: C_19  and  C_22
REMARK                            x       y       z     vdW  Elec       q    Type
REMARK                         _______ _______ _______ _____ _____    ______ ____
ROOT
ATOM      1  O   UNL     1      34.877 -15.449 -20.232  0.00  0.00    -0.273 OA
ATOM      2  N   UNL     1      34.250 -15.210 -22.451  0.00  0.00    -0.271 N 
ATOM      3  N   UNL     1      32.718 -12.974 -21.752  0.00  0.00    -0.144 NA
ATOM      4  C   UNL     1      33.574 -14.418 -23.474  0.00  0.00    +0.113 C 
ATOM      5  C   UNL     1      32.324 -13.742 -22.953  0.00  0.00    +0.118 C 
ATOM      6  C   UNL     1      33.177 -13.864 -20.668  0.00  0.00    +0.181 C 
ATOM      7  C   UNL     1      34.194 -14.892 -21.098  0.00  0.00    +0.244 C 
ENDROOT
BRANCH   3   8
ATOM      8  S   UNL     1      31.647 -11.725 -21.280  0.00  0.00    +0.065 S 
ATOM      9  O   UNL     1      31.599 -11.707 -19.828  0.00  0.00    -0.153 OA
ATOM     10  O   UNL     1      30.420 -11.879 -22.043  0.00  0.00    -0.153 OA
BRANCH   8  11
ATOM     11  C   UNL     1      32.429 -10.272 -21.809  0.00  0.00    +0.141 C 
ATOM     12  C   UNL     1      31.923  -9.668 -22.891  0.00  0.00    +0.028 C 
BRANCH  12  15
ATOM     13 CL   UNL     1      32.324  -4.693 -25.111  0.00  0.00    -0.075 Cl
ATOM     14  S   UNL     1      31.356  -7.251 -23.954  0.00  0.00    -0.075 S 
ATOM     15  C   UNL     1      32.446  -8.452 -23.441  0.00  0.00    +0.032 C 
ATOM     16  C   UNL     1      33.754  -8.110 -23.620  0.00  0.00    +0.008 C 
ATOM     17  C   UNL     1      33.875  -6.813 -24.199  0.00  0.00    +0.018 C 
ATOM     18  C   UNL     1      32.648  -6.234 -24.432  0.00  0.00    +0.087 C 
ENDBRANCH  12  15
ENDBRANCH   8  11
ENDBRANCH   3   8
BRANCH   2  19
ATOM     19  C   UNL     1      35.186 -16.217 -22.930  0.00  0.00    +0.135 C 
BRANCH  19  22
ATOM     20  N   UNL     1      33.767 -17.914 -21.808  0.00  0.00    -0.314 N 
ATOM     21  N   UNL     1      34.671 -21.348 -19.751  0.00  0.00    -0.242 NA
ATOM     22  C   UNL     1      35.009 -17.481 -22.144  0.00  0.00    +0.046 C 
ATOM     23  C   UNL     1      35.939 -18.349 -21.662  0.00  0.00    +0.015 C 
ATOM     24  C   UNL     1      33.872 -19.086 -21.094  0.00  0.00    +0.051 C 
ATOM     25  C   UNL     1      35.232 -19.383 -20.988  0.00  0.00    +0.034 C 
ATOM     26  C   UNL     1      32.885 -19.897 -20.542  0.00  0.00    +0.035 C 
ATOM     27  C   UNL     1      35.609 -20.540 -20.300  0.00  0.00    +0.100 C 
ATOM     28  C   UNL     1      33.366 -21.017 -19.881  0.00  0.00    +0.100 C 
ATOM     29  H   UNL     1      32.924 -17.461 -22.039  0.00  0.00    +0.152 HD
ENDBRANCH  19  22
ENDBRANCH   2  19
TORSDOF 5
ENDMDL
MODEL 7
REMARK VINA RESULT:      -9.7      6.374     10.936
REMARK  Name = 447360
REMARK  5 active torsions:
REMARK  status: ('A' for Active; 'I' for Inactive)
REMARK    1  A    between atoms: N_2  and  C_19
REMARK    2  A    between atoms: N_3  and  S_8
REMARK    3  A    between atoms: S_8  and  C_11
REMARK    4  A    between atoms: C_12  and  C_15
REMARK    5  A    between atoms: C_19  and  C_22
REMARK                            x       y       z     vdW  Elec       q    Type
REMARK                         _______ _______ _______ _____ _____    ______ ____
ROOT
ATOM      1  O   UNL     1      37.791 -20.151 -20.270  0.00  0.00    -0.273 OA
ATOM      2  N   UNL     1      35.749 -19.190 -20.798  0.00  0.00    -0.271 N 
ATOM      3  N   UNL     1      34.448 -21.283 -19.471  0.00  0.00    -0.144 NA
ATOM      4  C   UNL     1      34.298 -19.187 -20.640  0.00  0.00    +0.113 C 
ATOM      5  C   UNL     1      33.721 -20.584 -20.552  0.00  0.00    +0.118 C 
ATOM      6  C   UNL     1      35.875 -21.456 -19.804  0.00  0.00    +0.181 C 
ATOM      7  C   UNL     1      36.557 -20.200 -20.287  0.00  0.00    +0.244 C 
ENDROOT
BRANCH   3   8
ATOM      8  S   UNL     1      33.669 -22.659 -18.816  0.00  0.00    +0.065 S 
ATOM      9  O   UNL     1      33.845 -23.756 -19.753  0.00  0.00    -0.153 OA
ATOM     10  O   UNL     1      32.331 -22.262 -18.410  0.00  0.00    -0.153 OA
BRANCH   8  11
ATOM     11  C   UNL     1      34.578 -23.023 -17.387  0.00  0.00    +0.141 C 
ATOM     12  C   UNL     1      33.895 -23.119 -16.240  0.00  0.00    +0.028 C 
BRANCH  12  15
ATOM     13 CL   UNL     1      37.452 -23.501 -12.112  0.00  0.00    -0.075 Cl
ATOM     14  S   UNL     1      36.096 -22.917 -14.688  0.00  0.00    -0.075 S 
ATOM     15  C   UNL     1      34.500 -23.429 -14.977  0.00  0.00    +0.032 C 
ATOM     16  C   UNL     1      33.950 -24.107 -13.930  0.00  0.00    +0.008 C 
ATOM     17  C   UNL     1      34.866 -24.214 -12.844  0.00  0.00    +0.018 C 
ATOM     18  C   UNL     1      36.072 -23.610 -13.123  0.00  0.00    +0.087 C 
ENDBRANCH  12  15
ENDBRANCH   8  11
ENDBRANCH   3   8
BRANCH   2  19
ATOM     19  C   UNL     1      36.343 -17.964 -21.311  0.00  0.00    +0.135 C 
BRANCH  19  22
ATOM     20  N   UNL     1      35.080 -16.230 -22.555  0.00  0.00    -0.314 N 
ATOM     21  N   UNL     1      33.256 -16.244 -26.232  0.00  0.00    -0.242 NA
ATOM     22  C   UNL     1      35.573 -17.494 -22.508  0.00  0.00    +0.046 C 
ATOM     23  C   UNL     1      35.247 -18.152 -23.653  0.00  0.00    +0.015 C 
ATOM     24  C   UNL     1      34.418 -16.045 -23.747  0.00  0.00    +0.051 C 
ATOM     25  C   UNL     1      34.508 -17.242 -24.458  0.00  0.00    +0.034 C 
ATOM     26  C   UNL     1      33.756 -14.928 -24.247  0.00  0.00    +0.035 C 
ATOM     27  C   UNL     1      33.909 -17.315 -25.719  0.00  0.00    +0.100 C 
ATOM     28  C   UNL     1      33.196 -15.106 -25.504  0.00  0.00    +0.100 C 
ATOM     29  H   UNL     1      35.180 -15.553 -21.848  0.00  0.00    +0.152 HD
ENDBRANCH  19  22
ENDBRANCH   2  19
TORSDOF 5
ENDMDL
MODEL 8
REMARK VINA RESULT:      -9.4      4.670      7.665
REMARK  Name = 447360
REMARK  5 active torsions:
REMARK  status: ('A' for Active; 'I' for Inactive)
REMARK    1  A    between atoms: N_2  and  C_19
REMARK    2  A    between atoms: N_3  and  S_8
REMARK    3  A    between atoms: S_8  and  C_11
REMARK    4  A    between atoms: C_12  and  C_15
REMARK    5  A    between atoms: C_19  and  C_22
REMARK                            x       y       z     vdW  Elec       q    Type
REMARK                         _______ _______ _______ _____ _____    ______ ____
ROOT
ATOM      1  O   UNL     1      32.314 -22.804 -18.348  0.00  0.00    -0.273 OA
ATOM      2  N   UNL     1      34.406 -22.712 -17.352  0.00  0.00    -0.271 N 
ATOM      3  N   UNL     1      35.248 -20.934 -19.343  0.00  0.00    -0.144 NA
ATOM      4  C   UNL     1      35.733 -22.106 -17.299  0.00  0.00    +0.113 C 
ATOM      5  C   UNL     1      36.271 -21.767 -18.674  0.00  0.00    +0.118 C 
ATOM      6  C   UNL     1      34.002 -21.690 -19.573  0.00  0.00    +0.181 C 
ATOM      7  C   UNL     1      33.491 -22.428 -18.361  0.00  0.00    +0.244 C 
ENDROOT
BRANCH   3   8
ATOM      8  S   UNL     1      35.799 -19.996 -20.664  0.00  0.00    +0.065 S 
ATOM      9  O   UNL     1      35.767 -20.837 -21.849  0.00  0.00    -0.153 OA
ATOM     10  O   UNL     1      37.040 -19.353 -20.267  0.00  0.00    -0.153 OA
BRANCH   8  11
ATOM     11  C   UNL     1      34.592 -18.766 -20.846  0.00  0.00    +0.141 C 
ATOM     12  C   UNL     1      34.999 -17.578 -21.307  0.00  0.00    +0.028 C 
BRANCH  12  15
ATOM     13 CL   UNL     1      32.590 -13.178 -23.471  0.00  0.00    -0.075 Cl
ATOM     14  S   UNL     1      34.347 -15.506 -22.912  0.00  0.00    -0.075 S 
ATOM     15  C   UNL     1      34.120 -16.466 -21.526  0.00  0.00    +0.032 C 
ATOM     16  C   UNL     1      33.083 -16.053 -20.744  0.00  0.00    +0.008 C 
ATOM     17  C   UNL     1      32.443 -14.905 -21.297  0.00  0.00    +0.018 C 
ATOM     18  C   UNL     1      33.031 -14.502 -22.475  0.00  0.00    +0.087 C 
ENDBRANCH  12  15
ENDBRANCH   8  11
ENDBRANCH   3   8
BRANCH   2  19
ATOM     19  C   UNL     1      33.987 -23.450 -16.169  0.00  0.00    +0.135 C 
BRANCH  19  22
ATOM     20  N   UNL     1      35.263 -23.057 -14.080  0.00  0.00    -0.314 N 
ATOM     21  N   UNL     1      38.841 -24.528 -12.707  0.00  0.00    -0.242 NA
ATOM     22  C   UNL     1      35.170 -23.686 -15.279  0.00  0.00    +0.046 C 
ATOM     23  C   UNL     1      36.260 -24.478 -15.463  0.00  0.00    +0.015 C 
ATOM     24  C   UNL     1      36.431 -23.436 -13.458  0.00  0.00    +0.051 C 
ATOM     25  C   UNL     1      37.078 -24.333 -14.309  0.00  0.00    +0.034 C 
ATOM     26  C   UNL     1      36.958 -23.064 -12.225  0.00  0.00    +0.035 C 
ATOM     27  C   UNL     1      38.302 -24.872 -13.902  0.00  0.00    +0.100 C 
ATOM     28  C   UNL     1      38.174 -23.655 -11.918  0.00  0.00    +0.100 C 
ATOM     29  H   UNL     1      34.601 -22.429 -13.713  0.00  0.00    +0.152 HD
ENDBRANCH  19  22
ENDBRANCH   2  19
TORSDOF 5
ENDMDL
MODEL 9
REMARK VINA RESULT:      -9.4      3.661      6.321
REMARK  Name = 447360
REMARK  5 active torsions:
REMARK  status: ('A' for Active; 'I' for Inactive)
REMARK    1  A    between atoms: N_2  and  C_19
REMARK    2  A    between atoms: N_3  and  S_8
REMARK    3  A    between atoms: S_8  and  C_11
REMARK    4  A    between atoms: C_12  and  C_15
REMARK    5  A    between atoms: C_19  and  C_22
REMARK                            x       y       z     vdW  Elec       q    Type
REMARK                         _______ _______ _______ _____ _____    ______ ____
ROOT
ATOM      1  O   UNL     1      31.996 -20.974 -19.069  0.00  0.00    -0.273 OA
ATOM      2  N   UNL     1      34.033 -22.074 -18.933  0.00  0.00    -0.271 N 
ATOM      3  N   UNL     1      35.207 -20.033 -20.448  0.00  0.00    -0.144 NA
ATOM      4  C   UNL     1      35.471 -22.065 -19.188  0.00  0.00    +0.113 C 
ATOM      5  C   UNL     1      35.825 -21.377 -20.490  0.00  0.00    +0.118 C 
ATOM      6  C   UNL     1      33.734 -20.116 -20.424  0.00  0.00    +0.181 C 
ATOM      7  C   UNL     1      33.183 -21.075 -19.397  0.00  0.00    +0.244 C 
ENDROOT
BRANCH   3   8
ATOM      8  S   UNL     1      35.866 -18.876 -21.524  0.00  0.00    +0.065 S 
ATOM      9  O   UNL     1      35.386 -19.190 -22.859  0.00  0.00    -0.153 OA
ATOM     10  O   UNL     1      37.294 -18.793 -21.269  0.00  0.00    -0.153 OA
BRANCH   8  11
ATOM     11  C   UNL     1      35.144 -17.380 -21.033  0.00  0.00    +0.141 C 
ATOM     12  C   UNL     1      34.322 -16.785 -21.906  0.00  0.00    +0.028 C 
BRANCH  12  15
ATOM     13 CL   UNL     1      31.863 -11.947 -22.524  0.00  0.00    -0.075 Cl
ATOM     14  S   UNL     1      33.277 -14.524 -22.948  0.00  0.00    -0.075 S 
ATOM     15  C   UNL     1      33.638 -15.553 -21.643  0.00  0.00    +0.032 C 
ATOM     16  C   UNL     1      33.218 -15.070 -20.439  0.00  0.00    +0.008 C 
ATOM     17  C   UNL     1      32.573 -13.808 -20.584  0.00  0.00    +0.018 C 
ATOM     18  C   UNL     1      32.536 -13.393 -21.897  0.00  0.00    +0.087 C 
ENDBRANCH  12  15
ENDBRANCH   8  11
ENDBRANCH   3   8
BRANCH   2  19
ATOM     19  C   UNL     1      33.556 -23.052 -17.966  0.00  0.00    +0.135 C 
BRANCH  19  22
ATOM     20  N   UNL     1      34.053 -23.553 -15.589  0.00  0.00    -0.314 N 
ATOM     21  N   UNL     1      37.452 -23.130 -13.328  0.00  0.00    -0.242 NA
ATOM     22  C   UNL     1      34.484 -23.090 -16.790  0.00  0.00    +0.046 C 
ATOM     23  C   UNL     1      35.788 -22.715 -16.692  0.00  0.00    +0.015 C 
ATOM     24  C   UNL     1      35.084 -23.486 -14.680  0.00  0.00    +0.051 C 
ATOM     25  C   UNL     1      36.190 -22.961 -15.350  0.00  0.00    +0.034 C 
ATOM     26  C   UNL     1      35.126 -23.844 -13.336  0.00  0.00    +0.035 C 
ATOM     27  C   UNL     1      37.381 -22.791 -14.637  0.00  0.00    +0.100 C 
ATOM     28  C   UNL     1      36.352 -23.636 -12.723  0.00  0.00    +0.100 C 
ATOM     29  H   UNL     1      33.146 -23.885 -15.399  0.00  0.00    +0.152 HD
ENDBRANCH  19  22
ENDBRANCH   2  19
TORSDOF 5
ENDMDL
