MODEL 1
REMARK VINA RESULT:      -9.0      0.000      0.000
REMARK  Name = 54929
REMARK  7 active torsions:
REMARK  status: ('A' for Active; 'I' for Inactive)
REMARK    1  A    between atoms: N_3  and  C_17
REMARK    2  A    between atoms: C_5  and  C_10
REMARK    3  A    between atoms: C_10  and  C_11
REMARK    4  A    between atoms: C_17  and  O_18
REMARK    5  A    between atoms: O_18  and  C_19
REMARK    6  A    between atoms: C_19  and  C_20
REMARK    7  A    between atoms: C_20  and  O_21
REMARK                            x       y       z     vdW  Elec       q    Type
REMARK                         _______ _______ _______ _____ _____    ______ ____
ROOT
ATOM      1  O   UNL     1      35.219 -19.780 -24.273  0.00  0.00    -0.270 OA
ATOM      2  O   UNL     1      33.420 -15.948 -26.071  0.00  0.00    -0.252 OA
ATOM      3  N   UNL     1      34.358 -15.843 -23.937  0.00  0.00    -0.216 N 
ATOM      4  N   UNL     1      34.320 -17.852 -25.162  0.00  0.00    -0.236 N 
ATOM      5  C   UNL     1      35.310 -17.810 -22.952  0.00  0.00    +0.051 C 
ATOM      6  C   UNL     1      34.995 -16.510 -22.911  0.00  0.00    +0.072 C 
ATOM      7  C   UNL     1      34.957 -18.584 -24.172  0.00  0.00    +0.250 C 
ATOM      8  C   UNL     1      33.989 -16.494 -25.123  0.00  0.00    +0.315 C 
ATOM      9  H   UNL     1      34.074 -18.341 -25.980  0.00  0.00    +0.159 HD
ENDROOT
BRANCH   5  10
ATOM     10  C   UNL     1      35.999 -18.530 -21.837  0.00  0.00    +0.059 C 
BRANCH  10  11
ATOM     11  C   UNL     1      35.076 -19.448 -21.084  0.00  0.00    -0.018 C 
ATOM     12  C   UNL     1      33.709 -19.200 -21.089  0.00  0.00    -0.004 C 
ATOM     13  C   UNL     1      35.602 -20.530 -20.392  0.00  0.00    -0.004 C 
ATOM     14  C   UNL     1      32.854 -20.052 -20.390  0.00  0.00    -0.000 C 
ATOM     15  C   UNL     1      34.747 -21.382 -19.693  0.00  0.00    -0.000 C 
ATOM     16  C   UNL     1      33.372 -21.142 -19.692  0.00  0.00    -0.000 C 
ENDBRANCH  10  11
ENDBRANCH   5  10
BRANCH   3  17
ATOM     17  C   UNL     1      34.077 -14.423 -23.754  0.00  0.00    +0.248 C 
BRANCH  17  18
ATOM     18  O   UNL     1      32.740 -14.280 -23.300  0.00  0.00    -0.331 OA
BRANCH  18  19
ATOM     19  C   UNL     1      32.667 -13.456 -22.145  0.00  0.00    +0.176 C 
BRANCH  19  20
ATOM     20  C   UNL     1      32.787 -14.325 -20.908  0.00  0.00    +0.169 C 
BRANCH  20  21
ATOM     21  O   UNL     1      32.081 -15.540 -21.124  0.00  0.00    -0.379 OA
ATOM     22  H   UNL     1      32.595 -16.281 -20.765  0.00  0.00    +0.211 HD
ENDBRANCH  20  21
ENDBRANCH  19  20
ENDBRANCH  18  19
ENDBRANCH  17  18
ENDBRANCH   3  17
TORSDOF 7
ENDMDL
MODEL 2
REMARK VINA RESULT:      -9.0      6.477      9.051
REMARK  Name = 54929
REMARK  7 active torsions:
REMARK  status: ('A' for Active; 'I' for Inactive)
REMARK    1  A    between atoms: N_3  and  C_17
REMARK    2  A    between atoms: C_5  and  C_10
REMARK    3  A    between atoms: C_10  and  C_11
REMARK    4  A    between atoms: C_17  and  O_18
REMARK    5  A    between atoms: O_18  and  C_19
REMARK    6  A    between atoms: C_19  and  C_20
REMARK    7  A    between atoms: C_20  and  O_21
REMARK                            x       y       z     vdW  Elec       q    Type
REMARK                         _______ _______ _______ _____ _____    ______ ____
ROOT
ATOM      1  O   UNL     1      35.407 -23.260 -16.392  0.00  0.00    -0.270 OA
ATOM      2  O   UNL     1      31.797 -22.835 -13.575  0.00  0.00    -0.252 OA
ATOM      3  N   UNL     1      31.405 -23.018 -15.867  0.00  0.00    -0.216 N 
ATOM      4  N   UNL     1      33.588 -23.047 -14.991  0.00  0.00    -0.236 N 
ATOM      5  C   UNL     1      33.250 -23.242 -17.381  0.00  0.00    +0.051 C 
ATOM      6  C   UNL     1      31.938 -23.156 -17.133  0.00  0.00    +0.072 C 
ATOM      7  C   UNL     1      34.192 -23.186 -16.232  0.00  0.00    +0.250 C 
ATOM      8  C   UNL     1      32.218 -22.957 -14.727  0.00  0.00    +0.315 C 
ATOM      9  H   UNL     1      34.190 -23.007 -14.213  0.00  0.00    +0.159 HD
ENDROOT
BRANCH   5  10
ATOM     10  C   UNL     1      33.824 -23.390 -18.754  0.00  0.00    +0.059 C 
BRANCH  10  11
ATOM     11  C   UNL     1      34.061 -22.067 -19.429  0.00  0.00    -0.018 C 
ATOM     12  C   UNL     1      35.362 -21.627 -19.633  0.00  0.00    -0.004 C 
ATOM     13  C   UNL     1      32.976 -21.303 -19.837  0.00  0.00    -0.004 C 
ATOM     14  C   UNL     1      35.582 -20.399 -20.258  0.00  0.00    -0.000 C 
ATOM     15  C   UNL     1      33.196 -20.076 -20.462  0.00  0.00    -0.000 C 
ATOM     16  C   UNL     1      34.499 -19.624 -20.672  0.00  0.00    -0.000 C 
ENDBRANCH  10  11
ENDBRANCH   5  10
BRANCH   3  17
ATOM     17  C   UNL     1      29.953 -22.937 -15.746  0.00  0.00    +0.248 C 
BRANCH  17  18
ATOM     18  O   UNL     1      29.419 -22.479 -16.979  0.00  0.00    -0.331 OA
BRANCH  18  19
ATOM     19  C   UNL     1      28.053 -22.838 -17.121  0.00  0.00    +0.176 C 
BRANCH  19  20
ATOM     20  C   UNL     1      27.284 -22.355 -15.907  0.00  0.00    +0.169 C 
BRANCH  20  21
ATOM     21  O   UNL     1      25.966 -21.997 -16.304  0.00  0.00    -0.379 OA
ATOM     22  H   UNL     1      25.428 -22.799 -16.397  0.00  0.00    +0.211 HD
ENDBRANCH  20  21
ENDBRANCH  19  20
ENDBRANCH  18  19
ENDBRANCH  17  18
ENDBRANCH   3  17
TORSDOF 7
ENDMDL
MODEL 3
REMARK VINA RESULT:      -8.9      6.505      9.002
REMARK  Name = 54929
REMARK  7 active torsions:
REMARK  status: ('A' for Active; 'I' for Inactive)
REMARK    1  A    between atoms: N_3  and  C_17
REMARK    2  A    between atoms: C_5  and  C_10
REMARK    3  A    between atoms: C_10  and  C_11
REMARK    4  A    between atoms: C_17  and  O_18
REMARK    5  A    between atoms: O_18  and  C_19
REMARK    6  A    between atoms: C_19  and  C_20
REMARK    7  A    between atoms: C_20  and  O_21
REMARK                            x       y       z     vdW  Elec       q    Type
REMARK                         _______ _______ _______ _____ _____    ______ ____
ROOT
ATOM      1  O   UNL     1      35.383 -23.394 -16.358  0.00  0.00    -0.270 OA
ATOM      2  O   UNL     1      31.808 -22.825 -13.522  0.00  0.00    -0.252 OA
ATOM      3  N   UNL     1      31.398 -22.966 -15.814  0.00  0.00    -0.216 N 
ATOM      4  N   UNL     1      33.581 -23.108 -14.948  0.00  0.00    -0.236 N 
ATOM      5  C   UNL     1      33.225 -23.263 -17.338  0.00  0.00    +0.051 C 
ATOM      6  C   UNL     1      31.919 -23.117 -17.084  0.00  0.00    +0.072 C 
ATOM      7  C   UNL     1      34.172 -23.263 -16.192  0.00  0.00    +0.250 C 
ATOM      8  C   UNL     1      32.218 -22.956 -14.677  0.00  0.00    +0.315 C 
ATOM      9  H   UNL     1      34.187 -23.104 -14.172  0.00  0.00    +0.159 HD
ENDROOT
BRANCH   5  10
ATOM     10  C   UNL     1      33.786 -23.425 -18.715  0.00  0.00    +0.059 C 
BRANCH  10  11
ATOM     11  C   UNL     1      34.059 -22.107 -19.387  0.00  0.00    -0.018 C 
ATOM     12  C   UNL     1      32.995 -21.324 -19.817  0.00  0.00    -0.004 C 
ATOM     13  C   UNL     1      35.371 -21.692 -19.570  0.00  0.00    -0.004 C 
ATOM     14  C   UNL     1      33.249 -20.103 -20.441  0.00  0.00    -0.000 C 
ATOM     15  C   UNL     1      35.625 -20.470 -20.194  0.00  0.00    -0.000 C 
ATOM     16  C   UNL     1      34.563 -19.676 -20.630  0.00  0.00    -0.000 C 
ENDBRANCH  10  11
ENDBRANCH   5  10
BRANCH   3  17
ATOM     17  C   UNL     1      29.953 -22.817 -15.686  0.00  0.00    +0.248 C 
BRANCH  17  18
ATOM     18  O   UNL     1      29.419 -22.463 -16.953  0.00  0.00    -0.331 OA
BRANCH  18  19
ATOM     19  C   UNL     1      28.102 -22.970 -17.124  0.00  0.00    +0.176 C 
BRANCH  19  20
ATOM     20  C   UNL     1      27.190 -22.337 -16.090  0.00  0.00    +0.169 C 
BRANCH  20  21
ATOM     21  O   UNL     1      26.017 -21.860 -16.737  0.00  0.00    -0.379 OA
ATOM     22  H   UNL     1      26.059 -20.893 -16.811  0.00  0.00    +0.211 HD
ENDBRANCH  20  21
ENDBRANCH  19  20
ENDBRANCH  18  19
ENDBRANCH  17  18
ENDBRANCH   3  17
TORSDOF 7
ENDMDL
MODEL 4
REMARK VINA RESULT:      -8.5      1.708      3.260
REMARK  Name = 54929
REMARK  7 active torsions:
REMARK  status: ('A' for Active; 'I' for Inactive)
REMARK    1  A    between atoms: N_3  and  C_17
REMARK    2  A    between atoms: C_5  and  C_10
REMARK    3  A    between atoms: C_10  and  C_11
REMARK    4  A    between atoms: C_17  and  O_18
REMARK    5  A    between atoms: O_18  and  C_19
REMARK    6  A    between atoms: C_19  and  C_20
REMARK    7  A    between atoms: C_20  and  O_21
REMARK                            x       y       z     vdW  Elec       q    Type
REMARK                         _______ _______ _______ _____ _____    ______ ____
ROOT
ATOM      1  O   UNL     1      35.201 -16.363 -20.250  0.00  0.00    -0.270 OA
ATOM      2  O   UNL     1      32.989 -14.224 -23.667  0.00  0.00    -0.252 OA
ATOM      3  N   UNL     1      33.990 -16.285 -24.107  0.00  0.00    -0.216 N 
ATOM      4  N   UNL     1      34.096 -15.302 -21.972  0.00  0.00    -0.236 N 
ATOM      5  C   UNL     1      35.156 -17.444 -22.362  0.00  0.00    +0.051 C 
ATOM      6  C   UNL     1      34.723 -17.351 -23.625  0.00  0.00    +0.072 C 
ATOM      7  C   UNL     1      34.833 -16.339 -21.421  0.00  0.00    +0.250 C 
ATOM      8  C   UNL     1      33.641 -15.201 -23.291  0.00  0.00    +0.315 C 
ATOM      9  H   UNL     1      33.869 -14.556 -21.370  0.00  0.00    +0.159 HD
ENDROOT
BRANCH   5  10
ATOM     10  C   UNL     1      35.950 -18.600 -21.844  0.00  0.00    +0.059 C 
BRANCH  10  11
ATOM     11  C   UNL     1      35.113 -19.572 -21.058  0.00  0.00    -0.018 C 
ATOM     12  C   UNL     1      35.736 -20.524 -20.263  0.00  0.00    -0.004 C 
ATOM     13  C   UNL     1      33.729 -19.504 -21.140  0.00  0.00    -0.004 C 
ATOM     14  C   UNL     1      34.959 -21.426 -19.535  0.00  0.00    -0.000 C 
ATOM     15  C   UNL     1      32.952 -20.406 -20.412  0.00  0.00    -0.000 C 
ATOM     16  C   UNL     1      33.568 -21.367 -19.609  0.00  0.00    -0.000 C 
ENDBRANCH  10  11
ENDBRANCH   5  10
BRANCH   3  17
ATOM     17  C   UNL     1      33.584 -16.318 -25.508  0.00  0.00    +0.248 C 
BRANCH  17  18
ATOM     18  O   UNL     1      34.093 -15.163 -26.156  0.00  0.00    -0.331 OA
BRANCH  18  19
ATOM     19  C   UNL     1      33.111 -14.553 -26.982  0.00  0.00    +0.176 C 
BRANCH  19  20
ATOM     20  C   UNL     1      33.403 -13.068 -27.084  0.00  0.00    +0.169 C 
BRANCH  20  21
ATOM     21  O   UNL     1      33.634 -12.550 -25.780  0.00  0.00    -0.379 OA
ATOM     22  H   UNL     1      34.578 -12.356 -25.672  0.00  0.00    +0.211 HD
ENDBRANCH  20  21
ENDBRANCH  19  20
ENDBRANCH  18  19
ENDBRANCH  17  18
ENDBRANCH   3  17
TORSDOF 7
ENDMDL
MODEL 5
REMARK VINA RESULT:      -8.3      5.703      8.280
REMARK  Name = 54929
REMARK  7 active torsions:
REMARK  status: ('A' for Active; 'I' for Inactive)
REMARK    1  A    between atoms: N_3  and  C_17
REMARK    2  A    between atoms: C_5  and  C_10
REMARK    3  A    between atoms: C_10  and  C_11
REMARK    4  A    between atoms: C_17  and  O_18
REMARK    5  A    between atoms: O_18  and  C_19
REMARK    6  A    between atoms: C_19  and  C_20
REMARK    7  A    between atoms: C_20  and  O_21
REMARK                            x       y       z     vdW  Elec       q    Type
REMARK                         _______ _______ _______ _____ _____    ______ ____
ROOT
ATOM      1  O   UNL     1      31.205 -11.057 -18.752  0.00  0.00    -0.270 OA
ATOM      2  O   UNL     1      33.008  -6.908 -19.581  0.00  0.00    -0.252 OA
ATOM      3  N   UNL     1      32.522  -8.293 -21.394  0.00  0.00    -0.216 N 
ATOM      4  N   UNL     1      32.109  -8.980 -19.182  0.00  0.00    -0.236 N 
ATOM      5  C   UNL     1      31.581 -10.466 -21.020  0.00  0.00    +0.051 C 
ATOM      6  C   UNL     1      32.033  -9.506 -21.836  0.00  0.00    +0.072 C 
ATOM      7  C   UNL     1      31.606 -10.217 -19.554  0.00  0.00    +0.250 C 
ATOM      8  C   UNL     1      32.582  -7.974 -20.031  0.00  0.00    +0.315 C 
ATOM      9  H   UNL     1      32.137  -8.790 -18.216  0.00  0.00    +0.159 HD
ENDROOT
BRANCH   5  10
ATOM     10  C   UNL     1      31.053 -11.779 -21.502  0.00  0.00    +0.059 C 
BRANCH  10  11
ATOM     11  C   UNL     1      32.144 -12.783 -21.760  0.00  0.00    -0.018 C 
ATOM     12  C   UNL     1      32.766 -12.812 -23.001  0.00  0.00    -0.004 C 
ATOM     13  C   UNL     1      32.512 -13.666 -20.755  0.00  0.00    -0.004 C 
ATOM     14  C   UNL     1      33.777 -13.743 -23.240  0.00  0.00    -0.000 C 
ATOM     15  C   UNL     1      33.523 -14.597 -20.994  0.00  0.00    -0.000 C 
ATOM     16  C   UNL     1      34.155 -14.636 -22.238  0.00  0.00    -0.000 C 
ENDBRANCH  10  11
ENDBRANCH   5  10
BRANCH   3  17
ATOM     17  C   UNL     1      32.981  -7.340 -22.398  0.00  0.00    +0.248 C 
BRANCH  17  18
ATOM     18  O   UNL     1      34.361  -7.565 -22.642  0.00  0.00    -0.331 OA
BRANCH  18  19
ATOM     19  C   UNL     1      34.603  -7.895 -24.002  0.00  0.00    +0.176 C 
BRANCH  19  20
ATOM     20  C   UNL     1      34.454  -9.394 -24.183  0.00  0.00    +0.169 C 
BRANCH  20  21
ATOM     21  O   UNL     1      35.745  -9.981 -24.274  0.00  0.00    -0.379 OA
ATOM     22  H   UNL     1      36.324  -9.597 -23.596  0.00  0.00    +0.211 HD
ENDBRANCH  20  21
ENDBRANCH  19  20
ENDBRANCH  18  19
ENDBRANCH  17  18
ENDBRANCH   3  17
TORSDOF 7
ENDMDL
MODEL 6
REMARK VINA RESULT:      -8.2      5.934      8.639
REMARK  Name = 54929
REMARK  7 active torsions:
REMARK  status: ('A' for Active; 'I' for Inactive)
REMARK    1  A    between atoms: N_3  and  C_17
REMARK    2  A    between atoms: C_5  and  C_10
REMARK    3  A    between atoms: C_10  and  C_11
REMARK    4  A    between atoms: C_17  and  O_18
REMARK    5  A    between atoms: O_18  and  C_19
REMARK    6  A    between atoms: C_19  and  C_20
REMARK    7  A    between atoms: C_20  and  O_21
REMARK                            x       y       z     vdW  Elec       q    Type
REMARK                         _______ _______ _______ _____ _____    ______ ____
ROOT
ATOM      1  O   UNL     1      31.104 -11.040 -18.945  0.00  0.00    -0.270 OA
ATOM      2  O   UNL     1      33.002  -6.917 -19.689  0.00  0.00    -0.252 OA
ATOM      3  N   UNL     1      32.647  -8.325 -21.515  0.00  0.00    -0.216 N 
ATOM      4  N   UNL     1      32.056  -8.976 -19.332  0.00  0.00    -0.236 N 
ATOM      5  C   UNL     1      31.662 -10.485 -21.184  0.00  0.00    +0.051 C 
ATOM      6  C   UNL     1      32.184  -9.541 -21.976  0.00  0.00    +0.072 C 
ATOM      7  C   UNL     1      31.574 -10.215 -19.725  0.00  0.00    +0.250 C 
ATOM      8  C   UNL     1      32.603  -7.986 -20.155  0.00  0.00    +0.315 C 
ATOM      9  H   UNL     1      32.011  -8.772 -18.370  0.00  0.00    +0.159 HD
ENDROOT
BRANCH   5  10
ATOM     10  C   UNL     1      31.162 -11.801 -21.687  0.00  0.00    +0.059 C 
BRANCH  10  11
ATOM     11  C   UNL     1      32.257 -12.825 -21.819  0.00  0.00    -0.018 C 
ATOM     12  C   UNL     1      32.521 -13.683 -20.759  0.00  0.00    -0.004 C 
ATOM     13  C   UNL     1      32.988 -12.897 -22.996  0.00  0.00    -0.004 C 
ATOM     14  C   UNL     1      33.537 -14.632 -20.881  0.00  0.00    -0.000 C 
ATOM     15  C   UNL     1      34.003 -13.845 -23.118  0.00  0.00    -0.000 C 
ATOM     16  C   UNL     1      34.278 -14.713 -22.060  0.00  0.00    -0.000 C 
ENDBRANCH  10  11
ENDBRANCH   5  10
BRANCH   3  17
ATOM     17  C   UNL     1      33.191  -7.390 -22.493  0.00  0.00    +0.248 C 
BRANCH  17  18
ATOM     18  O   UNL     1      32.132  -6.925 -23.315  0.00  0.00    -0.331 OA
BRANCH  18  19
ATOM     19  C   UNL     1      31.828  -5.563 -23.053  0.00  0.00    +0.176 C 
BRANCH  19  20
ATOM     20  C   UNL     1      30.511  -5.484 -22.304  0.00  0.00    +0.169 C 
BRANCH  20  21
ATOM     21  O   UNL     1      30.767  -5.121 -20.953  0.00  0.00    -0.379 OA
ATOM     22  H   UNL     1      30.682  -5.904 -20.387  0.00  0.00    +0.211 HD
ENDBRANCH  20  21
ENDBRANCH  19  20
ENDBRANCH  18  19
ENDBRANCH  17  18
ENDBRANCH   3  17
TORSDOF 7
ENDMDL
MODEL 7
REMARK VINA RESULT:      -8.2      6.721      9.501
REMARK  Name = 54929
REMARK  7 active torsions:
REMARK  status: ('A' for Active; 'I' for Inactive)
REMARK    1  A    between atoms: N_3  and  C_17
REMARK    2  A    between atoms: C_5  and  C_10
REMARK    3  A    between atoms: C_10  and  C_11
REMARK    4  A    between atoms: C_17  and  O_18
REMARK    5  A    between atoms: O_18  and  C_19
REMARK    6  A    between atoms: C_19  and  C_20
REMARK    7  A    between atoms: C_20  and  O_21
REMARK                            x       y       z     vdW  Elec       q    Type
REMARK                         _______ _______ _______ _____ _____    ______ ____
ROOT
ATOM      1  O   UNL     1      35.721 -23.071 -16.547  0.00  0.00    -0.270 OA
ATOM      2  O   UNL     1      32.170 -22.891 -13.631  0.00  0.00    -0.252 OA
ATOM      3  N   UNL     1      31.727 -23.049 -15.916  0.00  0.00    -0.216 N 
ATOM      4  N   UNL     1      33.932 -22.982 -15.096  0.00  0.00    -0.236 N 
ATOM      5  C   UNL     1      33.541 -23.146 -17.481  0.00  0.00    +0.051 C 
ATOM      6  C   UNL     1      32.233 -23.134 -17.197  0.00  0.00    +0.072 C 
ATOM      7  C   UNL     1      34.508 -23.064 -16.354  0.00  0.00    +0.250 C 
ATOM      8  C   UNL     1      32.566 -22.969 -14.796  0.00  0.00    +0.315 C 
ATOM      9  H   UNL     1      34.550 -22.925 -14.333  0.00  0.00    +0.159 HD
ENDROOT
BRANCH   5  10
ATOM     10  C   UNL     1      34.085 -23.237 -18.870  0.00  0.00    +0.059 C 
BRANCH  10  11
ATOM     11  C   UNL     1      34.157 -21.898 -19.553  0.00  0.00    -0.018 C 
ATOM     12  C   UNL     1      32.982 -21.218 -19.850  0.00  0.00    -0.004 C 
ATOM     13  C   UNL     1      35.394 -21.361 -19.877  0.00  0.00    -0.004 C 
ATOM     14  C   UNL     1      33.049 -19.977 -20.483  0.00  0.00    -0.000 C 
ATOM     15  C   UNL     1      35.461 -20.120 -20.510  0.00  0.00    -0.000 C 
ATOM     16  C   UNL     1      34.287 -19.428 -20.814  0.00  0.00    -0.000 C 
ENDBRANCH  10  11
ENDBRANCH   5  10
BRANCH   3  17
ATOM     17  C   UNL     1      30.277 -23.047 -15.757  0.00  0.00    +0.248 C 
BRANCH  17  18
ATOM     18  O   UNL     1      29.770 -24.298 -16.193  0.00  0.00    -0.331 OA
BRANCH  18  19
ATOM     19  C   UNL     1      30.111 -25.342 -15.292  0.00  0.00    +0.176 C 
BRANCH  19  20
ATOM     20  C   UNL     1      29.446 -25.079 -13.955  0.00  0.00    +0.169 C 
BRANCH  20  21
ATOM     21  O   UNL     1      30.441 -25.046 -12.940  0.00  0.00    -0.379 OA
ATOM     22  H   UNL     1      30.207 -25.672 -12.237  0.00  0.00    +0.211 HD
ENDBRANCH  20  21
ENDBRANCH  19  20
ENDBRANCH  18  19
ENDBRANCH  17  18
ENDBRANCH   3  17
TORSDOF 7
ENDMDL
MODEL 8
REMARK VINA RESULT:      -8.1      7.092     10.348
REMARK  Name = 54929
REMARK  7 active torsions:
REMARK  status: ('A' for Active; 'I' for Inactive)
REMARK    1  A    between atoms: N_3  and  C_17
REMARK    2  A    between atoms: C_5  and  C_10
REMARK    3  A    between atoms: C_10  and  C_11
REMARK    4  A    between atoms: C_17  and  O_18
REMARK    5  A    between atoms: O_18  and  C_19
REMARK    6  A    between atoms: C_19  and  C_20
REMARK    7  A    between atoms: C_20  and  O_21
REMARK                            x       y       z     vdW  Elec       q    Type
REMARK                         _______ _______ _______ _____ _____    ______ ____
ROOT
ATOM      1  O   UNL     1      32.085 -23.171 -15.531  0.00  0.00    -0.270 OA
ATOM      2  O   UNL     1      35.903 -23.295 -12.970  0.00  0.00    -0.252 OA
ATOM      3  N   UNL     1      36.120 -23.296 -15.293  0.00  0.00    -0.216 N 
ATOM      4  N   UNL     1      34.007 -23.233 -14.259  0.00  0.00    -0.236 N 
ATOM      5  C   UNL     1      34.163 -23.232 -16.676  0.00  0.00    +0.051 C 
ATOM      6  C   UNL     1      35.492 -23.273 -16.522  0.00  0.00    +0.072 C 
ATOM      7  C   UNL     1      33.311 -23.209 -15.458  0.00  0.00    +0.250 C 
ATOM      8  C   UNL     1      35.395 -23.276 -14.094  0.00  0.00    +0.315 C 
ATOM      9  H   UNL     1      33.466 -23.220 -13.437  0.00  0.00    +0.159 HD
ENDROOT
BRANCH   5  10
ATOM     10  C   UNL     1      33.487 -23.209 -18.009  0.00  0.00    +0.059 C 
BRANCH  10  11
ATOM     11  C   UNL     1      34.004 -22.114 -18.902  0.00  0.00    -0.018 C 
ATOM     12  C   UNL     1      35.372 -21.990 -19.109  0.00  0.00    -0.004 C 
ATOM     13  C   UNL     1      33.109 -21.244 -19.507  0.00  0.00    -0.004 C 
ATOM     14  C   UNL     1      35.852 -20.975 -19.937  0.00  0.00    -0.000 C 
ATOM     15  C   UNL     1      33.589 -20.229 -20.335  0.00  0.00    -0.000 C 
ATOM     16  C   UNL     1      34.961 -20.094 -20.550  0.00  0.00    -0.000 C 
ENDBRANCH  10  11
ENDBRANCH   5  10
BRANCH   3  17
ATOM     17  C   UNL     1      37.578 -23.340 -15.276  0.00  0.00    +0.248 C 
BRANCH  17  18
ATOM     18  O   UNL     1      37.993 -24.693 -15.381  0.00  0.00    -0.331 OA
BRANCH  18  19
ATOM     19  C   UNL     1      38.788 -25.083 -14.271  0.00  0.00    +0.176 C 
BRANCH  19  20
ATOM     20  C   UNL     1      40.222 -25.268 -14.728  0.00  0.00    +0.169 C 
BRANCH  20  21
ATOM     21  O   UNL     1      40.224 -25.852 -16.025  0.00  0.00    -0.379 OA
ATOM     22  H   UNL     1      40.849 -26.593 -16.045  0.00  0.00    +0.211 HD
ENDBRANCH  20  21
ENDBRANCH  19  20
ENDBRANCH  18  19
ENDBRANCH  17  18
ENDBRANCH   3  17
TORSDOF 7
ENDMDL
MODEL 9
REMARK VINA RESULT:      -8.1      7.481     10.653
REMARK  Name = 54929
REMARK  7 active torsions:
REMARK  status: ('A' for Active; 'I' for Inactive)
REMARK    1  A    between atoms: N_3  and  C_17
REMARK    2  A    between atoms: C_5  and  C_10
REMARK    3  A    between atoms: C_10  and  C_11
REMARK    4  A    between atoms: C_17  and  O_18
REMARK    5  A    between atoms: O_18  and  C_19
REMARK    6  A    between atoms: C_19  and  C_20
REMARK    7  A    between atoms: C_20  and  O_21
REMARK                            x       y       z     vdW  Elec       q    Type
REMARK                         _______ _______ _______ _____ _____    ______ ____
ROOT
ATOM      1  O   UNL     1      31.482 -22.832 -15.503  0.00  0.00    -0.270 OA
ATOM      2  O   UNL     1      34.940 -23.928 -12.676  0.00  0.00    -0.252 OA
ATOM      3  N   UNL     1      35.339 -23.929 -14.975  0.00  0.00    -0.216 N 
ATOM      4  N   UNL     1      33.224 -23.384 -14.097  0.00  0.00    -0.236 N 
ATOM      5  C   UNL     1      33.572 -23.365 -16.494  0.00  0.00    +0.051 C 
ATOM      6  C   UNL     1      34.836 -23.728 -16.244  0.00  0.00    +0.072 C 
ATOM      7  C   UNL     1      32.653 -23.166 -15.342  0.00  0.00    +0.250 C 
ATOM      8  C   UNL     1      34.544 -23.763 -13.832  0.00  0.00    +0.315 C 
ATOM      9  H   UNL     1      32.637 -23.259 -13.317  0.00  0.00    +0.159 HD
ENDROOT
BRANCH   5  10
ATOM     10  C   UNL     1      33.030 -23.150 -17.871  0.00  0.00    +0.059 C 
BRANCH  10  11
ATOM     11  C   UNL     1      33.875 -22.207 -18.684  0.00  0.00    -0.018 C 
ATOM     12  C   UNL     1      33.260 -21.298 -19.535  0.00  0.00    -0.004 C 
ATOM     13  C   UNL     1      35.258 -22.260 -18.574  0.00  0.00    -0.004 C 
ATOM     14  C   UNL     1      34.043 -20.425 -20.290  0.00  0.00    -0.000 C 
ATOM     15  C   UNL     1      36.041 -21.386 -19.329  0.00  0.00    -0.000 C 
ATOM     16  C   UNL     1      35.433 -20.469 -20.187  0.00  0.00    -0.000 C 
ENDBRANCH  10  11
ENDBRANCH   5  10
BRANCH   3  17
ATOM     17  C   UNL     1      36.738 -24.322 -14.853  0.00  0.00    +0.248 C 
BRANCH  17  18
ATOM     18  O   UNL     1      36.904 -25.601 -15.446  0.00  0.00    -0.331 OA
BRANCH  18  19
ATOM     19  C   UNL     1      36.962 -26.627 -14.465  0.00  0.00    +0.176 C 
BRANCH  19  20
ATOM     20  C   UNL     1      37.618 -26.079 -13.213  0.00  0.00    +0.169 C 
BRANCH  20  21
ATOM     21  O   UNL     1      36.786 -26.356 -12.094  0.00  0.00    -0.379 OA
ATOM     22  H   UNL     1      35.892 -26.577 -12.402  0.00  0.00    +0.211 HD
ENDBRANCH  20  21
ENDBRANCH  19  20
ENDBRANCH  18  19
ENDBRANCH  17  18
ENDBRANCH   3  17
TORSDOF 7
ENDMDL
