MODEL 1
REMARK VINA RESULT:      -5.0      0.000      0.000
REMARK  Name = 12041
REMARK  3 active torsions:
REMARK  status: ('A' for Active; 'I' for Inactive)
REMARK    1  A    between atoms: C_2  and  C_4
REMARK    2  A    between atoms: C_2  and  O_6
REMARK    3  A    between atoms: O_6  and  C_7
REMARK                            x       y       z     vdW  Elec       q    Type
REMARK                         _______ _______ _______ _____ _____    ______ ____
ROOT
ATOM      1  O   UNL     1      27.660 -24.056 -17.695  0.00  0.00    -0.242 OA
ATOM      2  C   UNL     1      27.833 -22.956 -17.208  0.00  0.00    +0.376 C 
ENDROOT
BRANCH   2   4
ATOM      3  O   UNL     1      26.265 -22.200 -15.648  0.00  0.00    -0.284 OA
ATOM      4  C   UNL     1      26.672 -22.097 -16.796  0.00  0.00    +0.248 C 
ATOM      5  C   UNL     1      26.096 -21.180 -17.832  0.00  0.00    +0.084 C 
ENDBRANCH   2   4
BRANCH   2   6
ATOM      6  O   UNL     1      28.975 -22.280 -16.986  0.00  0.00    -0.443 OA
BRANCH   6   7
ATOM      7  C   UNL     1      29.807 -22.815 -15.952  0.00  0.00    +0.209 C 
ATOM      8  C   UNL     1      31.219 -22.957 -16.479  0.00  0.00    +0.051 C 
ENDBRANCH   6   7
ENDBRANCH   2   6
TORSDOF 3
ENDMDL
MODEL 2
REMARK VINA RESULT:      -4.8      9.011     10.430
REMARK  Name = 12041
REMARK  3 active torsions:
REMARK  status: ('A' for Active; 'I' for Inactive)
REMARK    1  A    between atoms: C_2  and  C_4
REMARK    2  A    between atoms: C_2  and  O_6
REMARK    3  A    between atoms: O_6  and  C_7
REMARK                            x       y       z     vdW  Elec       q    Type
REMARK                         _______ _______ _______ _____ _____    ______ ____
ROOT
ATOM      1  O   UNL     1      37.201 -22.547 -11.540  0.00  0.00    -0.242 OA
ATOM      2  C   UNL     1      37.023 -23.747 -11.471  0.00  0.00    +0.376 C 
ENDROOT
BRANCH   2   4
ATOM      3  O   UNL     1      35.297 -24.977 -10.483  0.00  0.00    -0.284 OA
ATOM      4  C   UNL     1      35.638 -24.329 -11.462  0.00  0.00    +0.248 C 
ATOM      5  C   UNL     1      34.779 -24.074 -12.663  0.00  0.00    +0.084 C 
ENDBRANCH   2   4
BRANCH   2   6
ATOM      6  O   UNL     1      37.915 -24.747 -11.344  0.00  0.00    -0.443 OA
BRANCH   6   7
ATOM      7  C   UNL     1      37.990 -25.639 -12.460  0.00  0.00    +0.209 C 
ATOM      8  C   UNL     1      39.065 -25.152 -13.408  0.00  0.00    +0.051 C 
ENDBRANCH   6   7
ENDBRANCH   2   6
TORSDOF 3
ENDMDL
MODEL 3
REMARK VINA RESULT:      -4.7      1.080      3.689
REMARK  Name = 12041
REMARK  3 active torsions:
REMARK  status: ('A' for Active; 'I' for Inactive)
REMARK    1  A    between atoms: C_2  and  C_4
REMARK    2  A    between atoms: C_2  and  O_6
REMARK    3  A    between atoms: O_6  and  C_7
REMARK                            x       y       z     vdW  Elec       q    Type
REMARK                         _______ _______ _______ _____ _____    ______ ____
ROOT
ATOM      1  O   UNL     1      27.765 -24.040 -17.468  0.00  0.00    -0.242 OA
ATOM      2  C   UNL     1      28.273 -23.036 -17.012  0.00  0.00    +0.376 C 
ENDROOT
BRANCH   2   4
ATOM      3  O   UNL     1      30.563 -22.562 -17.010  0.00  0.00    -0.284 OA
ATOM      4  C   UNL     1      29.640 -23.071 -16.390  0.00  0.00    +0.248 C 
ATOM      5  C   UNL     1      29.769 -23.735 -15.053  0.00  0.00    +0.084 C 
ENDBRANCH   2   4
BRANCH   2   6
ATOM      6  O   UNL     1      27.780 -21.788 -16.908  0.00  0.00    -0.443 OA
BRANCH   6   7
ATOM      7  C   UNL     1      26.353 -21.696 -16.931  0.00  0.00    +0.209 C 
ATOM      8  C   UNL     1      25.918 -21.123 -18.264  0.00  0.00    +0.051 C 
ENDBRANCH   6   7
ENDBRANCH   2   6
TORSDOF 3
ENDMDL
MODEL 4
REMARK VINA RESULT:      -4.7     10.191     11.345
REMARK  Name = 12041
REMARK  3 active torsions:
REMARK  status: ('A' for Active; 'I' for Inactive)
REMARK    1  A    between atoms: C_2  and  C_4
REMARK    2  A    between atoms: C_2  and  O_6
REMARK    3  A    between atoms: O_6  and  C_7
REMARK                            x       y       z     vdW  Elec       q    Type
REMARK                         _______ _______ _______ _____ _____    ______ ____
ROOT
ATOM      1  O   UNL     1      36.946 -26.253 -11.885  0.00  0.00    -0.242 OA
ATOM      2  C   UNL     1      37.843 -25.559 -12.322  0.00  0.00    +0.376 C 
ENDROOT
BRANCH   2   4
ATOM      3  O   UNL     1      38.786 -23.516 -11.690  0.00  0.00    -0.284 OA
ATOM      4  C   UNL     1      37.809 -24.064 -12.180  0.00  0.00    +0.248 C 
ATOM      5  C   UNL     1      36.573 -23.358 -12.647  0.00  0.00    +0.084 C 
ENDBRANCH   2   4
BRANCH   2   6
ATOM      6  O   UNL     1      38.945 -25.906 -13.013  0.00  0.00    -0.443 OA
BRANCH   6   7
ATOM      7  C   UNL     1      38.831 -25.786 -14.434  0.00  0.00    +0.209 C 
ATOM      8  C   UNL     1      40.178 -25.390 -15.004  0.00  0.00    +0.051 C 
ENDBRANCH   6   7
ENDBRANCH   2   6
TORSDOF 3
ENDMDL
MODEL 5
REMARK VINA RESULT:      -4.6     10.015     11.192
REMARK  Name = 12041
REMARK  3 active torsions:
REMARK  status: ('A' for Active; 'I' for Inactive)
REMARK    1  A    between atoms: C_2  and  C_4
REMARK    2  A    between atoms: C_2  and  O_6
REMARK    3  A    between atoms: O_6  and  C_7
REMARK                            x       y       z     vdW  Elec       q    Type
REMARK                         _______ _______ _______ _____ _____    ______ ____
ROOT
ATOM      1  O   UNL     1      35.330 -15.597 -23.392  0.00  0.00    -0.242 OA
ATOM      2  C   UNL     1      34.898 -16.731 -23.447  0.00  0.00    +0.376 C 
ENDROOT
BRANCH   2   4
ATOM      3  O   UNL     1      34.829 -16.774 -25.784  0.00  0.00    -0.284 OA
ATOM      4  C   UNL     1      34.739 -17.439 -24.762  0.00  0.00    +0.248 C 
ATOM      5  C   UNL     1      34.474 -18.914 -24.720  0.00  0.00    +0.084 C 
ENDBRANCH   2   4
BRANCH   2   6
ATOM      6  O   UNL     1      34.450 -17.533 -22.464  0.00  0.00    -0.443 OA
BRANCH   6   7
ATOM      7  C   UNL     1      35.220 -17.504 -21.259  0.00  0.00    +0.209 C 
ATOM      8  C   UNL     1      36.145 -18.703 -21.236  0.00  0.00    +0.051 C 
ENDBRANCH   6   7
ENDBRANCH   2   6
TORSDOF 3
ENDMDL
MODEL 6
REMARK VINA RESULT:      -4.5      7.895      9.909
REMARK  Name = 12041
REMARK  3 active torsions:
REMARK  status: ('A' for Active; 'I' for Inactive)
REMARK    1  A    between atoms: C_2  and  C_4
REMARK    2  A    between atoms: C_2  and  O_6
REMARK    3  A    between atoms: O_6  and  C_7
REMARK                            x       y       z     vdW  Elec       q    Type
REMARK                         _______ _______ _______ _____ _____    ______ ____
ROOT
ATOM      1  O   UNL     1      35.352 -25.150 -10.402  0.00  0.00    -0.242 OA
ATOM      2  C   UNL     1      35.608 -24.319 -11.251  0.00  0.00    +0.376 C 
ENDROOT
BRANCH   2   4
ATOM      3  O   UNL     1      37.334 -22.753 -11.070  0.00  0.00    -0.284 OA
ATOM      4  C   UNL     1      37.018 -23.858 -11.488  0.00  0.00    +0.248 C 
ATOM      5  C   UNL     1      37.930 -24.789 -12.226  0.00  0.00    +0.084 C 
ENDBRANCH   2   4
BRANCH   2   6
ATOM      6  O   UNL     1      34.784 -23.637 -12.068  0.00  0.00    -0.443 OA
BRANCH   6   7
ATOM      7  C   UNL     1      34.372 -24.342 -13.242  0.00  0.00    +0.209 C 
ATOM      8  C   UNL     1      34.815 -23.565 -14.464  0.00  0.00    +0.051 C 
ENDBRANCH   6   7
ENDBRANCH   2   6
TORSDOF 3
ENDMDL
MODEL 7
REMARK VINA RESULT:      -4.5      8.897     10.109
REMARK  Name = 12041
REMARK  3 active torsions:
REMARK  status: ('A' for Active; 'I' for Inactive)
REMARK    1  A    between atoms: C_2  and  C_4
REMARK    2  A    between atoms: C_2  and  O_6
REMARK    3  A    between atoms: O_6  and  C_7
REMARK                            x       y       z     vdW  Elec       q    Type
REMARK                         _______ _______ _______ _____ _____    ______ ____
ROOT
ATOM      1  O   UNL     1      35.308 -16.864 -22.610  0.00  0.00    -0.242 OA
ATOM      2  C   UNL     1      35.204 -17.160 -21.436  0.00  0.00    +0.376 C 
ENDROOT
BRANCH   2   4
ATOM      3  O   UNL     1      36.237 -19.057 -20.542  0.00  0.00    -0.284 OA
ATOM      4  C   UNL     1      35.199 -18.595 -20.993  0.00  0.00    +0.248 C 
ATOM      5  C   UNL     1      33.917 -19.356 -21.146  0.00  0.00    +0.084 C 
ENDBRANCH   2   4
BRANCH   2   6
ATOM      6  O   UNL     1      35.033 -16.372 -20.358  0.00  0.00    -0.443 OA
BRANCH   6   7
ATOM      7  C   UNL     1      34.466 -15.087 -20.630  0.00  0.00    +0.209 C 
ATOM      8  C   UNL     1      32.958 -15.180 -20.518  0.00  0.00    +0.051 C 
ENDBRANCH   6   7
ENDBRANCH   2   6
TORSDOF 3
ENDMDL
MODEL 8
REMARK VINA RESULT:      -4.5      1.974      2.868
REMARK  Name = 12041
REMARK  3 active torsions:
REMARK  status: ('A' for Active; 'I' for Inactive)
REMARK    1  A    between atoms: C_2  and  C_4
REMARK    2  A    between atoms: C_2  and  O_6
REMARK    3  A    between atoms: O_6  and  C_7
REMARK                            x       y       z     vdW  Elec       q    Type
REMARK                         _______ _______ _______ _____ _____    ______ ____
ROOT
ATOM      1  O   UNL     1      28.508 -21.872 -17.014  0.00  0.00    -0.242 OA
ATOM      2  C   UNL     1      29.136 -22.756 -16.465  0.00  0.00    +0.376 C 
ENDROOT
BRANCH   2   4
ATOM      3  O   UNL     1      27.893 -24.562 -17.276  0.00  0.00    -0.284 OA
ATOM      4  C   UNL     1      28.584 -24.149 -16.356  0.00  0.00    +0.248 C 
ATOM      5  C   UNL     1      28.920 -24.925 -15.119  0.00  0.00    +0.084 C 
ENDBRANCH   2   4
BRANCH   2   6
ATOM      6  O   UNL     1      30.326 -22.710 -15.839  0.00  0.00    -0.443 OA
BRANCH   6   7
ATOM      7  C   UNL     1      31.459 -22.990 -16.667  0.00  0.00    +0.209 C 
ATOM      8  C   UNL     1      32.631 -23.371 -15.787  0.00  0.00    +0.051 C 
ENDBRANCH   6   7
ENDBRANCH   2   6
TORSDOF 3
ENDMDL
MODEL 9
REMARK VINA RESULT:      -4.5      6.697      8.065
REMARK  Name = 12041
REMARK  3 active torsions:
REMARK  status: ('A' for Active; 'I' for Inactive)
REMARK    1  A    between atoms: C_2  and  C_4
REMARK    2  A    between atoms: C_2  and  O_6
REMARK    3  A    between atoms: O_6  and  C_7
REMARK                            x       y       z     vdW  Elec       q    Type
REMARK                         _______ _______ _______ _____ _____    ______ ____
ROOT
ATOM      1  O   UNL     1      32.700 -21.003 -19.818  0.00  0.00    -0.242 OA
ATOM      2  C   UNL     1      33.906 -20.866 -19.878  0.00  0.00    +0.376 C 
ENDROOT
BRANCH   2   4
ATOM      3  O   UNL     1      34.414 -23.100 -19.418  0.00  0.00    -0.284 OA
ATOM      4  C   UNL     1      34.836 -21.953 -19.420  0.00  0.00    +0.248 C 
ATOM      5  C   UNL     1      36.213 -21.544 -18.995  0.00  0.00    +0.084 C 
ENDBRANCH   2   4
BRANCH   2   6
ATOM      6  O   UNL     1      34.636 -19.806 -20.273  0.00  0.00    -0.443 OA
BRANCH   6   7
ATOM      7  C   UNL     1      34.068 -19.041 -21.340  0.00  0.00    +0.209 C 
ATOM      8  C   UNL     1      34.807 -19.360 -22.622  0.00  0.00    +0.051 C 
ENDBRANCH   6   7
ENDBRANCH   2   6
TORSDOF 3
ENDMDL
