MODEL 1
REMARK VINA RESULT:      -8.1      0.000      0.000
REMARK  Name = 4474062
REMARK  1 active torsions:
REMARK  status: ('A' for Active; 'I' for Inactive)
REMARK    1  A    between atoms: C_6  and  S_14
REMARK                            x       y       z     vdW  Elec       q    Type
REMARK                         _______ _______ _______ _____ _____    ______ ____
ROOT
ATOM      1  F   UNL     1      33.351 -13.558 -25.327  0.00  0.00    -0.204 F 
ATOM      2  O   UNL     1      35.028 -19.478 -23.909  0.00  0.00    -0.286 OA
ATOM      3  N   UNL     1      34.668 -16.214 -21.487  0.00  0.00    -0.283 N 
ATOM      4  C   UNL     1      34.386 -16.063 -22.865  0.00  0.00    +0.057 C 
ATOM      5  C   UNL     1      34.498 -17.179 -23.727  0.00  0.00    +0.053 C 
ATOM      6  C   UNL     1      35.173 -18.575 -21.722  0.00  0.00    +0.110 C 
ATOM      7  C   UNL     1      34.911 -18.500 -23.181  0.00  0.00    +0.206 C 
ATOM      8  C   UNL     1      35.042 -17.455 -21.003  0.00  0.00    +0.077 C 
ATOM      9  C   UNL     1      33.992 -14.843 -23.442  0.00  0.00    +0.045 C 
ATOM     10  C   UNL     1      34.229 -17.073 -25.098  0.00  0.00    +0.007 C 
ATOM     11  C   UNL     1      34.550 -15.050 -20.613  0.00  0.00    +0.117 C 
ATOM     12  C   UNL     1      33.724 -14.737 -24.811  0.00  0.00    +0.141 C 
ATOM     13  C   UNL     1      33.843 -15.850 -25.637  0.00  0.00    +0.030 C 
ENDROOT
BRANCH   6  14
ATOM     14  S   UNL     1      35.674 -20.082 -20.938  0.00  0.00    +0.070 S 
ATOM     15  O   UNL     1      36.598 -19.687 -19.820  0.00  0.00    -0.251 OA
ATOM     16  C   UNL     1      34.073 -20.507 -20.212  0.00  0.00    +0.111 C 
ENDBRANCH   6  14
TORSDOF 1
ENDMDL
MODEL 2
REMARK VINA RESULT:      -7.8      8.836     10.297
REMARK  Name = 4474062
REMARK  1 active torsions:
REMARK  status: ('A' for Active; 'I' for Inactive)
REMARK    1  A    between atoms: C_6  and  S_14
REMARK                            x       y       z     vdW  Elec       q    Type
REMARK                         _______ _______ _______ _____ _____    ______ ____
ROOT
ATOM      1  F   UNL     1      33.292 -22.355 -19.220  0.00  0.00    -0.204 F 
ATOM      2  O   UNL     1      33.088 -24.275 -13.209  0.00  0.00    -0.286 OA
ATOM      3  N   UNL     1      36.261 -23.010 -15.440  0.00  0.00    -0.283 N 
ATOM      4  C   UNL     1      34.984 -23.045 -16.047  0.00  0.00    +0.057 C 
ATOM      5  C   UNL     1      33.865 -23.474 -15.296  0.00  0.00    +0.053 C 
ATOM      6  C   UNL     1      35.409 -23.806 -13.313  0.00  0.00    +0.110 C 
ATOM      7  C   UNL     1      34.038 -23.886 -13.877  0.00  0.00    +0.206 C 
ATOM      8  C   UNL     1      36.394 -23.391 -14.117  0.00  0.00    +0.077 C 
ATOM      9  C   UNL     1      34.754 -22.670 -17.382  0.00  0.00    +0.045 C 
ATOM     10  C   UNL     1      32.583 -23.525 -15.858  0.00  0.00    +0.007 C 
ATOM     11  C   UNL     1      37.405 -22.567 -16.233  0.00  0.00    +0.117 C 
ATOM     12  C   UNL     1      33.474 -22.720 -17.944  0.00  0.00    +0.141 C 
ATOM     13  C   UNL     1      32.391 -23.147 -17.183  0.00  0.00    +0.030 C 
ENDROOT
BRANCH   6  14
ATOM     14  S   UNL     1      35.761 -24.267 -11.639  0.00  0.00    +0.070 S 
ATOM     15  O   UNL     1      36.371 -25.639 -11.701  0.00  0.00    -0.251 OA
ATOM     16  C   UNL     1      37.093 -23.079 -11.348  0.00  0.00    +0.111 C 
ENDBRANCH   6  14
TORSDOF 1
ENDMDL
MODEL 3
REMARK VINA RESULT:      -7.8      3.601      5.231
REMARK  Name = 4474062
REMARK  1 active torsions:
REMARK  status: ('A' for Active; 'I' for Inactive)
REMARK    1  A    between atoms: C_6  and  S_14
REMARK                            x       y       z     vdW  Elec       q    Type
REMARK                         _______ _______ _______ _____ _____    ______ ____
ROOT
ATOM      1  F   UNL     1      35.621 -19.895 -20.536  0.00  0.00    -0.204 F 
ATOM      2  O   UNL     1      34.319 -16.709 -25.829  0.00  0.00    -0.286 OA
ATOM      3  N   UNL     1      34.474 -15.404 -21.967  0.00  0.00    -0.283 N 
ATOM      4  C   UNL     1      34.746 -16.767 -22.227  0.00  0.00    +0.057 C 
ATOM      5  C   UNL     1      34.705 -17.246 -23.557  0.00  0.00    +0.053 C 
ATOM      6  C   UNL     1      34.118 -14.899 -24.312  0.00  0.00    +0.110 C 
ATOM      7  C   UNL     1      34.375 -16.316 -24.671  0.00  0.00    +0.206 C 
ATOM      8  C   UNL     1      34.179 -14.557 -23.021  0.00  0.00    +0.077 C 
ATOM      9  C   UNL     1      35.062 -17.696 -21.220  0.00  0.00    +0.045 C 
ATOM     10  C   UNL     1      34.966 -18.589 -23.859  0.00  0.00    +0.007 C 
ATOM     11  C   UNL     1      34.519 -14.928 -20.586  0.00  0.00    +0.117 C 
ATOM     12  C   UNL     1      35.323 -19.037 -21.521  0.00  0.00    +0.141 C 
ATOM     13  C   UNL     1      35.275 -19.482 -22.838  0.00  0.00    +0.030 C 
ENDROOT
BRANCH   6  14
ATOM     14  S   UNL     1      33.713 -13.683 -25.536  0.00  0.00    +0.070 S 
ATOM     15  O   UNL     1      32.357 -14.057 -26.066  0.00  0.00    -0.251 OA
ATOM     16  C   UNL     1      33.502 -12.284 -24.409  0.00  0.00    +0.111 C 
ENDBRANCH   6  14
TORSDOF 1
ENDMDL
MODEL 4
REMARK VINA RESULT:      -7.6      8.457     10.321
REMARK  Name = 4474062
REMARK  1 active torsions:
REMARK  status: ('A' for Active; 'I' for Inactive)
REMARK    1  A    between atoms: C_6  and  S_14
REMARK                            x       y       z     vdW  Elec       q    Type
REMARK                         _______ _______ _______ _____ _____    ______ ____
ROOT
ATOM      1  F   UNL     1      33.635 -22.196 -19.158  0.00  0.00    -0.204 F 
ATOM      2  O   UNL     1      37.587 -23.047 -14.308  0.00  0.00    -0.286 OA
ATOM      3  N   UNL     1      33.635 -23.999 -14.655  0.00  0.00    -0.283 N 
ATOM      4  C   UNL     1      34.277 -23.384 -15.755  0.00  0.00    +0.057 C 
ATOM      5  C   UNL     1      35.648 -23.048 -15.665  0.00  0.00    +0.053 C 
ATOM      6  C   UNL     1      35.658 -24.001 -13.316  0.00  0.00    +0.110 C 
ATOM      7  C   UNL     1      36.403 -23.341 -14.417  0.00  0.00    +0.206 C 
ATOM      8  C   UNL     1      34.362 -24.269 -13.509  0.00  0.00    +0.077 C 
ATOM      9  C   UNL     1      33.620 -23.081 -16.960  0.00  0.00    +0.045 C 
ATOM     10  C   UNL     1      36.323 -22.437 -16.730  0.00  0.00    +0.007 C 
ATOM     11  C   UNL     1      32.218 -24.337 -14.766  0.00  0.00    +0.117 C 
ATOM     12  C   UNL     1      34.293 -22.471 -18.024  0.00  0.00    +0.141 C 
ATOM     13  C   UNL     1      35.642 -22.150 -17.909  0.00  0.00    +0.030 C 
ENDROOT
BRANCH   6  14
ATOM     14  S   UNL     1      36.430 -24.406 -11.774  0.00  0.00    +0.070 S 
ATOM     15  O   UNL     1      35.337 -24.921 -10.879  0.00  0.00    -0.251 OA
ATOM     16  C   UNL     1      37.384 -25.826 -12.360  0.00  0.00    +0.111 C 
ENDBRANCH   6  14
TORSDOF 1
ENDMDL
MODEL 5
REMARK VINA RESULT:      -7.5      2.426      3.852
REMARK  Name = 4474062
REMARK  1 active torsions:
REMARK  status: ('A' for Active; 'I' for Inactive)
REMARK    1  A    between atoms: C_6  and  S_14
REMARK                            x       y       z     vdW  Elec       q    Type
REMARK                         _______ _______ _______ _____ _____    ______ ____
ROOT
ATOM      1  F   UNL     1      31.297 -11.524 -21.817  0.00  0.00    -0.204 F 
ATOM      2  O   UNL     1      34.573 -16.827 -20.811  0.00  0.00    -0.286 OA
ATOM      3  N   UNL     1      33.449 -15.078 -24.322  0.00  0.00    -0.283 N 
ATOM      4  C   UNL     1      33.081 -14.449 -23.110  0.00  0.00    +0.057 C 
ATOM      5  C   UNL     1      33.462 -15.030 -21.878  0.00  0.00    +0.053 C 
ATOM      6  C   UNL     1      34.600 -16.883 -23.181  0.00  0.00    +0.110 C 
ATOM      7  C   UNL     1      34.243 -16.296 -21.865  0.00  0.00    +0.206 C 
ATOM      8  C   UNL     1      34.182 -16.250 -24.283  0.00  0.00    +0.077 C 
ATOM      9  C   UNL     1      32.344 -13.253 -23.054  0.00  0.00    +0.045 C 
ATOM     10  C   UNL     1      33.118 -14.440 -20.654  0.00  0.00    +0.007 C 
ATOM     11  C   UNL     1      33.044 -14.464 -25.584  0.00  0.00    +0.117 C 
ATOM     12  C   UNL     1      32.001 -12.664 -21.833  0.00  0.00    +0.141 C 
ATOM     13  C   UNL     1      32.387 -13.257 -20.635  0.00  0.00    +0.030 C 
ENDROOT
BRANCH   6  14
ATOM     14  S   UNL     1      35.524 -18.387 -23.315  0.00  0.00    +0.070 S 
ATOM     15  O   UNL     1      35.122 -19.234 -22.139  0.00  0.00    -0.251 OA
ATOM     16  C   UNL     1      34.691 -19.040 -24.781  0.00  0.00    +0.111 C 
ENDBRANCH   6  14
TORSDOF 1
ENDMDL
MODEL 6
REMARK VINA RESULT:      -7.5      8.801     10.527
REMARK  Name = 4474062
REMARK  1 active torsions:
REMARK  status: ('A' for Active; 'I' for Inactive)
REMARK    1  A    between atoms: C_6  and  S_14
REMARK                            x       y       z     vdW  Elec       q    Type
REMARK                         _______ _______ _______ _____ _____    ______ ____
ROOT
ATOM      1  F   UNL     1      28.909 -22.593 -16.669  0.00  0.00    -0.204 F 
ATOM      2  O   UNL     1      33.589 -24.328 -12.803  0.00  0.00    -0.286 OA
ATOM      3  N   UNL     1      33.721 -23.205 -16.723  0.00  0.00    -0.283 N 
ATOM      4  C   UNL     1      32.465 -23.228 -16.072  0.00  0.00    +0.057 C 
ATOM      5  C   UNL     1      32.391 -23.608 -14.712  0.00  0.00    +0.053 C 
ATOM      6  C   UNL     1      34.906 -23.917 -14.730  0.00  0.00    +0.110 C 
ATOM      7  C   UNL     1      33.629 -23.982 -13.977  0.00  0.00    +0.206 C 
ATOM      8  C   UNL     1      34.859 -23.549 -16.015  0.00  0.00    +0.077 C 
ATOM      9  C   UNL     1      31.260 -22.887 -16.710  0.00  0.00    +0.045 C 
ATOM     10  C   UNL     1      31.167 -23.645 -14.029  0.00  0.00    +0.007 C 
ATOM     11  C   UNL     1      33.778 -22.813 -18.129  0.00  0.00    +0.117 C 
ATOM     12  C   UNL     1      30.038 -22.924 -16.030  0.00  0.00    +0.141 C 
ATOM     13  C   UNL     1      29.993 -23.303 -14.692  0.00  0.00    +0.030 C 
ENDROOT
BRANCH   6  14
ATOM     14  S   UNL     1      36.456 -24.336 -13.981  0.00  0.00    +0.070 S 
ATOM     15  O   UNL     1      36.588 -25.829 -14.096  0.00  0.00    -0.251 OA
ATOM     16  C   UNL     1      37.526 -23.586 -15.231  0.00  0.00    +0.111 C 
ENDBRANCH   6  14
TORSDOF 1
ENDMDL
MODEL 7
REMARK VINA RESULT:      -7.5      6.761      8.360
REMARK  Name = 4474062
REMARK  1 active torsions:
REMARK  status: ('A' for Active; 'I' for Inactive)
REMARK    1  A    between atoms: C_6  and  S_14
REMARK                            x       y       z     vdW  Elec       q    Type
REMARK                         _______ _______ _______ _____ _____    ______ ____
ROOT
ATOM      1  F   UNL     1      37.096 -20.743 -20.282  0.00  0.00    -0.204 F 
ATOM      2  O   UNL     1      31.994 -23.205 -17.496  0.00  0.00    -0.286 OA
ATOM      3  N   UNL     1      35.793 -22.770 -16.072  0.00  0.00    -0.283 N 
ATOM      4  C   UNL     1      35.510 -22.318 -17.382  0.00  0.00    +0.057 C 
ATOM      5  C   UNL     1      34.200 -22.451 -17.900  0.00  0.00    +0.053 C 
ATOM      6  C   UNL     1      33.510 -23.499 -15.697  0.00  0.00    +0.110 C 
ATOM      7  C   UNL     1      33.132 -23.065 -17.066  0.00  0.00    +0.206 C 
ATOM      8  C   UNL     1      34.780 -23.330 -15.314  0.00  0.00    +0.077 C 
ATOM      9  C   UNL     1      36.474 -21.731 -18.220  0.00  0.00    +0.045 C 
ATOM     10  C   UNL     1      33.878 -22.018 -19.193  0.00  0.00    +0.007 C 
ATOM     11  C   UNL     1      37.152 -22.626 -15.556  0.00  0.00    +0.117 C 
ATOM     12  C   UNL     1      36.152 -21.298 -19.511  0.00  0.00    +0.141 C 
ATOM     13  C   UNL     1      34.857 -21.442 -19.996  0.00  0.00    +0.030 C 
ENDROOT
BRANCH   6  14
ATOM     14  S   UNL     1      32.341 -24.247 -14.597  0.00  0.00    +0.070 S 
ATOM     15  O   UNL     1      33.088 -24.540 -13.326  0.00  0.00    -0.251 OA
ATOM     16  C   UNL     1      31.319 -22.782 -14.317  0.00  0.00    +0.111 C 
ENDBRANCH   6  14
TORSDOF 1
ENDMDL
MODEL 8
REMARK VINA RESULT:      -7.5      8.942     11.075
REMARK  Name = 4474062
REMARK  1 active torsions:
REMARK  status: ('A' for Active; 'I' for Inactive)
REMARK    1  A    between atoms: C_6  and  S_14
REMARK                            x       y       z     vdW  Elec       q    Type
REMARK                         _______ _______ _______ _____ _____    ______ ____
ROOT
ATOM      1  F   UNL     1      37.408 -24.177 -14.737  0.00  0.00    -0.204 F 
ATOM      2  O   UNL     1      31.288 -23.645 -13.279  0.00  0.00    -0.286 OA
ATOM      3  N   UNL     1      33.176 -23.111 -16.856  0.00  0.00    -0.283 N 
ATOM      4  C   UNL     1      33.955 -23.473 -15.733  0.00  0.00    +0.057 C 
ATOM      5  C   UNL     1      33.326 -23.671 -14.481  0.00  0.00    +0.053 C 
ATOM      6  C   UNL     1      31.110 -23.127 -15.586  0.00  0.00    +0.110 C 
ATOM      7  C   UNL     1      31.854 -23.494 -14.355  0.00  0.00    +0.206 C 
ATOM      8  C   UNL     1      31.808 -22.961 -16.714  0.00  0.00    +0.077 C 
ATOM      9  C   UNL     1      35.348 -23.655 -15.786  0.00  0.00    +0.045 C 
ATOM     10  C   UNL     1      34.060 -24.029 -13.343  0.00  0.00    +0.007 C 
ATOM     11  C   UNL     1      33.844 -22.909 -18.140  0.00  0.00    +0.117 C 
ATOM     12  C   UNL     1      36.081 -24.013 -14.650  0.00  0.00    +0.141 C 
ATOM     13  C   UNL     1      35.438 -24.199 -13.431  0.00  0.00    +0.030 C 
ENDROOT
BRANCH   6  14
ATOM     14  S   UNL     1      29.356 -22.883 -15.580  0.00  0.00    +0.070 S 
ATOM     15  O   UNL     1      29.006 -22.325 -16.932  0.00  0.00    -0.251 OA
ATOM     16  C   UNL     1      28.881 -24.628 -15.560  0.00  0.00    +0.111 C 
ENDBRANCH   6  14
TORSDOF 1
ENDMDL
MODEL 9
REMARK VINA RESULT:      -7.4      1.493      2.625
REMARK  Name = 4474062
REMARK  1 active torsions:
REMARK  status: ('A' for Active; 'I' for Inactive)
REMARK    1  A    between atoms: C_6  and  S_14
REMARK                            x       y       z     vdW  Elec       q    Type
REMARK                         _______ _______ _______ _____ _____    ______ ____
ROOT
ATOM      1  F   UNL     1      33.385 -13.116 -24.819  0.00  0.00    -0.204 F 
ATOM      2  O   UNL     1      35.319 -17.002 -20.234  0.00  0.00    -0.286 OA
ATOM      3  N   UNL     1      34.494 -17.791 -24.151  0.00  0.00    -0.283 N 
ATOM      4  C   UNL     1      34.346 -16.463 -23.687  0.00  0.00    +0.057 C 
ATOM      5  C   UNL     1      34.630 -16.160 -22.335  0.00  0.00    +0.053 C 
ATOM      6  C   UNL     1      35.224 -18.599 -21.984  0.00  0.00    +0.110 C 
ATOM      7  C   UNL     1      35.081 -17.236 -21.412  0.00  0.00    +0.206 C 
ATOM      8  C   UNL     1      34.922 -18.773 -23.275  0.00  0.00    +0.077 C 
ATOM      9  C   UNL     1      33.924 -15.402 -24.508  0.00  0.00    +0.045 C 
ATOM     10  C   UNL     1      34.496 -14.858 -21.834  0.00  0.00    +0.007 C 
ATOM     11  C   UNL     1      34.193 -18.085 -25.550  0.00  0.00    +0.117 C 
ATOM     12  C   UNL     1      33.790 -14.103 -24.008  0.00  0.00    +0.141 C 
ATOM     13  C   UNL     1      34.075 -13.832 -22.674  0.00  0.00    +0.030 C 
ENDROOT
BRANCH   6  14
ATOM     14  S   UNL     1      35.749 -19.975 -21.000  0.00  0.00    +0.070 S 
ATOM     15  O   UNL     1      36.640 -19.410 -19.929  0.00  0.00    -0.251 OA
ATOM     16  C   UNL     1      34.146 -20.347 -20.250  0.00  0.00    +0.111 C 
ENDBRANCH   6  14
TORSDOF 1
ENDMDL
