MODEL 1
REMARK VINA RESULT:     -12.5      0.000      0.000
REMARK  Name = 11691242
REMARK  5 active torsions:
REMARK  status: ('A' for Active; 'I' for Inactive)
REMARK    1  A    between atoms: N_1  and  C_25
REMARK    2  A    between atoms: C_5  and  N_11
REMARK    3  A    between atoms: N_12  and  C_17
REMARK    4  A    between atoms: C_18  and  O_23
REMARK    5  A    between atoms: C_25  and  C_28
REMARK                            x       y       z     vdW  Elec       q    Type
REMARK                         _______ _______ _______ _____ _____    ______ ____
ROOT
ATOM      1  N   UNL     1      35.145 -16.973 -22.274  0.00  0.00    -0.282 N 
ATOM      2  C   UNL     1      34.509 -16.291 -23.286  0.00  0.00    +0.053 C 
ATOM      3  C   UNL     1      33.847 -15.209 -22.700  0.00  0.00    +0.028 C 
ATOM      4  C   UNL     1      34.908 -16.363 -21.072  0.00  0.00    +0.066 C 
ATOM      5  C   UNL     1      33.108 -14.338 -23.524  0.00  0.00    +0.053 C 
ATOM      6  C   UNL     1      34.107 -15.268 -21.302  0.00  0.00    +0.019 C 
ATOM      7  C   UNL     1      34.469 -16.544 -24.661  0.00  0.00    +0.015 C 
ATOM      8  C   UNL     1      33.059 -14.579 -24.903  0.00  0.00    +0.015 C 
ATOM      9  C   UNL     1      33.730 -15.666 -25.460  0.00  0.00    +0.003 C 
ENDROOT
BRANCH   5  11
ATOM     10  O   UNL     1      33.863 -11.448 -23.453  0.00  0.00    -0.252 OA
ATOM     11  N   UNL     1      32.428 -13.242 -22.991  0.00  0.00    -0.268 N 
ATOM     12  N   UNL     1      31.837 -11.108 -22.336  0.00  0.00    -0.266 N 
ATOM     13  C   UNL     1      32.818 -11.881 -22.976  0.00  0.00    +0.308 C 
ATOM     14  H   UNL     1      31.561 -13.442 -22.568  0.00  0.00    +0.156 HD
ATOM     15  H   UNL     1      31.051 -11.598 -22.002  0.00  0.00    +0.157 HD
BRANCH  12  17
ATOM     16 BR   UNL     1      31.317  -6.310 -24.428  0.00  0.00    -0.049 Br
ATOM     17  C   UNL     1      31.839  -9.711 -22.111  0.00  0.00    +0.086 C 
ATOM     18  C   UNL     1      32.062  -9.215 -20.836  0.00  0.00    +0.152 C 
ATOM     19  C   UNL     1      31.614  -8.863 -23.184  0.00  0.00    +0.024 C 
ATOM     20  C   UNL     1      32.060  -7.836 -20.629  0.00  0.00    +0.039 C 
ATOM     21  C   UNL     1      31.613  -7.484 -22.977  0.00  0.00    +0.036 C 
ATOM     22  C   UNL     1      31.836  -6.970 -21.700  0.00  0.00    +0.010 C 
BRANCH  18  23
ATOM     23  O   UNL     1      32.284 -10.044 -19.777  0.00  0.00    -0.470 OA
ATOM     24  C   UNL     1      31.139 -10.494 -19.054  0.00  0.00    +0.253 C 
ENDBRANCH  18  23
ENDBRANCH  12  17
ENDBRANCH   5  11
BRANCH   1  25
ATOM     25  C   UNL     1      35.947 -18.167 -22.439  0.00  0.00    +0.122 C 
BRANCH  25  28
ATOM     26  N   UNL     1      34.929 -21.153 -19.539  0.00  0.00    -0.230 NA
ATOM     27  N   UNL     1      32.634 -20.935 -20.140  0.00  0.00    -0.343 N 
ATOM     28  C   UNL     1      35.589 -19.214 -21.420  0.00  0.00    +0.002 C 
ATOM     29  C   UNL     1      34.266 -19.586 -21.255  0.00  0.00    +0.031 C 
ATOM     30  C   UNL     1      36.587 -19.797 -20.660  0.00  0.00    +0.018 C 
ATOM     31  C   UNL     1      33.990 -20.556 -20.306  0.00  0.00    +0.125 C 
ATOM     32  C   UNL     1      36.207 -20.757 -19.737  0.00  0.00    +0.100 C 
ATOM     33  H   UNL     1      32.393 -21.621 -19.477  0.00  0.00    +0.144 HD
ATOM     34  H   UNL     1      31.935 -20.512 -20.689  0.00  0.00    +0.144 HD
ENDBRANCH  25  28
ENDBRANCH   1  25
TORSDOF 5
ENDMDL
MODEL 2
REMARK VINA RESULT:     -10.9      6.963     12.459
REMARK  Name = 11691242
REMARK  5 active torsions:
REMARK  status: ('A' for Active; 'I' for Inactive)
REMARK    1  A    between atoms: N_1  and  C_25
REMARK    2  A    between atoms: C_5  and  N_11
REMARK    3  A    between atoms: N_12  and  C_17
REMARK    4  A    between atoms: C_18  and  O_23
REMARK    5  A    between atoms: C_25  and  C_28
REMARK                            x       y       z     vdW  Elec       q    Type
REMARK                         _______ _______ _______ _____ _____    ______ ____
ROOT
ATOM      1  N   UNL     1      35.634 -19.319 -21.442  0.00  0.00    -0.282 N 
ATOM      2  C   UNL     1      34.979 -20.190 -20.601  0.00  0.00    +0.053 C 
ATOM      3  C   UNL     1      35.923 -20.671 -19.690  0.00  0.00    +0.028 C 
ATOM      4  C   UNL     1      36.956 -19.235 -21.097  0.00  0.00    +0.066 C 
ATOM      5  C   UNL     1      35.509 -21.591 -18.707  0.00  0.00    +0.053 C 
ATOM      6  C   UNL     1      37.166 -20.060 -20.017  0.00  0.00    +0.019 C 
ATOM      7  C   UNL     1      33.636 -20.583 -20.575  0.00  0.00    +0.015 C 
ATOM      8  C   UNL     1      34.169 -21.995 -18.669  0.00  0.00    +0.015 C 
ATOM      9  C   UNL     1      33.249 -21.497 -19.590  0.00  0.00    +0.003 C 
ENDROOT
BRANCH   5  11
ATOM     10  O   UNL     1      35.014 -22.998 -16.119  0.00  0.00    -0.252 OA
ATOM     11  N   UNL     1      36.411 -22.104 -17.774  0.00  0.00    -0.268 N 
ATOM     12  N   UNL     1      37.341 -23.118 -15.919  0.00  0.00    -0.266 N 
ATOM     13  C   UNL     1      36.138 -22.767 -16.553  0.00  0.00    +0.308 C 
ATOM     14  H   UNL     1      37.365 -21.989 -17.993  0.00  0.00    +0.156 HD
ATOM     15  H   UNL     1      38.167 -22.866 -16.390  0.00  0.00    +0.157 HD
BRANCH  12  17
ATOM     16 BR   UNL     1      35.344 -24.180 -11.169  0.00  0.00    -0.049 Br
ATOM     17  C   UNL     1      37.511 -23.791 -14.685  0.00  0.00    +0.086 C 
ATOM     18  C   UNL     1      38.650 -24.548 -14.461  0.00  0.00    +0.152 C 
ATOM     19  C   UNL     1      36.523 -23.674 -13.721  0.00  0.00    +0.024 C 
ATOM     20  C   UNL     1      38.804 -25.206 -13.241  0.00  0.00    +0.039 C 
ATOM     21  C   UNL     1      36.677 -24.332 -12.500  0.00  0.00    +0.036 C 
ATOM     22  C   UNL     1      37.817 -25.098 -12.261  0.00  0.00    +0.010 C 
BRANCH  18  23
ATOM     23  O   UNL     1      39.625 -24.665 -15.406  0.00  0.00    -0.470 OA
ATOM     24  C   UNL     1      40.542 -25.749 -15.261  0.00  0.00    +0.253 C 
ENDBRANCH  18  23
ENDBRANCH  12  17
ENDBRANCH   5  11
BRANCH   1  25
ATOM     25  C   UNL     1      35.030 -18.595 -22.539  0.00  0.00    +0.122 C 
BRANCH  25  28
ATOM     26  N   UNL     1      34.349 -14.489 -21.516  0.00  0.00    -0.230 NA
ATOM     27  N   UNL     1      34.123 -13.965 -23.830  0.00  0.00    -0.343 N 
ATOM     28  C   UNL     1      34.792 -17.153 -22.181  0.00  0.00    +0.002 C 
ATOM     29  C   UNL     1      34.568 -16.226 -23.183  0.00  0.00    +0.031 C 
ATOM     30  C   UNL     1      34.797 -16.770 -20.852  0.00  0.00    +0.018 C 
ATOM     31  C   UNL     1      34.352 -14.912 -22.801  0.00  0.00    +0.125 C 
ATOM     32  C   UNL     1      34.572 -15.431 -20.573  0.00  0.00    +0.100 C 
ATOM     33  H   UNL     1      33.965 -13.021 -23.603  0.00  0.00    +0.144 HD
ATOM     34  H   UNL     1      34.121 -14.253 -24.771  0.00  0.00    +0.144 HD
ENDBRANCH  25  28
ENDBRANCH   1  25
TORSDOF 5
ENDMDL
MODEL 3
REMARK VINA RESULT:     -10.8      1.794      2.620
REMARK  Name = 11691242
REMARK  5 active torsions:
REMARK  status: ('A' for Active; 'I' for Inactive)
REMARK    1  A    between atoms: N_1  and  C_25
REMARK    2  A    between atoms: C_5  and  N_11
REMARK    3  A    between atoms: N_12  and  C_17
REMARK    4  A    between atoms: C_18  and  O_23
REMARK    5  A    between atoms: C_25  and  C_28
REMARK                            x       y       z     vdW  Elec       q    Type
REMARK                         _______ _______ _______ _____ _____    ______ ____
ROOT
ATOM      1  N   UNL     1      34.988 -17.555 -22.324  0.00  0.00    -0.282 N 
ATOM      2  C   UNL     1      34.486 -16.786 -23.350  0.00  0.00    +0.053 C 
ATOM      3  C   UNL     1      34.294 -15.499 -22.842  0.00  0.00    +0.028 C 
ATOM      4  C   UNL     1      35.119 -16.802 -21.189  0.00  0.00    +0.066 C 
ATOM      5  C   UNL     1      33.781 -14.502 -23.695  0.00  0.00    +0.053 C 
ATOM      6  C   UNL     1      34.697 -15.524 -21.477  0.00  0.00    +0.019 C 
ATOM      7  C   UNL     1      34.190 -17.127 -24.674  0.00  0.00    +0.015 C 
ATOM      8  C   UNL     1      33.480 -14.829 -25.023  0.00  0.00    +0.015 C 
ATOM      9  C   UNL     1      33.683 -16.121 -25.503  0.00  0.00    +0.003 C 
ENDROOT
BRANCH   5  11
ATOM     10  O   UNL     1      33.928 -11.901 -25.156  0.00  0.00    -0.252 OA
ATOM     11  N   UNL     1      33.570 -13.201 -23.239  0.00  0.00    -0.268 N 
ATOM     12  N   UNL     1      33.361 -10.904 -23.118  0.00  0.00    -0.266 N 
ATOM     13  C   UNL     1      33.648 -11.987 -23.964  0.00  0.00    +0.308 C 
ATOM     14  H   UNL     1      33.334 -13.114 -22.287  0.00  0.00    +0.156 HD
ATOM     15  H   UNL     1      33.154 -11.130 -22.183  0.00  0.00    +0.157 HD
BRANCH  12  17
ATOM     16 BR   UNL     1      30.597  -6.428 -23.087  0.00  0.00    -0.049 Br
ATOM     17  C   UNL     1      33.331  -9.527 -23.445  0.00  0.00    +0.086 C 
ATOM     18  C   UNL     1      34.431  -8.934 -24.045  0.00  0.00    +0.152 C 
ATOM     19  C   UNL     1      32.190  -8.798 -23.153  0.00  0.00    +0.024 C 
ATOM     20  C   UNL     1      34.388  -7.577 -24.361  0.00  0.00    +0.039 C 
ATOM     21  C   UNL     1      32.147  -7.440 -23.470  0.00  0.00    +0.036 C 
ATOM     22  C   UNL     1      33.246  -6.829 -24.073  0.00  0.00    +0.010 C 
BRANCH  18  23
ATOM     23  O   UNL     1      35.556  -9.648 -24.335  0.00  0.00    -0.470 OA
ATOM     24  C   UNL     1      35.852  -9.859 -25.714  0.00  0.00    +0.253 C 
ENDBRANCH  18  23
ENDBRANCH  12  17
ENDBRANCH   5  11
BRANCH   1  25
ATOM     25  C   UNL     1      35.328 -18.959 -22.415  0.00  0.00    +0.122 C 
BRANCH  25  28
ATOM     26  N   UNL     1      33.339 -21.249 -19.388  0.00  0.00    -0.230 NA
ATOM     27  N   UNL     1      35.443 -22.111 -18.677  0.00  0.00    -0.343 N 
ATOM     28  C   UNL     1      34.631 -19.764 -21.353  0.00  0.00    +0.002 C 
ATOM     29  C   UNL     1      35.371 -20.568 -20.506  0.00  0.00    +0.031 C 
ATOM     30  C   UNL     1      33.254 -19.689 -21.233  0.00  0.00    +0.018 C 
ATOM     31  C   UNL     1      34.681 -21.288 -19.543  0.00  0.00    +0.125 C 
ATOM     32  C   UNL     1      32.659 -20.448 -20.239  0.00  0.00    +0.100 C 
ATOM     33  H   UNL     1      34.994 -22.638 -17.979  0.00  0.00    +0.144 HD
ATOM     34  H   UNL     1      36.422 -22.152 -18.773  0.00  0.00    +0.144 HD
ENDBRANCH  25  28
ENDBRANCH   1  25
TORSDOF 5
ENDMDL
MODEL 4
REMARK VINA RESULT:     -10.6      2.341      3.600
REMARK  Name = 11691242
REMARK  5 active torsions:
REMARK  status: ('A' for Active; 'I' for Inactive)
REMARK    1  A    between atoms: N_1  and  C_25
REMARK    2  A    between atoms: C_5  and  N_11
REMARK    3  A    between atoms: N_12  and  C_17
REMARK    4  A    between atoms: C_18  and  O_23
REMARK    5  A    between atoms: C_25  and  C_28
REMARK                            x       y       z     vdW  Elec       q    Type
REMARK                         _______ _______ _______ _____ _____    ______ ____
ROOT
ATOM      1  N   UNL     1      35.594 -19.201 -21.520  0.00  0.00    -0.282 N 
ATOM      2  C   UNL     1      35.184 -18.815 -22.775  0.00  0.00    +0.053 C 
ATOM      3  C   UNL     1      35.126 -17.419 -22.778  0.00  0.00    +0.028 C 
ATOM      4  C   UNL     1      35.796 -18.102 -20.730  0.00  0.00    +0.066 C 
ATOM      5  C   UNL     1      34.729 -16.758 -23.956  0.00  0.00    +0.053 C 
ATOM      6  C   UNL     1      35.514 -16.983 -21.479  0.00  0.00    +0.019 C 
ATOM      7  C   UNL     1      34.863 -19.585 -23.899  0.00  0.00    +0.015 C 
ATOM      8  C   UNL     1      34.405 -17.516 -25.088  0.00  0.00    +0.015 C 
ATOM      9  C   UNL     1      34.472 -18.907 -25.058  0.00  0.00    +0.003 C 
ENDROOT
BRANCH   5  11
ATOM     10  O   UNL     1      32.729 -14.885 -22.766  0.00  0.00    -0.252 OA
ATOM     11  N   UNL     1      34.654 -15.365 -24.013  0.00  0.00    -0.268 N 
ATOM     12  N   UNL     1      33.989 -13.171 -23.737  0.00  0.00    -0.266 N 
ATOM     13  C   UNL     1      33.687 -14.508 -23.434  0.00  0.00    +0.308 C 
ATOM     14  H   UNL     1      35.368 -14.919 -24.523  0.00  0.00    +0.156 HD
ATOM     15  H   UNL     1      34.793 -13.023 -24.285  0.00  0.00    +0.157 HD
BRANCH  12  17
ATOM     16 BR   UNL     1      30.724 -10.955 -20.259  0.00  0.00    -0.049 Br
ATOM     17  C   UNL     1      33.279 -12.009 -23.352  0.00  0.00    +0.086 C 
ATOM     18  C   UNL     1      33.369 -10.857 -24.118  0.00  0.00    +0.152 C 
ATOM     19  C   UNL     1      32.501 -12.052 -22.206  0.00  0.00    +0.024 C 
ATOM     20  C   UNL     1      32.665  -9.720 -23.726  0.00  0.00    +0.039 C 
ATOM     21  C   UNL     1      31.796 -10.914 -21.815  0.00  0.00    +0.036 C 
ATOM     22  C   UNL     1      31.878  -9.748 -22.575  0.00  0.00    +0.010 C 
BRANCH  18  23
ATOM     23  O   UNL     1      34.132 -10.810 -25.247  0.00  0.00    -0.470 OA
ATOM     24  C   UNL     1      35.340 -10.053 -25.182  0.00  0.00    +0.253 C 
ENDBRANCH  18  23
ENDBRANCH  12  17
ENDBRANCH   5  11
BRANCH   1  25
ATOM     25  C   UNL     1      35.783 -20.567 -21.080  0.00  0.00    +0.122 C 
BRANCH  25  28
ATOM     26  N   UNL     1      32.552 -21.870 -18.586  0.00  0.00    -0.230 NA
ATOM     27  N   UNL     1      34.019 -23.412 -17.515  0.00  0.00    -0.343 N 
ATOM     28  C   UNL     1      34.649 -21.026 -20.205  0.00  0.00    +0.002 C 
ATOM     29  C   UNL     1      34.868 -22.014 -19.262  0.00  0.00    +0.031 C 
ATOM     30  C   UNL     1      33.399 -20.453 -20.351  0.00  0.00    +0.018 C 
ATOM     31  C   UNL     1      33.791 -22.400 -18.480  0.00  0.00    +0.125 C 
ATOM     32  C   UNL     1      32.387 -20.908 -19.521  0.00  0.00    +0.100 C 
ATOM     33  H   UNL     1      33.282 -23.715 -16.937  0.00  0.00    +0.144 HD
ATOM     34  H   UNL     1      34.915 -23.810 -17.421  0.00  0.00    +0.144 HD
ENDBRANCH  25  28
ENDBRANCH   1  25
TORSDOF 5
ENDMDL
MODEL 5
REMARK VINA RESULT:     -10.5      1.676      2.000
REMARK  Name = 11691242
REMARK  5 active torsions:
REMARK  status: ('A' for Active; 'I' for Inactive)
REMARK    1  A    between atoms: N_1  and  C_25
REMARK    2  A    between atoms: C_5  and  N_11
REMARK    3  A    between atoms: N_12  and  C_17
REMARK    4  A    between atoms: C_18  and  O_23
REMARK    5  A    between atoms: C_25  and  C_28
REMARK                            x       y       z     vdW  Elec       q    Type
REMARK                         _______ _______ _______ _____ _____    ______ ____
ROOT
ATOM      1  N   UNL     1      35.022 -18.673 -22.142  0.00  0.00    -0.282 N 
ATOM      2  C   UNL     1      34.813 -17.845 -23.222  0.00  0.00    +0.053 C 
ATOM      3  C   UNL     1      34.755 -16.538 -22.733  0.00  0.00    +0.028 C 
ATOM      4  C   UNL     1      35.097 -17.937 -20.991  0.00  0.00    +0.066 C 
ATOM      5  C   UNL     1      34.545 -15.482 -23.641  0.00  0.00    +0.053 C 
ATOM      6  C   UNL     1      34.934 -16.612 -21.323  0.00  0.00    +0.019 C 
ATOM      7  C   UNL     1      34.674 -18.149 -24.580  0.00  0.00    +0.015 C 
ATOM      8  C   UNL     1      34.403 -15.772 -25.004  0.00  0.00    +0.015 C 
ATOM      9  C   UNL     1      34.467 -17.085 -25.464  0.00  0.00    +0.003 C 
ENDROOT
BRANCH   5  11
ATOM     10  O   UNL     1      32.790 -13.242 -24.548  0.00  0.00    -0.252 OA
ATOM     11  N   UNL     1      34.478 -14.158 -23.206  0.00  0.00    -0.268 N 
ATOM     12  N   UNL     1      33.893 -11.939 -22.949  0.00  0.00    -0.266 N 
ATOM     13  C   UNL     1      33.629 -13.120 -23.661  0.00  0.00    +0.308 C 
ATOM     14  H   UNL     1      35.104 -13.912 -22.486  0.00  0.00    +0.156 HD
ATOM     15  H   UNL     1      34.597 -11.995 -22.265  0.00  0.00    +0.157 HD
BRANCH  12  17
ATOM     16 BR   UNL     1      34.342  -6.968 -24.611  0.00  0.00    -0.049 Br
ATOM     17  C   UNL     1      33.268 -10.677 -23.095  0.00  0.00    +0.086 C 
ATOM     18  C   UNL     1      31.965 -10.495 -22.659  0.00  0.00    +0.152 C 
ATOM     19  C   UNL     1      33.984  -9.643 -23.677  0.00  0.00    +0.024 C 
ATOM     20  C   UNL     1      31.363  -9.246 -22.809  0.00  0.00    +0.039 C 
ATOM     21  C   UNL     1      33.381  -8.394 -23.826  0.00  0.00    +0.036 C 
ATOM     22  C   UNL     1      32.071  -8.196 -23.393  0.00  0.00    +0.010 C 
BRANCH  18  23
ATOM     23  O   UNL     1      31.258 -11.508 -22.085  0.00  0.00    -0.470 OA
ATOM     24  C   UNL     1      30.663 -11.246 -20.815  0.00  0.00    +0.253 C 
ENDBRANCH  18  23
ENDBRANCH  12  17
ENDBRANCH   5  11
BRANCH   1  25
ATOM     25  C   UNL     1      35.143 -20.114 -22.199  0.00  0.00    +0.122 C 
BRANCH  25  28
ATOM     26  N   UNL     1      35.043 -21.850 -18.281  0.00  0.00    -0.230 NA
ATOM     27  N   UNL     1      32.691 -22.159 -18.494  0.00  0.00    -0.343 N 
ATOM     28  C   UNL     1      35.107 -20.723 -20.823  0.00  0.00    +0.002 C 
ATOM     29  C   UNL     1      33.904 -21.158 -20.298  0.00  0.00    +0.031 C 
ATOM     30  C   UNL     1      36.279 -20.841 -20.098  0.00  0.00    +0.018 C 
ATOM     31  C   UNL     1      33.925 -21.713 -19.029  0.00  0.00    +0.125 C 
ATOM     32  C   UNL     1      36.194 -21.409 -18.837  0.00  0.00    +0.100 C 
ATOM     33  H   UNL     1      32.660 -22.559 -17.596  0.00  0.00    +0.144 HD
ATOM     34  H   UNL     1      31.865 -22.069 -19.023  0.00  0.00    +0.144 HD
ENDBRANCH  25  28
ENDBRANCH   1  25
TORSDOF 5
ENDMDL
MODEL 6
REMARK VINA RESULT:     -10.4      6.563     11.709
REMARK  Name = 11691242
REMARK  5 active torsions:
REMARK  status: ('A' for Active; 'I' for Inactive)
REMARK    1  A    between atoms: N_1  and  C_25
REMARK    2  A    between atoms: C_5  and  N_11
REMARK    3  A    between atoms: N_12  and  C_17
REMARK    4  A    between atoms: C_18  and  O_23
REMARK    5  A    between atoms: C_25  and  C_28
REMARK                            x       y       z     vdW  Elec       q    Type
REMARK                         _______ _______ _______ _____ _____    ______ ____
ROOT
ATOM      1  N   UNL     1      35.703 -18.711 -22.539  0.00  0.00    -0.282 N 
ATOM      2  C   UNL     1      34.951 -19.459 -21.661  0.00  0.00    +0.053 C 
ATOM      3  C   UNL     1      35.799 -19.848 -20.622  0.00  0.00    +0.028 C 
ATOM      4  C   UNL     1      36.993 -18.614 -22.092  0.00  0.00    +0.066 C 
ATOM      5  C   UNL     1      35.276 -20.634 -19.576  0.00  0.00    +0.053 C 
ATOM      6  C   UNL     1      37.085 -19.308 -20.908  0.00  0.00    +0.019 C 
ATOM      7  C   UNL     1      33.600 -19.817 -21.707  0.00  0.00    +0.015 C 
ATOM      8  C   UNL     1      33.925 -21.000 -19.609  0.00  0.00    +0.015 C 
ATOM      9  C   UNL     1      33.101 -20.597 -20.658  0.00  0.00    +0.003 C 
ENDROOT
BRANCH   5  11
ATOM     10  O   UNL     1      35.004 -22.991 -17.763  0.00  0.00    -0.252 OA
ATOM     11  N   UNL     1      36.079 -21.050 -18.514  0.00  0.00    -0.268 N 
ATOM     12  N   UNL     1      36.956 -22.223 -16.728  0.00  0.00    -0.266 N 
ATOM     13  C   UNL     1      35.919 -22.178 -17.673  0.00  0.00    +0.308 C 
ATOM     14  H   UNL     1      36.862 -20.484 -18.323  0.00  0.00    +0.156 HD
ATOM     15  H   UNL     1      37.619 -21.498 -16.780  0.00  0.00    +0.157 HD
BRANCH  12  17
ATOM     16 BR   UNL     1      40.235 -25.744 -14.603  0.00  0.00    -0.049 Br
ATOM     17  C   UNL     1      37.165 -23.184 -15.711  0.00  0.00    +0.086 C 
ATOM     18  C   UNL     1      36.169 -23.434 -14.779  0.00  0.00    +0.152 C 
ATOM     19  C   UNL     1      38.375 -23.858 -15.670  0.00  0.00    +0.024 C 
ATOM     20  C   UNL     1      36.390 -24.383 -13.782  0.00  0.00    +0.039 C 
ATOM     21  C   UNL     1      38.595 -24.808 -14.672  0.00  0.00    +0.036 C 
ATOM     22  C   UNL     1      37.603 -25.070 -13.728  0.00  0.00    +0.010 C 
BRANCH  18  23
ATOM     23  O   UNL     1      34.978 -22.774 -14.816  0.00  0.00    -0.470 OA
ATOM     24  C   UNL     1      33.800 -23.550 -14.598  0.00  0.00    +0.253 C 
ENDBRANCH  18  23
ENDBRANCH  12  17
ENDBRANCH   5  11
BRANCH   1  25
ATOM     25  C   UNL     1      35.216 -18.111 -23.763  0.00  0.00    +0.122 C 
BRANCH  25  28
ATOM     26  N   UNL     1      33.752 -14.141 -23.083  0.00  0.00    -0.230 NA
ATOM     27  N   UNL     1      32.957 -14.065 -25.327  0.00  0.00    -0.343 N 
ATOM     28  C   UNL     1      34.703 -16.717 -23.525  0.00  0.00    +0.002 C 
ATOM     29  C   UNL     1      34.066 -16.038 -24.548  0.00  0.00    +0.031 C 
ATOM     30  C   UNL     1      34.873 -16.129 -22.284  0.00  0.00    +0.018 C 
ATOM     31  C   UNL     1      33.610 -14.758 -24.277  0.00  0.00    +0.125 C 
ATOM     32  C   UNL     1      34.381 -14.844 -22.115  0.00  0.00    +0.100 C 
ATOM     33  H   UNL     1      32.617 -13.154 -25.178  0.00  0.00    +0.144 HD
ATOM     34  H   UNL     1      32.842 -14.497 -26.205  0.00  0.00    +0.144 HD
ENDBRANCH  25  28
ENDBRANCH   1  25
TORSDOF 5
ENDMDL
MODEL 7
REMARK VINA RESULT:     -10.3      6.624     11.376
REMARK  Name = 11691242
REMARK  5 active torsions:
REMARK  status: ('A' for Active; 'I' for Inactive)
REMARK    1  A    between atoms: N_1  and  C_25
REMARK    2  A    between atoms: C_5  and  N_11
REMARK    3  A    between atoms: N_12  and  C_17
REMARK    4  A    between atoms: C_18  and  O_23
REMARK    5  A    between atoms: C_25  and  C_28
REMARK                            x       y       z     vdW  Elec       q    Type
REMARK                         _______ _______ _______ _____ _____    ______ ____
ROOT
ATOM      1  N   UNL     1      34.827 -18.778 -21.719  0.00  0.00    -0.282 N 
ATOM      2  C   UNL     1      35.100 -19.852 -20.902  0.00  0.00    +0.053 C 
ATOM      3  C   UNL     1      33.885 -20.269 -20.352  0.00  0.00    +0.028 C 
ATOM      4  C   UNL     1      33.486 -18.502 -21.704  0.00  0.00    +0.066 C 
ATOM      5  C   UNL     1      33.882 -21.365 -19.467  0.00  0.00    +0.053 C 
ATOM      6  C   UNL     1      32.876 -19.407 -20.866  0.00  0.00    +0.019 C 
ATOM      7  C   UNL     1      36.315 -20.480 -20.612  0.00  0.00    +0.015 C 
ATOM      8  C   UNL     1      35.091 -22.003 -19.167  0.00  0.00    +0.015 C 
ATOM      9  C   UNL     1      36.288 -21.567 -19.731  0.00  0.00    +0.003 C 
ENDROOT
BRANCH   5  11
ATOM     10  O   UNL     1      33.442 -22.970 -16.987  0.00  0.00    -0.252 OA
ATOM     11  N   UNL     1      32.697 -21.822 -18.889  0.00  0.00    -0.268 N 
ATOM     12  N   UNL     1      31.162 -22.828 -17.488  0.00  0.00    -0.266 N 
ATOM     13  C   UNL     1      32.527 -22.584 -17.708  0.00  0.00    +0.308 C 
ATOM     14  H   UNL     1      31.869 -21.584 -19.366  0.00  0.00    +0.156 HD
ATOM     15  H   UNL     1      30.543 -22.453 -18.155  0.00  0.00    +0.157 HD
BRANCH  12  17
ATOM     16 BR   UNL     1      31.853 -25.197 -12.842  0.00  0.00    -0.049 Br
ATOM     17  C   UNL     1      30.566 -23.548 -16.424  0.00  0.00    +0.086 C 
ATOM     18  C   UNL     1      29.213 -23.847 -16.463  0.00  0.00    +0.152 C 
ATOM     19  C   UNL     1      31.360 -23.939 -15.358  0.00  0.00    +0.024 C 
ATOM     20  C   UNL     1      28.640 -24.556 -15.408  0.00  0.00    +0.039 C 
ATOM     21  C   UNL     1      30.786 -24.648 -14.303  0.00  0.00    +0.036 C 
ATOM     22  C   UNL     1      29.427 -24.957 -14.328  0.00  0.00    +0.010 C 
BRANCH  18  23
ATOM     23  O   UNL     1      28.429 -23.466 -17.510  0.00  0.00    -0.470 OA
ATOM     24  C   UNL     1      27.457 -22.453 -17.257  0.00  0.00    +0.253 C 
ENDBRANCH  18  23
ENDBRANCH  12  17
ENDBRANCH   5  11
BRANCH   1  25
ATOM     25  C   UNL     1      35.804 -18.035 -22.486  0.00  0.00    +0.122 C 
BRANCH  25  28
ATOM     26  N   UNL     1      33.931 -15.110 -24.997  0.00  0.00    -0.230 NA
ATOM     27  N   UNL     1      34.133 -13.502 -23.250  0.00  0.00    -0.343 N 
ATOM     28  C   UNL     1      35.146 -17.008 -23.366  0.00  0.00    +0.002 C 
ATOM     29  C   UNL     1      34.945 -15.724 -22.890  0.00  0.00    +0.031 C 
ATOM     30  C   UNL     1      34.749 -17.357 -24.645  0.00  0.00    +0.018 C 
ATOM     31  C   UNL     1      34.336 -14.816 -23.741  0.00  0.00    +0.125 C 
ATOM     32  C   UNL     1      34.149 -16.376 -25.417  0.00  0.00    +0.100 C 
ATOM     33  H   UNL     1      33.705 -12.825 -23.821  0.00  0.00    +0.144 HD
ATOM     34  H   UNL     1      34.422 -13.267 -22.338  0.00  0.00    +0.144 HD
ENDBRANCH  25  28
ENDBRANCH   1  25
TORSDOF 5
ENDMDL
MODEL 8
REMARK VINA RESULT:     -10.2      3.755     10.438
REMARK  Name = 11691242
REMARK  5 active torsions:
REMARK  status: ('A' for Active; 'I' for Inactive)
REMARK    1  A    between atoms: N_1  and  C_25
REMARK    2  A    between atoms: C_5  and  N_11
REMARK    3  A    between atoms: N_12  and  C_17
REMARK    4  A    between atoms: C_18  and  O_23
REMARK    5  A    between atoms: C_25  and  C_28
REMARK                            x       y       z     vdW  Elec       q    Type
REMARK                         _______ _______ _______ _____ _____    ______ ____
ROOT
ATOM      1  N   UNL     1      33.862  -8.465 -23.275  0.00  0.00    -0.282 N 
ATOM      2  C   UNL     1      33.041  -9.286 -22.535  0.00  0.00    +0.053 C 
ATOM      3  C   UNL     1      33.125 -10.563 -23.094  0.00  0.00    +0.028 C 
ATOM      4  C   UNL     1      34.459  -9.177 -24.280  0.00  0.00    +0.066 C 
ATOM      5  C   UNL     1      32.373 -11.607 -22.520  0.00  0.00    +0.053 C 
ATOM      6  C   UNL     1      34.023 -10.479 -24.196  0.00  0.00    +0.019 C 
ATOM      7  C   UNL     1      32.240  -9.000 -21.424  0.00  0.00    +0.015 C 
ATOM      8  C   UNL     1      31.566 -11.335 -21.408  0.00  0.00    +0.015 C 
ATOM      9  C   UNL     1      31.503 -10.051 -20.870  0.00  0.00    +0.003 C 
ENDROOT
BRANCH   5  11
ATOM     10  O   UNL     1      34.507 -13.687 -22.323  0.00  0.00    -0.252 OA
ATOM     11  N   UNL     1      32.420 -12.901 -23.039  0.00  0.00    -0.268 N 
ATOM     12  N   UNL     1      33.090 -15.039 -23.600  0.00  0.00    -0.266 N 
ATOM     13  C   UNL     1      33.452 -13.863 -22.925  0.00  0.00    +0.308 C 
ATOM     14  H   UNL     1      31.629 -13.184 -23.554  0.00  0.00    +0.156 HD
ATOM     15  H   UNL     1      32.209 -15.031 -24.039  0.00  0.00    +0.157 HD
BRANCH  12  17
ATOM     16 BR   UNL     1      35.254 -19.163 -21.155  0.00  0.00    -0.049 Br
ATOM     17  C   UNL     1      33.835 -16.235 -23.728  0.00  0.00    +0.086 C 
ATOM     18  C   UNL     1      34.268 -16.651 -24.978  0.00  0.00    +0.152 C 
ATOM     19  C   UNL     1      34.117 -16.969 -22.588  0.00  0.00    +0.024 C 
ATOM     20  C   UNL     1      35.001 -17.831 -25.089  0.00  0.00    +0.039 C 
ATOM     21  C   UNL     1      34.852 -18.150 -22.699  0.00  0.00    +0.036 C 
ATOM     22  C   UNL     1      35.293 -18.581 -23.950  0.00  0.00    +0.010 C 
BRANCH  18  23
ATOM     23  O   UNL     1      33.993 -15.931 -26.103  0.00  0.00    -0.470 OA
ATOM     24  C   UNL     1      32.660 -15.997 -26.605  0.00  0.00    +0.253 C 
ENDBRANCH  18  23
ENDBRANCH  12  17
ENDBRANCH   5  11
BRANCH   1  25
ATOM     25  C   UNL     1      34.070  -7.052 -23.040  0.00  0.00    +0.122 C 
BRANCH  25  28
ATOM     26  N   UNL     1      30.636  -4.752 -24.174  0.00  0.00    -0.230 NA
ATOM     27  N   UNL     1      30.167  -4.345 -21.874  0.00  0.00    -0.343 N 
ATOM     28  C   UNL     1      32.864  -6.246 -23.437  0.00  0.00    +0.002 C 
ATOM     29  C   UNL     1      32.073  -5.669 -22.460  0.00  0.00    +0.031 C 
ATOM     30  C   UNL     1      32.559  -6.087 -24.777  0.00  0.00    +0.018 C 
ATOM     31  C   UNL     1      30.975  -4.935 -22.878  0.00  0.00    +0.125 C 
ATOM     32  C   UNL     1      31.440  -5.335 -25.092  0.00  0.00    +0.100 C 
ATOM     33  H   UNL     1      29.378  -3.815 -22.127  0.00  0.00    +0.144 HD
ATOM     34  H   UNL     1      30.397  -4.465 -20.924  0.00  0.00    +0.144 HD
ENDBRANCH  25  28
ENDBRANCH   1  25
TORSDOF 5
ENDMDL
MODEL 9
REMARK VINA RESULT:     -10.2      6.674     11.817
REMARK  Name = 11691242
REMARK  5 active torsions:
REMARK  status: ('A' for Active; 'I' for Inactive)
REMARK    1  A    between atoms: N_1  and  C_25
REMARK    2  A    between atoms: C_5  and  N_11
REMARK    3  A    between atoms: N_12  and  C_17
REMARK    4  A    between atoms: C_18  and  O_23
REMARK    5  A    between atoms: C_25  and  C_28
REMARK                            x       y       z     vdW  Elec       q    Type
REMARK                         _______ _______ _______ _____ _____    ______ ____
ROOT
ATOM      1  N   UNL     1      34.147 -19.137 -21.755  0.00  0.00    -0.282 N 
ATOM      2  C   UNL     1      35.233 -19.663 -21.092  0.00  0.00    +0.053 C 
ATOM      3  C   UNL     1      34.738 -20.551 -20.134  0.00  0.00    +0.028 C 
ATOM      4  C   UNL     1      32.987 -19.658 -21.250  0.00  0.00    +0.066 C 
ATOM      5  C   UNL     1      35.650 -21.234 -19.306  0.00  0.00    +0.053 C 
ATOM      6  C   UNL     1      33.318 -20.536 -20.245  0.00  0.00    +0.019 C 
ATOM      7  C   UNL     1      36.600 -19.425 -21.265  0.00  0.00    +0.015 C 
ATOM      8  C   UNL     1      37.022 -21.006 -19.468  0.00  0.00    +0.015 C 
ATOM      9  C   UNL     1      37.488 -20.115 -20.433  0.00  0.00    +0.003 C 
ENDROOT
BRANCH   5  11
ATOM     10  O   UNL     1      36.640 -21.703 -16.527  0.00  0.00    -0.252 OA
ATOM     11  N   UNL     1      35.209 -22.131 -18.332  0.00  0.00    -0.268 N 
ATOM     12  N   UNL     1      34.971 -23.333 -16.375  0.00  0.00    -0.266 N 
ATOM     13  C   UNL     1      35.705 -22.326 -17.021  0.00  0.00    +0.308 C 
ATOM     14  H   UNL     1      34.453 -22.706 -18.592  0.00  0.00    +0.156 HD
ATOM     15  H   UNL     1      34.247 -23.744 -16.900  0.00  0.00    +0.157 HD
BRANCH  12  17
ATOM     16 BR   UNL     1      38.192 -25.677 -12.939  0.00  0.00    -0.049 Br
ATOM     17  C   UNL     1      35.143 -23.830 -15.061  0.00  0.00    +0.086 C 
ATOM     18  C   UNL     1      34.105 -23.743 -14.146  0.00  0.00    +0.152 C 
ATOM     19  C   UNL     1      36.359 -24.398 -14.718  0.00  0.00    +0.024 C 
ATOM     20  C   UNL     1      34.289 -24.237 -12.856  0.00  0.00    +0.039 C 
ATOM     21  C   UNL     1      36.543 -24.893 -13.426  0.00  0.00    +0.036 C 
ATOM     22  C   UNL     1      35.508 -24.812 -12.495  0.00  0.00    +0.010 C 
BRANCH  18  23
ATOM     23  O   UNL     1      32.906 -23.187 -14.480  0.00  0.00    -0.470 OA
ATOM     24  C   UNL     1      31.764 -23.616 -13.740  0.00  0.00    +0.253 C 
ENDBRANCH  18  23
ENDBRANCH  12  17
ENDBRANCH   5  11
BRANCH   1  25
ATOM     25  C   UNL     1      34.207 -18.168 -22.829  0.00  0.00    +0.122 C 
BRANCH  25  28
ATOM     26  N   UNL     1      34.465 -14.168 -21.313  0.00  0.00    -0.230 NA
ATOM     27  N   UNL     1      34.189 -13.327 -23.525  0.00  0.00    -0.343 N 
ATOM     28  C   UNL     1      34.298 -16.763 -22.297  0.00  0.00    +0.002 C 
ATOM     29  C   UNL     1      34.201 -15.693 -23.169  0.00  0.00    +0.031 C 
ATOM     30  C   UNL     1      34.478 -16.556 -20.942  0.00  0.00    +0.018 C 
ATOM     31  C   UNL     1      34.290 -14.420 -22.630  0.00  0.00    +0.125 C 
ATOM     32  C   UNL     1      34.554 -15.245 -20.501  0.00  0.00    +0.100 C 
ATOM     33  H   UNL     1      34.246 -12.406 -23.184  0.00  0.00    +0.144 HD
ATOM     34  H   UNL     1      34.060 -13.490 -24.488  0.00  0.00    +0.144 HD
ENDBRANCH  25  28
ENDBRANCH   1  25
TORSDOF 5
ENDMDL
