MODEL 1
REMARK VINA RESULT:      -7.6      0.000      0.000
REMARK  Name = 24941263
REMARK  2 active torsions:
REMARK  status: ('A' for Active; 'I' for Inactive)
REMARK    1  A    between atoms: C_5  and  C_14
REMARK    2  A    between atoms: C_14  and  C_15
REMARK                            x       y       z     vdW  Elec       q    Type
REMARK                         _______ _______ _______ _____ _____    ______ ____
ROOT
ATOM      1  S   UNL     1      34.197 -15.290 -23.601  0.00  0.00    -0.081 S 
ATOM      2  O   UNL     1      35.001 -19.103 -23.573  0.00  0.00    -0.473 OA
ATOM      3  N   UNL     1      35.563 -17.679 -20.769  0.00  0.00    -0.254 NA
ATOM      4  N   UNL     1      34.519 -15.661 -20.629  0.00  0.00    -0.342 N 
ATOM      5  C   UNL     1      36.083 -18.872 -21.419  0.00  0.00    +0.148 C 
ATOM      6  C   UNL     1      34.981 -19.549 -22.222  0.00  0.00    +0.229 C 
ATOM      7  C   UNL     1      34.691 -17.798 -23.774  0.00  0.00    +0.148 C 
ATOM      8  C   UNL     1      34.932 -16.735 -21.397  0.00  0.00    +0.129 C 
ATOM      9  C   UNL     1      34.659 -16.775 -22.839  0.00  0.00    +0.094 C 
ATOM     10  C   UNL     1      34.381 -17.349 -25.094  0.00  0.00    +0.044 C 
ATOM     11  C   UNL     1      34.089 -16.008 -25.138  0.00  0.00    +0.039 C 
ATOM     12  H   UNL     1      34.708 -15.645 -19.663  0.00  0.00    +0.144 HD
ATOM     13  H   UNL     1      34.037 -14.913 -21.049  0.00  0.00    +0.144 HD
ENDROOT
BRANCH   5  14
ATOM     14  C   UNL     1      36.579 -19.791 -20.305  0.00  0.00    +0.028 C 
BRANCH  14  15
ATOM     15  C   UNL     1      35.616 -20.950 -20.074  0.00  0.00    +0.002 C 
ATOM     16  C   UNL     1      35.970 -21.718 -18.810  0.00  0.00    +0.000 C 
ENDBRANCH  14  15
ENDBRANCH   5  14
TORSDOF 2
ENDMDL
MODEL 2
REMARK VINA RESULT:      -7.3      2.548      3.136
REMARK  Name = 24941263
REMARK  2 active torsions:
REMARK  status: ('A' for Active; 'I' for Inactive)
REMARK    1  A    between atoms: C_5  and  C_14
REMARK    2  A    between atoms: C_14  and  C_15
REMARK                            x       y       z     vdW  Elec       q    Type
REMARK                         _______ _______ _______ _____ _____    ______ ____
ROOT
ATOM      1  S   UNL     1      33.295 -14.458 -24.395  0.00  0.00    -0.081 S 
ATOM      2  O   UNL     1      33.968 -15.987 -20.874  0.00  0.00    -0.473 OA
ATOM      3  N   UNL     1      34.917 -17.877 -23.268  0.00  0.00    -0.254 NA
ATOM      4  N   UNL     1      35.093 -16.728 -25.224  0.00  0.00    -0.342 N 
ATOM      5  C   UNL     1      34.517 -18.115 -21.889  0.00  0.00    +0.148 C 
ATOM      6  C   UNL     1      34.989 -16.968 -21.005  0.00  0.00    +0.229 C 
ATOM      7  C   UNL     1      33.639 -15.313 -22.004  0.00  0.00    +0.148 C 
ATOM      8  C   UNL     1      34.654 -16.783 -23.914  0.00  0.00    +0.129 C 
ATOM      9  C   UNL     1      33.934 -15.652 -23.315  0.00  0.00    +0.094 C 
ATOM     10  C   UNL     1      32.867 -14.116 -21.904  0.00  0.00    +0.044 C 
ATOM     11  C   UNL     1      32.615 -13.549 -23.129  0.00  0.00    +0.039 C 
ATOM     12  H   UNL     1      35.574 -17.492 -25.615  0.00  0.00    +0.144 HD
ATOM     13  H   UNL     1      34.922 -15.925 -25.766  0.00  0.00    +0.144 HD
ENDROOT
BRANCH   5  14
ATOM     14  C   UNL     1      35.178 -19.426 -21.466  0.00  0.00    +0.028 C 
BRANCH  14  15
ATOM     15  C   UNL     1      34.294 -20.203 -20.498  0.00  0.00    +0.002 C 
ATOM     16  C   UNL     1      32.822 -19.897 -20.728  0.00  0.00    +0.000 C 
ENDBRANCH  14  15
ENDBRANCH   5  14
TORSDOF 2
ENDMDL
MODEL 3
REMARK VINA RESULT:      -6.9      2.878      5.570
REMARK  Name = 24941263
REMARK  2 active torsions:
REMARK  status: ('A' for Active; 'I' for Inactive)
REMARK    1  A    between atoms: C_5  and  C_14
REMARK    2  A    between atoms: C_14  and  C_15
REMARK                            x       y       z     vdW  Elec       q    Type
REMARK                         _______ _______ _______ _____ _____    ______ ____
ROOT
ATOM      1  S   UNL     1      33.809 -21.969 -19.026  0.00  0.00    -0.081 S 
ATOM      2  O   UNL     1      36.798 -19.811 -20.292  0.00  0.00    -0.473 OA
ATOM      3  N   UNL     1      34.115 -19.348 -21.963  0.00  0.00    -0.254 NA
ATOM      4  N   UNL     1      32.287 -20.112 -20.843  0.00  0.00    -0.342 N 
ATOM      5  C   UNL     1      35.531 -19.188 -22.258  0.00  0.00    +0.148 C 
ATOM      6  C   UNL     1      36.270 -18.707 -21.017  0.00  0.00    +0.229 C 
ATOM      7  C   UNL     1      35.888 -20.647 -19.733  0.00  0.00    +0.148 C 
ATOM      8  C   UNL     1      33.663 -20.050 -20.971  0.00  0.00    +0.129 C 
ATOM      9  C   UNL     1      34.536 -20.752 -20.022  0.00  0.00    +0.094 C 
ATOM     10  C   UNL     1      36.314 -21.582 -18.742  0.00  0.00    +0.044 C 
ATOM     11  C   UNL     1      35.283 -22.357 -18.271  0.00  0.00    +0.039 C 
ATOM     12  H   UNL     1      31.711 -19.637 -21.485  0.00  0.00    +0.144 HD
ATOM     13  H   UNL     1      31.883 -20.630 -20.111  0.00  0.00    +0.144 HD
ENDROOT
BRANCH   5  14
ATOM     14  C   UNL     1      35.625 -18.151 -23.376  0.00  0.00    +0.028 C 
BRANCH  14  15
ATOM     15  C   UNL     1      34.618 -18.439 -24.484  0.00  0.00    +0.002 C 
ATOM     16  C   UNL     1      34.244 -17.169 -25.232  0.00  0.00    +0.000 C 
ENDBRANCH  14  15
ENDBRANCH   5  14
TORSDOF 2
ENDMDL
MODEL 4
REMARK VINA RESULT:      -6.9      3.065      5.169
REMARK  Name = 24941263
REMARK  2 active torsions:
REMARK  status: ('A' for Active; 'I' for Inactive)
REMARK    1  A    between atoms: C_5  and  C_14
REMARK    2  A    between atoms: C_14  and  C_15
REMARK                            x       y       z     vdW  Elec       q    Type
REMARK                         _______ _______ _______ _____ _____    ______ ____
ROOT
ATOM      1  S   UNL     1      35.098 -18.470 -23.510  0.00  0.00    -0.081 S 
ATOM      2  O   UNL     1      33.571 -14.929 -24.074  0.00  0.00    -0.473 OA
ATOM      3  N   UNL     1      33.931 -15.666 -20.986  0.00  0.00    -0.254 NA
ATOM      4  N   UNL     1      35.364 -17.411 -20.703  0.00  0.00    -0.342 N 
ATOM      5  C   UNL     1      33.053 -14.763 -21.715  0.00  0.00    +0.148 C 
ATOM      6  C   UNL     1      33.794 -14.159 -22.899  0.00  0.00    +0.229 C 
ATOM      7  C   UNL     1      34.085 -16.184 -24.071  0.00  0.00    +0.148 C 
ATOM      8  C   UNL     1      34.586 -16.637 -21.544  0.00  0.00    +0.129 C 
ATOM      9  C   UNL     1      34.525 -16.922 -22.983  0.00  0.00    +0.094 C 
ATOM     10  C   UNL     1      34.184 -16.902 -25.301  0.00  0.00    +0.044 C 
ATOM     11  C   UNL     1      34.722 -18.154 -25.138  0.00  0.00    +0.039 C 
ATOM     12  H   UNL     1      35.398 -17.211 -19.740  0.00  0.00    +0.144 HD
ATOM     13  H   UNL     1      35.883 -18.164 -21.067  0.00  0.00    +0.144 HD
ENDROOT
BRANCH   5  14
ATOM     14  C   UNL     1      32.637 -13.673 -20.728  0.00  0.00    +0.028 C 
BRANCH  14  15
ATOM     15  C   UNL     1      31.839 -12.575 -21.421  0.00  0.00    +0.002 C 
ATOM     16  C   UNL     1      31.404 -11.503 -20.434  0.00  0.00    +0.000 C 
ENDBRANCH  14  15
ENDBRANCH   5  14
TORSDOF 2
ENDMDL
MODEL 5
REMARK VINA RESULT:      -6.7      5.197      7.845
REMARK  Name = 24941263
REMARK  2 active torsions:
REMARK  status: ('A' for Active; 'I' for Inactive)
REMARK    1  A    between atoms: C_5  and  C_14
REMARK    2  A    between atoms: C_14  and  C_15
REMARK                            x       y       z     vdW  Elec       q    Type
REMARK                         _______ _______ _______ _____ _____    ______ ____
ROOT
ATOM      1  S   UNL     1      33.685 -23.630 -14.764  0.00  0.00    -0.081 S 
ATOM      2  O   UNL     1      32.890 -22.720 -18.469  0.00  0.00    -0.473 OA
ATOM      3  N   UNL     1      35.962 -22.298 -17.703  0.00  0.00    -0.254 NA
ATOM      4  N   UNL     1      36.508 -23.403 -15.789  0.00  0.00    -0.342 N 
ATOM      5  C   UNL     1      35.082 -21.722 -18.708  0.00  0.00    +0.148 C 
ATOM      6  C   UNL     1      34.103 -22.775 -19.209  0.00  0.00    +0.229 C 
ATOM      7  C   UNL     1      32.973 -23.060 -17.159  0.00  0.00    +0.148 C 
ATOM      8  C   UNL     1      35.536 -22.933 -16.654  0.00  0.00    +0.129 C 
ATOM      9  C   UNL     1      34.112 -23.153 -16.374  0.00  0.00    +0.094 C 
ATOM     10  C   UNL     1      31.777 -23.335 -16.430  0.00  0.00    +0.044 C 
ATOM     11  C   UNL     1      32.022 -23.663 -15.120  0.00  0.00    +0.039 C 
ATOM     12  H   UNL     1      37.460 -23.249 -15.987  0.00  0.00    +0.144 HD
ATOM     13  H   UNL     1      36.247 -23.891 -14.976  0.00  0.00    +0.144 HD
ENDROOT
BRANCH   5  14
ATOM     14  C   UNL     1      35.981 -21.239 -19.845  0.00  0.00    +0.028 C 
BRANCH  14  15
ATOM     15  C   UNL     1      35.291 -20.165 -20.678  0.00  0.00    +0.002 C 
ATOM     16  C   UNL     1      36.253 -19.044 -21.037  0.00  0.00    +0.000 C 
ENDBRANCH  14  15
ENDBRANCH   5  14
TORSDOF 2
ENDMDL
MODEL 6
REMARK VINA RESULT:      -6.7      8.791     11.344
REMARK  Name = 24941263
REMARK  2 active torsions:
REMARK  status: ('A' for Active; 'I' for Inactive)
REMARK    1  A    between atoms: C_5  and  C_14
REMARK    2  A    between atoms: C_14  and  C_15
REMARK                            x       y       z     vdW  Elec       q    Type
REMARK                         _______ _______ _______ _____ _____    ______ ____
ROOT
ATOM      1  S   UNL     1      31.809 -10.117 -19.412  0.00  0.00    -0.081 S 
ATOM      2  O   UNL     1      31.589  -9.613 -23.270  0.00  0.00    -0.473 OA
ATOM      3  N   UNL     1      32.144  -6.900 -21.677  0.00  0.00    -0.254 NA
ATOM      4  N   UNL     1      32.879  -7.306 -19.561  0.00  0.00    -0.342 N 
ATOM      5  C   UNL     1      31.546  -7.212 -22.967  0.00  0.00    +0.148 C 
ATOM      6  C   UNL     1      32.257  -8.401 -23.597  0.00  0.00    +0.229 C 
ATOM      7  C   UNL     1      31.611  -9.973 -21.963  0.00  0.00    +0.148 C 
ATOM      8  C   UNL     1      32.309  -7.773 -20.732  0.00  0.00    +0.129 C 
ATOM      9  C   UNL     1      31.922  -9.183 -20.866  0.00  0.00    +0.094 C 
ATOM     10  C   UNL     1      31.248 -11.305 -21.598  0.00  0.00    +0.044 C 
ATOM     11  C   UNL     1      31.319 -11.517 -20.243  0.00  0.00    +0.039 C 
ATOM     12  H   UNL     1      33.134  -6.358 -19.482  0.00  0.00    +0.144 HD
ATOM     13  H   UNL     1      33.028  -7.920 -18.807  0.00  0.00    +0.144 HD
ENDROOT
BRANCH   5  14
ATOM     14  C   UNL     1      31.712  -5.965 -23.833  0.00  0.00    +0.028 C 
BRANCH  14  15
ATOM     15  C   UNL     1      32.939  -6.075 -24.731  0.00  0.00    +0.002 C 
ATOM     16  C   UNL     1      32.874  -5.078 -25.878  0.00  0.00    +0.000 C 
ENDBRANCH  14  15
ENDBRANCH   5  14
TORSDOF 2
ENDMDL
MODEL 7
REMARK VINA RESULT:      -6.6     10.066     11.354
REMARK  Name = 24941263
REMARK  2 active torsions:
REMARK  status: ('A' for Active; 'I' for Inactive)
REMARK    1  A    between atoms: C_5  and  C_14
REMARK    2  A    between atoms: C_14  and  C_15
REMARK                            x       y       z     vdW  Elec       q    Type
REMARK                         _______ _______ _______ _____ _____    ______ ____
ROOT
ATOM      1  S   UNL     1      37.567 -25.871 -12.705  0.00  0.00    -0.081 S 
ATOM      2  O   UNL     1      35.158 -24.731 -15.548  0.00  0.00    -0.473 OA
ATOM      3  N   UNL     1      34.067 -24.044 -12.625  0.00  0.00    -0.254 NA
ATOM      4  N   UNL     1      35.724 -24.140 -11.068  0.00  0.00    -0.342 N 
ATOM      5  C   UNL     1      33.432 -24.264 -13.916  0.00  0.00    +0.148 C 
ATOM      6  C   UNL     1      34.312 -23.713 -15.029  0.00  0.00    +0.229 C 
ATOM      7  C   UNL     1      36.101 -25.213 -14.701  0.00  0.00    +0.148 C 
ATOM      8  C   UNL     1      35.281 -24.410 -12.350  0.00  0.00    +0.129 C 
ATOM      9  C   UNL     1      36.157 -25.075 -13.322  0.00  0.00    +0.094 C 
ATOM     10  C   UNL     1      37.176 -25.994 -15.222  0.00  0.00    +0.044 C 
ATOM     11  C   UNL     1      38.047 -26.409 -14.245  0.00  0.00    +0.039 C 
ATOM     12  H   UNL     1      35.128 -23.693 -10.425  0.00  0.00    +0.144 HD
ATOM     13  H   UNL     1      36.636 -24.395 -10.799  0.00  0.00    +0.144 HD
ENDROOT
BRANCH   5  14
ATOM     14  C   UNL     1      32.095 -23.527 -13.872  0.00  0.00    +0.028 C 
BRANCH  14  15
ATOM     15  C   UNL     1      31.652 -23.101 -15.267  0.00  0.00    +0.002 C 
ATOM     16  C   UNL     1      30.139 -22.969 -15.349  0.00  0.00    +0.000 C 
ENDBRANCH  14  15
ENDBRANCH   5  14
TORSDOF 2
ENDMDL
MODEL 8
REMARK VINA RESULT:      -6.6      4.602      6.358
REMARK  Name = 24941263
REMARK  2 active torsions:
REMARK  status: ('A' for Active; 'I' for Inactive)
REMARK    1  A    between atoms: C_5  and  C_14
REMARK    2  A    between atoms: C_14  and  C_15
REMARK                            x       y       z     vdW  Elec       q    Type
REMARK                         _______ _______ _______ _____ _____    ______ ____
ROOT
ATOM      1  S   UNL     1      32.587 -10.055 -22.839  0.00  0.00    -0.081 S 
ATOM      2  O   UNL     1      32.152 -13.895 -22.333  0.00  0.00    -0.473 OA
ATOM      3  N   UNL     1      33.883 -13.154 -24.914  0.00  0.00    -0.254 NA
ATOM      4  N   UNL     1      34.634 -11.007 -24.832  0.00  0.00    -0.342 N 
ATOM      5  C   UNL     1      33.072 -14.301 -24.535  0.00  0.00    +0.148 C 
ATOM      6  C   UNL     1      33.195 -14.554 -23.039  0.00  0.00    +0.229 C 
ATOM      7  C   UNL     1      32.178 -12.539 -22.360  0.00  0.00    +0.148 C 
ATOM      8  C   UNL     1      33.802 -11.995 -24.337  0.00  0.00    +0.129 C 
ATOM      9  C   UNL     1      32.889 -11.717 -23.222  0.00  0.00    +0.094 C 
ATOM     10  C   UNL     1      31.373 -11.805 -21.437  0.00  0.00    +0.044 C 
ATOM     11  C   UNL     1      31.506 -10.447 -21.586  0.00  0.00    +0.039 C 
ATOM     12  H   UNL     1      35.242 -11.205 -25.581  0.00  0.00    +0.144 HD
ATOM     13  H   UNL     1      34.617 -10.106 -24.437  0.00  0.00    +0.144 HD
ENDROOT
BRANCH   5  14
ATOM     14  C   UNL     1      33.609 -15.492 -25.328  0.00  0.00    +0.028 C 
BRANCH  14  15
ATOM     15  C   UNL     1      34.488 -16.383 -24.459  0.00  0.00    +0.002 C 
ATOM     16  C   UNL     1      34.548 -17.801 -25.007  0.00  0.00    +0.000 C 
ENDBRANCH  14  15
ENDBRANCH   5  14
TORSDOF 2
ENDMDL
MODEL 9
REMARK VINA RESULT:      -6.6      5.291      6.821
REMARK  Name = 24941263
REMARK  2 active torsions:
REMARK  status: ('A' for Active; 'I' for Inactive)
REMARK    1  A    between atoms: C_5  and  C_14
REMARK    2  A    between atoms: C_14  and  C_15
REMARK                            x       y       z     vdW  Elec       q    Type
REMARK                         _______ _______ _______ _____ _____    ______ ____
ROOT
ATOM      1  S   UNL     1      32.288  -9.051 -22.272  0.00  0.00    -0.081 S 
ATOM      2  O   UNL     1      34.286 -11.552 -24.494  0.00  0.00    -0.473 OA
ATOM      3  N   UNL     1      32.245 -12.992 -22.503  0.00  0.00    -0.254 NA
ATOM      4  N   UNL     1      30.688 -11.538 -21.702  0.00  0.00    -0.342 N 
ATOM      5  C   UNL     1      33.476 -13.403 -23.161  0.00  0.00    +0.148 C 
ATOM      6  C   UNL     1      33.562 -12.775 -24.544  0.00  0.00    +0.229 C 
ATOM      7  C   UNL     1      33.706 -10.544 -23.797  0.00  0.00    +0.148 C 
ATOM      8  C   UNL     1      31.881 -11.754 -22.368  0.00  0.00    +0.129 C 
ATOM      9  C   UNL     1      32.669 -10.627 -22.881  0.00  0.00    +0.094 C 
ATOM     10  C   UNL     1      34.198  -9.212 -23.954  0.00  0.00    +0.044 C 
ATOM     11  C   UNL     1      33.512  -8.304 -23.187  0.00  0.00    +0.039 C 
ATOM     12  H   UNL     1      30.168 -12.302 -21.362  0.00  0.00    +0.144 HD
ATOM     13  H   UNL     1      30.360 -10.620 -21.567  0.00  0.00    +0.144 HD
ENDROOT
BRANCH   5  14
ATOM     14  C   UNL     1      33.424 -14.927 -23.263  0.00  0.00    +0.028 C 
BRANCH  14  15
ATOM     15  C   UNL     1      34.601 -15.570 -22.538  0.00  0.00    +0.002 C 
ATOM     16  C   UNL     1      34.477 -15.405 -21.032  0.00  0.00    +0.000 C 
ENDBRANCH  14  15
ENDBRANCH   5  14
TORSDOF 2
ENDMDL
