MODEL 1
REMARK VINA RESULT:      -9.4      0.000      0.000
REMARK  Name = 2997
REMARK  1 active torsions:
REMARK  status: ('A' for Active; 'I' for Inactive)
REMARK    1  A    between atoms: C_6  and  C_15
REMARK                            x       y       z     vdW  Elec       q    Type
REMARK                         _______ _______ _______ _____ _____    ______ ____
ROOT
ATOM      1 CL   UNL     1      31.280  -5.239 -24.833  0.00  0.00    -0.082 Cl
ATOM      2  O   UNL     1      32.266 -10.221 -18.549  0.00  0.00    -0.273 OA
ATOM      3  N   UNL     1      32.242  -8.355 -19.876  0.00  0.00    -0.282 N 
ATOM      4  N   UNL     1      32.096 -10.699 -21.774  0.00  0.00    -0.261 NA
ATOM      5  C   UNL     1      32.070  -8.300 -22.360  0.00  0.00    +0.032 C 
ATOM      6  C   UNL     1      32.467  -9.730 -22.539  0.00  0.00    +0.078 C 
ATOM      7  C   UNL     1      32.066  -7.677 -21.101  0.00  0.00    +0.052 C 
ATOM      8  C   UNL     1      31.803  -7.538 -23.509  0.00  0.00    +0.014 C 
ATOM      9  C   UNL     1      31.197 -10.421 -20.676  0.00  0.00    +0.210 C 
ATOM     10  C   UNL     1      31.903  -6.286 -21.027  0.00  0.00    +0.016 C 
ATOM     11  C   UNL     1      31.968  -9.680 -19.615  0.00  0.00    +0.251 C 
ATOM     12  C   UNL     1      31.593  -6.163 -23.415  0.00  0.00    +0.058 C 
ATOM     13  C   UNL     1      31.660  -5.534 -22.176  0.00  0.00    +0.013 C 
ATOM     14  H   UNL     1      32.598  -7.823 -19.127  0.00  0.00    +0.155 HD
ENDROOT
BRANCH   6  15
ATOM     15  C   UNL     1      33.389 -10.080 -23.658  0.00  0.00    +0.017 C 
ATOM     16  C   UNL     1      34.482  -9.266 -23.927  0.00  0.00    +0.001 C 
ATOM     17  C   UNL     1      33.144 -11.217 -24.417  0.00  0.00    +0.001 C 
ATOM     18  C   UNL     1      35.345  -9.594 -24.973  0.00  0.00    +0.000 C 
ATOM     19  C   UNL     1      34.007 -11.546 -25.463  0.00  0.00    +0.000 C 
ATOM     20  C   UNL     1      35.107 -10.734 -25.741  0.00  0.00    +0.000 C 
ENDBRANCH   6  15
TORSDOF 1
ENDMDL
MODEL 2
REMARK VINA RESULT:      -9.4     14.253     15.900
REMARK  Name = 2997
REMARK  1 active torsions:
REMARK  status: ('A' for Active; 'I' for Inactive)
REMARK    1  A    between atoms: C_6  and  C_15
REMARK                            x       y       z     vdW  Elec       q    Type
REMARK                         _______ _______ _______ _____ _____    ______ ____
ROOT
ATOM      1 CL   UNL     1      29.209 -23.143 -16.824  0.00  0.00    -0.082 Cl
ATOM      2  O   UNL     1      36.235 -24.047 -12.941  0.00  0.00    -0.273 OA
ATOM      3  N   UNL     1      34.091 -23.441 -13.465  0.00  0.00    -0.282 N 
ATOM      4  N   UNL     1      35.396 -24.152 -16.094  0.00  0.00    -0.261 NA
ATOM      5  C   UNL     1      33.060 -23.438 -15.732  0.00  0.00    +0.032 C 
ATOM      6  C   UNL     1      34.366 -23.467 -16.458  0.00  0.00    +0.078 C 
ATOM      7  C   UNL     1      32.984 -23.335 -14.333  0.00  0.00    +0.052 C 
ATOM      8  C   UNL     1      31.880 -23.399 -16.494  0.00  0.00    +0.014 C 
ATOM      9  C   UNL     1      35.299 -24.995 -14.923  0.00  0.00    +0.210 C 
ATOM     10  C   UNL     1      31.740 -23.088 -13.733  0.00  0.00    +0.016 C 
ATOM     11  C   UNL     1      35.272 -24.107 -13.707  0.00  0.00    +0.251 C 
ATOM     12  C   UNL     1      30.645 -23.201 -15.878  0.00  0.00    +0.058 C 
ATOM     13  C   UNL     1      30.576 -23.028 -14.499  0.00  0.00    +0.013 C 
ATOM     14  H   UNL     1      34.009 -22.991 -12.593  0.00  0.00    +0.155 HD
ENDROOT
BRANCH   6  15
ATOM     15  C   UNL     1      34.525 -22.622 -17.677  0.00  0.00    +0.017 C 
ATOM     16  C   UNL     1      33.431 -22.393 -18.501  0.00  0.00    +0.001 C 
ATOM     17  C   UNL     1      35.766 -22.072 -17.972  0.00  0.00    +0.001 C 
ATOM     18  C   UNL     1      33.579 -21.602 -19.640  0.00  0.00    +0.000 C 
ATOM     19  C   UNL     1      35.915 -21.281 -19.110  0.00  0.00    +0.000 C 
ATOM     20  C   UNL     1      34.822 -21.046 -19.945  0.00  0.00    +0.000 C 
ENDBRANCH   6  15
TORSDOF 1
ENDMDL
MODEL 3
REMARK VINA RESULT:      -9.0      4.451      6.331
REMARK  Name = 2997
REMARK  1 active torsions:
REMARK  status: ('A' for Active; 'I' for Inactive)
REMARK    1  A    between atoms: C_6  and  C_15
REMARK                            x       y       z     vdW  Elec       q    Type
REMARK                         _______ _______ _______ _____ _____    ______ ____
ROOT
ATOM      1 CL   UNL     1      31.558 -12.091 -19.909  0.00  0.00    -0.082 Cl
ATOM      2  O   UNL     1      34.428 -16.542 -26.010  0.00  0.00    -0.273 OA
ATOM      3  N   UNL     1      33.989 -15.732 -23.914  0.00  0.00    -0.282 N 
ATOM      4  N   UNL     1      33.309 -13.482 -25.810  0.00  0.00    -0.261 NA
ATOM      5  C   UNL     1      33.083 -13.481 -23.351  0.00  0.00    +0.032 C 
ATOM      6  C   UNL     1      33.424 -12.879 -24.677  0.00  0.00    +0.078 C 
ATOM      7  C   UNL     1      33.448 -14.794 -23.010  0.00  0.00    +0.052 C 
ATOM      8  C   UNL     1      32.477 -12.659 -22.387  0.00  0.00    +0.014 C 
ATOM      9  C   UNL     1      32.775 -14.826 -25.840  0.00  0.00    +0.210 C 
ATOM     10  C   UNL     1      33.299 -15.220 -21.681  0.00  0.00    +0.016 C 
ATOM     11  C   UNL     1      33.820 -15.757 -25.281  0.00  0.00    +0.251 C 
ATOM     12  C   UNL     1      32.290 -13.114 -21.083  0.00  0.00    +0.058 C 
ATOM     13  C   UNL     1      32.716 -14.389 -20.725  0.00  0.00    +0.013 C 
ATOM     14  H   UNL     1      34.546 -16.445 -23.526  0.00  0.00    +0.155 HD
ENDROOT
BRANCH   6  15
ATOM     15  C   UNL     1      33.974 -11.494 -24.712  0.00  0.00    +0.017 C 
ATOM     16  C   UNL     1      33.524 -10.554 -23.794  0.00  0.00    +0.001 C 
ATOM     17  C   UNL     1      34.931 -11.160 -25.661  0.00  0.00    +0.001 C 
ATOM     18  C   UNL     1      34.039  -9.257 -23.826  0.00  0.00    +0.000 C 
ATOM     19  C   UNL     1      35.447  -9.865 -25.693  0.00  0.00    +0.000 C 
ATOM     20  C   UNL     1      35.000  -8.913 -24.776  0.00  0.00    +0.000 C 
ENDBRANCH   6  15
TORSDOF 1
ENDMDL
MODEL 4
REMARK VINA RESULT:      -8.7     15.299     17.069
REMARK  Name = 2997
REMARK  1 active torsions:
REMARK  status: ('A' for Active; 'I' for Inactive)
REMARK    1  A    between atoms: C_6  and  C_15
REMARK                            x       y       z     vdW  Elec       q    Type
REMARK                         _______ _______ _______ _____ _____    ______ ____
ROOT
ATOM      1 CL   UNL     1      31.443 -23.764 -13.871  0.00  0.00    -0.082 Cl
ATOM      2  O   UNL     1      36.966 -21.677 -19.385  0.00  0.00    -0.273 OA
ATOM      3  N   UNL     1      35.065 -22.476 -18.391  0.00  0.00    -0.282 N 
ATOM      4  N   UNL     1      37.139 -22.363 -16.199  0.00  0.00    -0.261 NA
ATOM      5  C   UNL     1      34.780 -23.063 -15.987  0.00  0.00    +0.032 C 
ATOM      6  C   UNL     1      36.247 -23.155 -15.711  0.00  0.00    +0.078 C 
ATOM      7  C   UNL     1      34.275 -22.830 -17.277  0.00  0.00    +0.052 C 
ATOM      8  C   UNL     1      33.891 -23.330 -14.933  0.00  0.00    +0.014 C 
ATOM      9  C   UNL     1      36.718 -21.268 -17.046  0.00  0.00    +0.210 C 
ATOM     10  C   UNL     1      32.899 -22.977 -17.507  0.00  0.00    +0.016 C 
ATOM     11  C   UNL     1      36.287 -21.840 -18.370  0.00  0.00    +0.251 C 
ATOM     12  C   UNL     1      32.520 -23.424 -15.169  0.00  0.00    +0.058 C 
ATOM     13  C   UNL     1      32.025 -23.265 -16.459  0.00  0.00    +0.013 C 
ATOM     14  H   UNL     1      34.703 -22.707 -19.277  0.00  0.00    +0.155 HD
ENDROOT
BRANCH   6  15
ATOM     15  C   UNL     1      36.741 -24.260 -14.841  0.00  0.00    +0.017 C 
ATOM     16  C   UNL     1      36.556 -25.579 -15.233  0.00  0.00    +0.001 C 
ATOM     17  C   UNL     1      37.384 -23.956 -13.647  0.00  0.00    +0.001 C 
ATOM     18  C   UNL     1      37.020 -26.612 -14.419  0.00  0.00    +0.000 C 
ATOM     19  C   UNL     1      37.848 -24.989 -12.832  0.00  0.00    +0.000 C 
ATOM     20  C   UNL     1      37.665 -26.317 -13.218  0.00  0.00    +0.000 C 
ENDBRANCH   6  15
TORSDOF 1
ENDMDL
MODEL 5
REMARK VINA RESULT:      -8.7     14.323     16.408
REMARK  Name = 2997
REMARK  1 active torsions:
REMARK  status: ('A' for Active; 'I' for Inactive)
REMARK    1  A    between atoms: C_6  and  C_15
REMARK                            x       y       z     vdW  Elec       q    Type
REMARK                         _______ _______ _______ _____ _____    ______ ____
ROOT
ATOM      1 CL   UNL     1      36.774 -25.239 -13.657  0.00  0.00    -0.082 Cl
ATOM      2  O   UNL     1      34.979 -20.693 -20.090  0.00  0.00    -0.273 OA
ATOM      3  N   UNL     1      35.946 -21.473 -18.167  0.00  0.00    -0.282 N 
ATOM      4  N   UNL     1      33.299 -22.910 -18.382  0.00  0.00    -0.261 NA
ATOM      5  C   UNL     1      35.012 -23.193 -16.626  0.00  0.00    +0.032 C 
ATOM      6  C   UNL     1      33.614 -23.071 -17.143  0.00  0.00    +0.078 C 
ATOM      7  C   UNL     1      36.050 -22.360 -17.075  0.00  0.00    +0.052 C 
ATOM      8  C   UNL     1      35.254 -24.098 -15.580  0.00  0.00    +0.014 C 
ATOM      9  C   UNL     1      34.349 -22.883 -19.376  0.00  0.00    +0.210 C 
ATOM     10  C   UNL     1      37.278 -22.373 -16.395  0.00  0.00    +0.016 C 
ATOM     11  C   UNL     1      35.088 -21.578 -19.240  0.00  0.00    +0.251 C 
ATOM     12  C   UNL     1      36.496 -24.134 -14.946  0.00  0.00    +0.058 C 
ATOM     13  C   UNL     1      37.502 -23.260 -15.343  0.00  0.00    +0.013 C 
ATOM     14  H   UNL     1      36.550 -20.695 -18.160  0.00  0.00    +0.155 HD
ENDROOT
BRANCH   6  15
ATOM     15  C   UNL     1      32.488 -23.097 -16.167  0.00  0.00    +0.017 C 
ATOM     16  C   UNL     1      32.759 -23.135 -14.805  0.00  0.00    +0.001 C 
ATOM     17  C   UNL     1      31.178 -23.082 -16.631  0.00  0.00    +0.001 C 
ATOM     18  C   UNL     1      31.705 -23.159 -13.892  0.00  0.00    +0.000 C 
ATOM     19  C   UNL     1      30.124 -23.105 -15.718  0.00  0.00    +0.000 C 
ATOM     20  C   UNL     1      30.387 -23.144 -14.348  0.00  0.00    +0.000 C 
ENDBRANCH   6  15
TORSDOF 1
ENDMDL
MODEL 6
REMARK VINA RESULT:      -8.5      1.795      4.570
REMARK  Name = 2997
REMARK  1 active torsions:
REMARK  status: ('A' for Active; 'I' for Inactive)
REMARK    1  A    between atoms: C_6  and  C_15
REMARK                            x       y       z     vdW  Elec       q    Type
REMARK                         _______ _______ _______ _____ _____    ______ ____
ROOT
ATOM      1 CL   UNL     1      35.329 -10.062 -25.586  0.00  0.00    -0.082 Cl
ATOM      2  O   UNL     1      30.349 -10.773 -19.265  0.00  0.00    -0.273 OA
ATOM      3  N   UNL     1      31.441 -11.157 -21.240  0.00  0.00    -0.282 N 
ATOM      4  N   UNL     1      31.881  -8.233 -20.627  0.00  0.00    -0.261 NA
ATOM      5  C   UNL     1      32.760  -9.503 -22.554  0.00  0.00    +0.032 C 
ATOM      6  C   UNL     1      32.158  -8.310 -21.884  0.00  0.00    +0.078 C 
ATOM      7  C   UNL     1      32.327 -10.811 -22.282  0.00  0.00    +0.052 C 
ATOM      8  C   UNL     1      33.708  -9.285 -23.567  0.00  0.00    +0.014 C 
ATOM      9  C   UNL     1      32.201  -9.352 -19.768  0.00  0.00    +0.210 C 
ATOM     10  C   UNL     1      32.770 -11.861 -23.101  0.00  0.00    +0.016 C 
ATOM     11  C   UNL     1      31.231 -10.464 -20.068  0.00  0.00    +0.251 C 
ATOM     12  C   UNL     1      34.177 -10.346 -24.340  0.00  0.00    +0.058 C 
ATOM     13  C   UNL     1      33.695 -11.632 -24.119  0.00  0.00    +0.013 C 
ATOM     14  H   UNL     1      30.918 -11.983 -21.364  0.00  0.00    +0.155 HD
ENDROOT
BRANCH   6  15
ATOM     15  C   UNL     1      31.811  -7.122 -22.716  0.00  0.00    +0.017 C 
ATOM     16  C   UNL     1      31.351  -7.304 -24.014  0.00  0.00    +0.001 C 
ATOM     17  C   UNL     1      31.951  -5.847 -22.183  0.00  0.00    +0.001 C 
ATOM     18  C   UNL     1      31.025  -6.193 -24.792  0.00  0.00    +0.000 C 
ATOM     19  C   UNL     1      31.625  -4.736 -22.960  0.00  0.00    +0.000 C 
ATOM     20  C   UNL     1      31.163  -4.909 -24.265  0.00  0.00    +0.000 C 
ENDBRANCH   6  15
TORSDOF 1
ENDMDL
MODEL 7
REMARK VINA RESULT:      -8.3     16.114     17.536
REMARK  Name = 2997
REMARK  1 active torsions:
REMARK  status: ('A' for Active; 'I' for Inactive)
REMARK    1  A    between atoms: C_6  and  C_15
REMARK                            x       y       z     vdW  Elec       q    Type
REMARK                         _______ _______ _______ _____ _____    ______ ____
ROOT
ATOM      1 CL   UNL     1      37.168 -20.844 -17.408  0.00  0.00    -0.082 Cl
ATOM      2  O   UNL     1      36.687 -26.403 -11.566  0.00  0.00    -0.273 OA
ATOM      3  N   UNL     1      37.263 -25.293 -13.483  0.00  0.00    -0.282 N 
ATOM      4  N   UNL     1      34.680 -24.029 -12.561  0.00  0.00    -0.261 NA
ATOM      5  C   UNL     1      36.028 -23.401 -14.532  0.00  0.00    +0.032 C 
ATOM      6  C   UNL     1      34.755 -23.665 -13.795  0.00  0.00    +0.078 C 
ATOM      7  C   UNL     1      37.146 -24.245 -14.420  0.00  0.00    +0.052 C 
ATOM      8  C   UNL     1      36.055 -22.336 -15.447  0.00  0.00    +0.014 C 
ATOM      9  C   UNL     1      35.898 -24.160 -11.793  0.00  0.00    +0.210 C 
ATOM     10  C   UNL     1      38.224 -24.071 -15.301  0.00  0.00    +0.016 C 
ATOM     11  C   UNL     1      36.621 -25.393 -12.268  0.00  0.00    +0.251 C 
ATOM     12  C   UNL     1      37.155 -22.146 -16.283  0.00  0.00    +0.058 C 
ATOM     13  C   UNL     1      38.232 -23.024 -16.222  0.00  0.00    +0.013 C 
ATOM     14  H   UNL     1      37.868 -26.032 -13.725  0.00  0.00    +0.155 HD
ENDROOT
BRANCH   6  15
ATOM     15  C   UNL     1      33.464 -23.541 -14.533  0.00  0.00    +0.017 C 
ATOM     16  C   UNL     1      32.274 -23.457 -13.823  0.00  0.00    +0.001 C 
ATOM     17  C   UNL     1      33.469 -23.509 -15.921  0.00  0.00    +0.001 C 
ATOM     18  C   UNL     1      31.067 -23.340 -14.513  0.00  0.00    +0.000 C 
ATOM     19  C   UNL     1      32.263 -23.391 -16.611  0.00  0.00    +0.000 C 
ATOM     20  C   UNL     1      31.061 -23.308 -15.907  0.00  0.00    +0.000 C 
ENDBRANCH   6  15
TORSDOF 1
ENDMDL
MODEL 8
REMARK VINA RESULT:      -8.1     14.450     16.321
REMARK  Name = 2997
REMARK  1 active torsions:
REMARK  status: ('A' for Active; 'I' for Inactive)
REMARK    1  A    between atoms: C_6  and  C_15
REMARK                            x       y       z     vdW  Elec       q    Type
REMARK                         _______ _______ _______ _____ _____    ______ ____
ROOT
ATOM      1 CL   UNL     1      34.378 -23.826 -12.761  0.00  0.00    -0.082 Cl
ATOM      2  O   UNL     1      27.707 -24.261 -17.297  0.00  0.00    -0.273 OA
ATOM      3  N   UNL     1      29.450 -24.807 -15.918  0.00  0.00    -0.282 N 
ATOM      4  N   UNL     1      30.272 -22.243 -17.285  0.00  0.00    -0.261 NA
ATOM      5  C   UNL     1      31.548 -23.506 -15.590  0.00  0.00    +0.032 C 
ATOM      6  C   UNL     1      31.391 -22.706 -16.843  0.00  0.00    +0.078 C 
ATOM      7  C   UNL     1      30.662 -24.540 -15.246  0.00  0.00    +0.052 C 
ATOM      8  C   UNL     1      32.687 -23.279 -14.799  0.00  0.00    +0.014 C 
ATOM      9  C   UNL     1      29.068 -22.462 -16.514  0.00  0.00    +0.210 C 
ATOM     10  C   UNL     1      30.989 -25.394 -14.182  0.00  0.00    +0.016 C 
ATOM     11  C   UNL     1      28.689 -23.914 -16.640  0.00  0.00    +0.251 C 
ATOM     12  C   UNL     1      32.973 -24.107 -13.714  0.00  0.00    +0.058 C 
ATOM     13  C   UNL     1      32.133 -25.175 -13.416  0.00  0.00    +0.013 C 
ATOM     14  H   UNL     1      29.114 -25.731 -15.865  0.00  0.00    +0.155 HD
ENDROOT
BRANCH   6  15
ATOM     15  C   UNL     1      32.598 -22.442 -17.678  0.00  0.00    +0.017 C 
ATOM     16  C   UNL     1      32.484 -21.665 -18.823  0.00  0.00    +0.001 C 
ATOM     17  C   UNL     1      33.823 -22.975 -17.299  0.00  0.00    +0.001 C 
ATOM     18  C   UNL     1      33.613 -21.418 -19.604  0.00  0.00    +0.000 C 
ATOM     19  C   UNL     1      34.952 -22.728 -18.079  0.00  0.00    +0.000 C 
ATOM     20  C   UNL     1      34.847 -21.950 -19.232  0.00  0.00    +0.000 C 
ENDBRANCH   6  15
TORSDOF 1
ENDMDL
MODEL 9
REMARK VINA RESULT:      -8.0      3.158      4.590
REMARK  Name = 2997
REMARK  1 active torsions:
REMARK  status: ('A' for Active; 'I' for Inactive)
REMARK    1  A    between atoms: C_6  and  C_15
REMARK                            x       y       z     vdW  Elec       q    Type
REMARK                         _______ _______ _______ _____ _____    ______ ____
ROOT
ATOM      1 CL   UNL     1      35.563 -11.136 -27.223  0.00  0.00    -0.082 Cl
ATOM      2  O   UNL     1      31.432  -9.598 -20.453  0.00  0.00    -0.273 OA
ATOM      3  N   UNL     1      32.992  -9.517 -22.127  0.00  0.00    -0.282 N 
ATOM      4  N   UNL     1      31.696 -12.235 -22.358  0.00  0.00    -0.261 NA
ATOM      5  C   UNL     1      33.458 -11.293 -23.810  0.00  0.00    +0.032 C 
ATOM      6  C   UNL     1      32.788 -12.378 -23.029  0.00  0.00    +0.078 C 
ATOM      7  C   UNL     1      33.606  -9.991 -23.305  0.00  0.00    +0.052 C 
ATOM      8  C   UNL     1      34.051 -11.631 -25.038  0.00  0.00    +0.014 C 
ATOM      9  C   UNL     1      31.023 -10.955 -22.375  0.00  0.00    +0.210 C 
ATOM     10  C   UNL     1      34.435  -9.085 -23.985  0.00  0.00    +0.016 C 
ATOM     11  C   UNL     1      31.833  -9.990 -21.550  0.00  0.00    +0.251 C 
ATOM     12  C   UNL     1      34.832 -10.704 -25.727  0.00  0.00    +0.058 C 
ATOM     13  C   UNL     1      35.038  -9.437 -25.192  0.00  0.00    +0.013 C 
ATOM     14  H   UNL     1      33.439  -8.769 -21.669  0.00  0.00    +0.155 HD
ENDROOT
BRANCH   6  15
ATOM     15  C   UNL     1      33.431 -13.722 -22.978  0.00  0.00    +0.017 C 
ATOM     16  C   UNL     1      33.401 -14.541 -24.099  0.00  0.00    +0.001 C 
ATOM     17  C   UNL     1      34.055 -14.139 -21.809  0.00  0.00    +0.001 C 
ATOM     18  C   UNL     1      34.003 -15.798 -24.051  0.00  0.00    +0.000 C 
ATOM     19  C   UNL     1      34.657 -15.396 -21.760  0.00  0.00    +0.000 C 
ATOM     20  C   UNL     1      34.631 -16.226 -22.881  0.00  0.00    +0.000 C 
ENDBRANCH   6  15
TORSDOF 1
ENDMDL
