MODEL 1
REMARK VINA RESULT:      -8.3      0.000      0.000
REMARK  Name = 5365247
REMARK  4 active torsions:
REMARK  status: ('A' for Active; 'I' for Inactive)
REMARK    1  A    between atoms: C_1  and  C_4
REMARK    2  A    between atoms: C_1  and  C_11
REMARK    3  A    between atoms: C_2  and  C_16
REMARK    4  A    between atoms: C_16  and  N_17
REMARK                            x       y       z     vdW  Elec       q    Type
REMARK                         _______ _______ _______ _____ _____    ______ ____
ROOT
ATOM      1  C   UNL     1      34.553 -18.168 -21.803  0.00  0.00    -0.005 C 
ATOM      2  C   UNL     1      35.175 -18.352 -22.989  0.00  0.00    -0.049 C 
ENDROOT
BRANCH   1   4
ATOM      3 BR   UNL     1      33.634 -23.105 -18.280  0.00  0.00    -0.049 Br
ATOM      4  C   UNL     1      34.331 -19.365 -20.949  0.00  0.00    -0.000 C 
ATOM      5  C   UNL     1      35.423 -20.093 -20.526  0.00  0.00    +0.000 C 
ATOM      6  C   UNL     1      33.039 -19.707 -20.607  0.00  0.00    +0.000 C 
ATOM      7  C   UNL     1      35.213 -21.215 -19.724  0.00  0.00    +0.007 C 
ATOM      8  C   UNL     1      32.830 -20.829 -19.806  0.00  0.00    +0.007 C 
ATOM      9  C   UNL     1      33.917 -21.584 -19.365  0.00  0.00    +0.035 C 
ENDBRANCH   1   4
BRANCH   1  11
ATOM     10  N   UNL     1      34.637 -14.766 -20.264  0.00  0.00    -0.242 NA
ATOM     11  C   UNL     1      34.119 -16.816 -21.387  0.00  0.00    +0.019 C 
ATOM     12  C   UNL     1      32.862 -16.364 -21.717  0.00  0.00    +0.003 C 
ATOM     13  C   UNL     1      34.970 -16.011 -20.673  0.00  0.00    +0.099 C 
ATOM     14  C   UNL     1      32.483 -15.089 -21.313  0.00  0.00    +0.021 C 
ATOM     15  C   UNL     1      33.398 -14.337 -20.595  0.00  0.00    +0.099 C 
ENDBRANCH   1  11
BRANCH   2  16
ATOM     16  C   UNL     1      35.489 -17.323 -24.039  0.00  0.00    -0.050 C 
BRANCH  16  17
ATOM     17  N   UNL     1      34.682 -17.529 -25.241  0.00  0.00    +0.387 N 
ATOM     18  C   UNL     1      33.769 -16.405 -25.443  0.00  0.00    -0.100 C 
ATOM     19  C   UNL     1      33.937 -18.784 -25.148  0.00  0.00    -0.100 C 
ATOM     20  H   UNL     1      35.309 -17.586 -26.045  0.00  0.00    -0.079 HD
ENDBRANCH  16  17
ENDBRANCH   2  16
TORSDOF 4
ENDMDL
MODEL 2
REMARK VINA RESULT:      -8.2      6.689     10.107
REMARK  Name = 5365247
REMARK  4 active torsions:
REMARK  status: ('A' for Active; 'I' for Inactive)
REMARK    1  A    between atoms: C_1  and  C_4
REMARK    2  A    between atoms: C_1  and  C_11
REMARK    3  A    between atoms: C_2  and  C_16
REMARK    4  A    between atoms: C_16  and  N_17
REMARK                            x       y       z     vdW  Elec       q    Type
REMARK                         _______ _______ _______ _____ _____    ______ ____
ROOT
ATOM      1  C   UNL     1      34.676 -23.851 -15.363  0.00  0.00    -0.005 C 
ATOM      2  C   UNL     1      33.372 -23.784 -15.011  0.00  0.00    -0.049 C 
ENDROOT
BRANCH   1   4
ATOM      3 BR   UNL     1      36.482 -20.548 -20.206  0.00  0.00    -0.049 Br
ATOM      4  C   UNL     1      35.114 -23.051 -16.536  0.00  0.00    -0.000 C 
ATOM      5  C   UNL     1      36.362 -22.465 -16.515  0.00  0.00    +0.000 C 
ATOM      6  C   UNL     1      34.257 -22.920 -17.609  0.00  0.00    +0.000 C 
ATOM      7  C   UNL     1      36.773 -21.715 -17.616  0.00  0.00    +0.007 C 
ATOM      8  C   UNL     1      34.667 -22.169 -18.710  0.00  0.00    +0.007 C 
ATOM      9  C   UNL     1      35.926 -21.566 -18.714  0.00  0.00    +0.035 C 
ENDBRANCH   1   4
BRANCH   1  11
ATOM     10  N   UNL     1      36.858 -25.042 -12.576  0.00  0.00    -0.242 NA
ATOM     11  C   UNL     1      35.616 -24.695 -14.593  0.00  0.00    +0.019 C 
ATOM     12  C   UNL     1      36.103 -25.860 -15.140  0.00  0.00    +0.003 C 
ATOM     13  C   UNL     1      36.003 -24.317 -13.332  0.00  0.00    +0.099 C 
ATOM     14  C   UNL     1      36.985 -26.631 -14.392  0.00  0.00    +0.021 C 
ATOM     15  C   UNL     1      37.328 -26.183 -13.127  0.00  0.00    +0.099 C 
ENDBRANCH   1  11
BRANCH   2  16
ATOM     16  C   UNL     1      32.676 -24.511 -13.894  0.00  0.00    -0.050 C 
BRANCH  16  17
ATOM     17  N   UNL     1      31.255 -24.169 -13.843  0.00  0.00    +0.387 N 
ATOM     18  C   UNL     1      30.452 -25.230 -14.448  0.00  0.00    -0.100 C 
ATOM     19  C   UNL     1      31.012 -22.894 -14.519  0.00  0.00    -0.100 C 
ATOM     20  H   UNL     1      30.981 -24.072 -12.865  0.00  0.00    -0.079 HD
ENDBRANCH  16  17
ENDBRANCH   2  16
TORSDOF 4
ENDMDL
MODEL 3
REMARK VINA RESULT:      -8.1      6.703     10.180
REMARK  Name = 5365247
REMARK  4 active torsions:
REMARK  status: ('A' for Active; 'I' for Inactive)
REMARK    1  A    between atoms: C_1  and  C_4
REMARK    2  A    between atoms: C_1  and  C_11
REMARK    3  A    between atoms: C_2  and  C_16
REMARK    4  A    between atoms: C_16  and  N_17
REMARK                            x       y       z     vdW  Elec       q    Type
REMARK                         _______ _______ _______ _____ _____    ______ ____
ROOT
ATOM      1  C   UNL     1      34.623 -23.832 -15.327  0.00  0.00    -0.005 C 
ATOM      2  C   UNL     1      33.313 -23.778 -14.998  0.00  0.00    -0.049 C 
ENDROOT
BRANCH   1   4
ATOM      3 BR   UNL     1      36.469 -20.602 -20.204  0.00  0.00    -0.049 Br
ATOM      4  C   UNL     1      35.070 -23.049 -16.509  0.00  0.00    -0.000 C 
ATOM      5  C   UNL     1      34.214 -22.916 -17.582  0.00  0.00    +0.000 C 
ATOM      6  C   UNL     1      36.327 -22.482 -16.493  0.00  0.00    +0.000 C 
ATOM      7  C   UNL     1      34.633 -22.180 -18.690  0.00  0.00    +0.007 C 
ATOM      8  C   UNL     1      36.747 -21.747 -17.602  0.00  0.00    +0.007 C 
ATOM      9  C   UNL     1      35.900 -21.597 -18.701  0.00  0.00    +0.035 C 
ENDBRANCH   1   4
BRANCH   1  11
ATOM     10  N   UNL     1      36.919 -26.610 -14.347  0.00  0.00    -0.242 NA
ATOM     11  C   UNL     1      35.563 -24.646 -14.523  0.00  0.00    +0.019 C 
ATOM     12  C   UNL     1      35.941 -24.223 -13.269  0.00  0.00    +0.003 C 
ATOM     13  C   UNL     1      36.058 -25.821 -15.028  0.00  0.00    +0.099 C 
ATOM     14  C   UNL     1      36.824 -25.009 -12.538  0.00  0.00    +0.021 C 
ATOM     15  C   UNL     1      37.280 -26.183 -13.116  0.00  0.00    +0.099 C 
ENDBRANCH   1  11
BRANCH   2  16
ATOM     16  C   UNL     1      32.608 -24.493 -13.878  0.00  0.00    -0.050 C 
BRANCH  16  17
ATOM     17  N   UNL     1      31.177 -24.196 -13.879  0.00  0.00    +0.387 N 
ATOM     18  C   UNL     1      30.430 -25.281 -14.515  0.00  0.00    -0.100 C 
ATOM     19  C   UNL     1      30.917 -22.928 -14.560  0.00  0.00    -0.100 C 
ATOM     20  H   UNL     1      30.864 -24.112 -12.911  0.00  0.00    -0.079 HD
ENDBRANCH  16  17
ENDBRANCH   2  16
TORSDOF 4
ENDMDL
MODEL 4
REMARK VINA RESULT:      -7.8      3.412      5.982
REMARK  Name = 5365247
REMARK  4 active torsions:
REMARK  status: ('A' for Active; 'I' for Inactive)
REMARK    1  A    between atoms: C_1  and  C_4
REMARK    2  A    between atoms: C_1  and  C_11
REMARK    3  A    between atoms: C_2  and  C_16
REMARK    4  A    between atoms: C_16  and  N_17
REMARK                            x       y       z     vdW  Elec       q    Type
REMARK                         _______ _______ _______ _____ _____    ______ ____
ROOT
ATOM      1  C   UNL     1      33.198 -13.970 -22.955  0.00  0.00    -0.005 C 
ATOM      2  C   UNL     1      32.390 -13.360 -22.060  0.00  0.00    -0.049 C 
ENDROOT
BRANCH   1   4
ATOM      3 BR   UNL     1      36.279 -18.931 -21.078  0.00  0.00    -0.049 Br
ATOM      4  C   UNL     1      33.945 -15.172 -22.501  0.00  0.00    -0.000 C 
ATOM      5  C   UNL     1      34.589 -15.950 -23.439  0.00  0.00    +0.000 C 
ATOM      6  C   UNL     1      33.969 -15.470 -21.154  0.00  0.00    +0.000 C 
ATOM      7  C   UNL     1      35.291 -17.078 -23.012  0.00  0.00    +0.007 C 
ATOM      8  C   UNL     1      34.670 -16.598 -20.727  0.00  0.00    +0.007 C 
ATOM      9  C   UNL     1      35.330 -17.403 -21.656  0.00  0.00    +0.035 C 
ENDBRANCH   1   4
BRANCH   1  11
ATOM     10  N   UNL     1      34.029 -11.680 -25.786  0.00  0.00    -0.242 NA
ATOM     11  C   UNL     1      33.319 -13.445 -24.333  0.00  0.00    +0.019 C 
ATOM     12  C   UNL     1      32.860 -14.189 -25.396  0.00  0.00    +0.003 C 
ATOM     13  C   UNL     1      33.889 -12.217 -24.553  0.00  0.00    +0.099 C 
ATOM     14  C   UNL     1      32.987 -13.670 -26.679  0.00  0.00    +0.021 C 
ATOM     15  C   UNL     1      33.573 -12.423 -26.819  0.00  0.00    +0.099 C 
ENDBRANCH   1  11
BRANCH   2  16
ATOM     16  C   UNL     1      31.557 -12.123 -22.256  0.00  0.00    -0.050 C 
BRANCH  16  17
ATOM     17  N   UNL     1      31.951 -11.066 -21.325  0.00  0.00    +0.387 N 
ATOM     18  C   UNL     1      31.111 -11.100 -20.129  0.00  0.00    -0.100 C 
ATOM     19  C   UNL     1      31.867  -9.757 -21.973  0.00  0.00    -0.100 C 
ATOM     20  H   UNL     1      32.919 -11.227 -21.046  0.00  0.00    -0.079 HD
ENDBRANCH  16  17
ENDBRANCH   2  16
TORSDOF 4
ENDMDL
MODEL 5
REMARK VINA RESULT:      -7.8      3.413      6.010
REMARK  Name = 5365247
REMARK  4 active torsions:
REMARK  status: ('A' for Active; 'I' for Inactive)
REMARK    1  A    between atoms: C_1  and  C_4
REMARK    2  A    between atoms: C_1  and  C_11
REMARK    3  A    between atoms: C_2  and  C_16
REMARK    4  A    between atoms: C_16  and  N_17
REMARK                            x       y       z     vdW  Elec       q    Type
REMARK                         _______ _______ _______ _____ _____    ______ ____
ROOT
ATOM      1  C   UNL     1      33.202 -13.966 -22.949  0.00  0.00    -0.005 C 
ATOM      2  C   UNL     1      32.395 -13.354 -22.053  0.00  0.00    -0.049 C 
ENDROOT
BRANCH   1   4
ATOM      3 BR   UNL     1      36.284 -18.928 -21.077  0.00  0.00    -0.049 Br
ATOM      4  C   UNL     1      33.948 -15.168 -22.495  0.00  0.00    -0.000 C 
ATOM      5  C   UNL     1      33.981 -15.462 -21.148  0.00  0.00    +0.000 C 
ATOM      6  C   UNL     1      34.584 -15.951 -23.436  0.00  0.00    +0.000 C 
ATOM      7  C   UNL     1      34.682 -16.591 -20.722  0.00  0.00    +0.007 C 
ATOM      8  C   UNL     1      35.285 -17.079 -23.011  0.00  0.00    +0.007 C 
ATOM      9  C   UNL     1      35.334 -17.399 -21.653  0.00  0.00    +0.035 C 
ENDBRANCH   1   4
BRANCH   1  11
ATOM     10  N   UNL     1      34.030 -11.678 -25.783  0.00  0.00    -0.242 NA
ATOM     11  C   UNL     1      33.322 -13.442 -24.328  0.00  0.00    +0.019 C 
ATOM     12  C   UNL     1      32.863 -14.187 -25.390  0.00  0.00    +0.003 C 
ATOM     13  C   UNL     1      33.890 -12.214 -24.549  0.00  0.00    +0.099 C 
ATOM     14  C   UNL     1      32.988 -13.669 -26.674  0.00  0.00    +0.021 C 
ATOM     15  C   UNL     1      33.574 -12.421 -26.815  0.00  0.00    +0.099 C 
ENDBRANCH   1  11
BRANCH   2  16
ATOM     16  C   UNL     1      31.563 -12.116 -22.250  0.00  0.00    -0.050 C 
BRANCH  16  17
ATOM     17  N   UNL     1      31.957 -11.060 -21.319  0.00  0.00    +0.387 N 
ATOM     18  C   UNL     1      31.122 -11.099 -20.119  0.00  0.00    -0.100 C 
ATOM     19  C   UNL     1      31.868  -9.750 -21.963  0.00  0.00    -0.100 C 
ATOM     20  H   UNL     1      32.927 -11.218 -21.043  0.00  0.00    -0.079 HD
ENDBRANCH  16  17
ENDBRANCH   2  16
TORSDOF 4
ENDMDL
MODEL 6
REMARK VINA RESULT:      -7.8      7.012     10.153
REMARK  Name = 5365247
REMARK  4 active torsions:
REMARK  status: ('A' for Active; 'I' for Inactive)
REMARK    1  A    between atoms: C_1  and  C_4
REMARK    2  A    between atoms: C_1  and  C_11
REMARK    3  A    between atoms: C_2  and  C_16
REMARK    4  A    between atoms: C_16  and  N_17
REMARK                            x       y       z     vdW  Elec       q    Type
REMARK                         _______ _______ _______ _____ _____    ______ ____
ROOT
ATOM      1  C   UNL     1      34.269 -23.553 -14.824  0.00  0.00    -0.005 C 
ATOM      2  C   UNL     1      35.191 -23.820 -13.873  0.00  0.00    -0.049 C 
ENDROOT
BRANCH   1   4
ATOM      3 BR   UNL     1      36.268 -21.245 -20.145  0.00  0.00    -0.049 Br
ATOM      4  C   UNL     1      34.753 -22.993 -16.114  0.00  0.00    -0.000 C 
ATOM      5  C   UNL     1      33.911 -23.014 -17.206  0.00  0.00    +0.000 C 
ATOM      6  C   UNL     1      36.028 -22.472 -16.175  0.00  0.00    +0.000 C 
ATOM      7  C   UNL     1      34.366 -22.488 -18.416  0.00  0.00    +0.007 C 
ATOM      8  C   UNL     1      36.483 -21.947 -17.385  0.00  0.00    +0.007 C 
ATOM      9  C   UNL     1      35.652 -21.956 -18.506  0.00  0.00    +0.035 C 
ENDBRANCH   1   4
BRANCH   1  11
ATOM     10  N   UNL     1      31.105 -25.410 -14.125  0.00  0.00    -0.242 NA
ATOM     11  C   UNL     1      32.835 -23.817 -14.572  0.00  0.00    +0.019 C 
ATOM     12  C   UNL     1      31.936 -22.775 -14.548  0.00  0.00    +0.003 C 
ATOM     13  C   UNL     1      32.400 -25.100 -14.361  0.00  0.00    +0.099 C 
ATOM     14  C   UNL     1      30.596 -23.054 -14.309  0.00  0.00    +0.021 C 
ATOM     15  C   UNL     1      30.235 -24.376 -14.105  0.00  0.00    +0.099 C 
ENDBRANCH   1  11
BRANCH   2  16
ATOM     16  C   UNL     1      34.963 -24.357 -12.486  0.00  0.00    -0.050 C 
BRANCH  16  17
ATOM     17  N   UNL     1      36.222 -24.492 -11.757  0.00  0.00    +0.387 N 
ATOM     18  C   UNL     1      36.921 -23.209 -11.702  0.00  0.00    -0.100 C 
ATOM     19  C   UNL     1      37.068 -25.510 -12.380  0.00  0.00    -0.100 C 
ATOM     20  H   UNL     1      36.012 -24.787 -10.802  0.00  0.00    -0.079 HD
ENDBRANCH  16  17
ENDBRANCH   2  16
TORSDOF 4
ENDMDL
MODEL 7
REMARK VINA RESULT:      -7.7      8.837     11.241
REMARK  Name = 5365247
REMARK  4 active torsions:
REMARK  status: ('A' for Active; 'I' for Inactive)
REMARK    1  A    between atoms: C_1  and  C_4
REMARK    2  A    between atoms: C_1  and  C_11
REMARK    3  A    between atoms: C_2  and  C_16
REMARK    4  A    between atoms: C_16  and  N_17
REMARK                            x       y       z     vdW  Elec       q    Type
REMARK                         _______ _______ _______ _____ _____    ______ ____
ROOT
ATOM      1  C   UNL     1      32.402  -8.781 -22.825  0.00  0.00    -0.005 C 
ATOM      2  C   UNL     1      33.064  -9.499 -23.760  0.00  0.00    -0.049 C 
ENDROOT
BRANCH   1   4
ATOM      3 BR   UNL     1      31.082  -2.936 -24.134  0.00  0.00    -0.049 Br
ATOM      4  C   UNL     1      32.082  -7.365 -23.143  0.00  0.00    -0.000 C 
ATOM      5  C   UNL     1      32.683  -6.775 -24.235  0.00  0.00    +0.000 C 
ATOM      6  C   UNL     1      31.195  -6.686 -22.334  0.00  0.00    +0.000 C 
ATOM      7  C   UNL     1      32.382  -5.446 -24.533  0.00  0.00    +0.007 C 
ATOM      8  C   UNL     1      30.895  -5.357 -22.631  0.00  0.00    +0.007 C 
ATOM      9  C   UNL     1      31.489  -4.737 -23.731  0.00  0.00    +0.035 C 
ENDBRANCH   1   4
BRANCH   1  11
ATOM     10  N   UNL     1      32.184  -9.414 -19.150  0.00  0.00    -0.242 NA
ATOM     11  C   UNL     1      32.017  -9.403 -21.538  0.00  0.00    +0.019 C 
ATOM     12  C   UNL     1      31.177 -10.493 -21.524  0.00  0.00    +0.003 C 
ATOM     13  C   UNL     1      32.496  -8.893 -20.358  0.00  0.00    +0.099 C 
ATOM     14  C   UNL     1      30.834 -11.056 -20.301  0.00  0.00    +0.021 C 
ATOM     15  C   UNL     1      31.358 -10.485 -19.153  0.00  0.00    +0.099 C 
ENDBRANCH   1  11
BRANCH   2  16
ATOM     16  C   UNL     1      33.528 -10.927 -23.675  0.00  0.00    -0.050 C 
BRANCH  16  17
ATOM     17  N   UNL     1      34.541 -11.216 -24.688  0.00  0.00    +0.387 N 
ATOM     18  C   UNL     1      35.250  -9.994 -25.064  0.00  0.00    -0.100 C 
ATOM     19  C   UNL     1      33.929 -11.835 -25.862  0.00  0.00    -0.100 C 
ATOM     20  H   UNL     1      35.215 -11.872 -24.292  0.00  0.00    -0.079 HD
ENDBRANCH  16  17
ENDBRANCH   2  16
TORSDOF 4
ENDMDL
MODEL 8
REMARK VINA RESULT:      -7.6      6.559      9.509
REMARK  Name = 5365247
REMARK  4 active torsions:
REMARK  status: ('A' for Active; 'I' for Inactive)
REMARK    1  A    between atoms: C_1  and  C_4
REMARK    2  A    between atoms: C_1  and  C_11
REMARK    3  A    between atoms: C_2  and  C_16
REMARK    4  A    between atoms: C_16  and  N_17
REMARK                            x       y       z     vdW  Elec       q    Type
REMARK                         _______ _______ _______ _____ _____    ______ ____
ROOT
ATOM      1  C   UNL     1      34.163 -23.671 -15.439  0.00  0.00    -0.005 C 
ATOM      2  C   UNL     1      34.600 -24.651 -14.617  0.00  0.00    -0.049 C 
ENDROOT
BRANCH   1   4
ATOM      3 BR   UNL     1      28.150 -22.462 -15.475  0.00  0.00    -0.049 Br
ATOM      4  C   UNL     1      32.706 -23.378 -15.448  0.00  0.00    -0.000 C 
ATOM      5  C   UNL     1      32.072 -23.191 -16.659  0.00  0.00    +0.000 C 
ATOM      6  C   UNL     1      32.036 -23.303 -14.245  0.00  0.00    +0.000 C 
ATOM      7  C   UNL     1      30.704 -22.917 -16.667  0.00  0.00    +0.007 C 
ATOM      8  C   UNL     1      30.668 -23.028 -14.253  0.00  0.00    +0.007 C 
ATOM      9  C   UNL     1      30.003 -22.834 -15.464  0.00  0.00    +0.035 C 
ENDBRANCH   1   4
BRANCH   1  11
ATOM     10  N   UNL     1      35.702 -22.104 -18.460  0.00  0.00    -0.242 NA
ATOM     11  C   UNL     1      35.119 -22.926 -16.289  0.00  0.00    +0.019 C 
ATOM     12  C   UNL     1      36.258 -22.387 -15.735  0.00  0.00    +0.003 C 
ATOM     13  C   UNL     1      34.871 -22.771 -17.629  0.00  0.00    +0.099 C 
ATOM     14  C   UNL     1      37.137 -21.693 -16.559  0.00  0.00    +0.021 C 
ATOM     15  C   UNL     1      36.817 -21.581 -17.902  0.00  0.00    +0.099 C 
ENDBRANCH   1  11
BRANCH   2  16
ATOM     16  C   UNL     1      36.006 -25.157 -14.443  0.00  0.00    -0.050 C 
BRANCH  16  17
ATOM     17  N   UNL     1      36.238 -25.616 -13.075  0.00  0.00    +0.387 N 
ATOM     18  C   UNL     1      35.685 -24.663 -12.115  0.00  0.00    -0.100 C 
ATOM     19  C   UNL     1      37.668 -25.812 -12.837  0.00  0.00    -0.100 C 
ATOM     20  H   UNL     1      35.765 -26.512 -12.951  0.00  0.00    -0.079 HD
ENDBRANCH  16  17
ENDBRANCH   2  16
TORSDOF 4
ENDMDL
MODEL 9
REMARK VINA RESULT:      -7.4      7.667     10.679
REMARK  Name = 5365247
REMARK  4 active torsions:
REMARK  status: ('A' for Active; 'I' for Inactive)
REMARK    1  A    between atoms: C_1  and  C_4
REMARK    2  A    between atoms: C_1  and  C_11
REMARK    3  A    between atoms: C_2  and  C_16
REMARK    4  A    between atoms: C_16  and  N_17
REMARK                            x       y       z     vdW  Elec       q    Type
REMARK                         _______ _______ _______ _____ _____    ______ ____
ROOT
ATOM      1  C   UNL     1      32.580  -9.553 -23.129  0.00  0.00    -0.005 C 
ATOM      2  C   UNL     1      33.250 -10.478 -23.854  0.00  0.00    -0.049 C 
ENDROOT
BRANCH   1   4
ATOM      3 BR   UNL     1      32.053  -3.922 -25.502  0.00  0.00    -0.049 Br
ATOM      4  C   UNL     1      32.452  -8.189 -23.704  0.00  0.00    -0.000 C 
ATOM      5  C   UNL     1      31.193  -7.647 -23.859  0.00  0.00    +0.000 C 
ATOM      6  C   UNL     1      33.597  -7.509 -24.064  0.00  0.00    +0.000 C 
ATOM      7  C   UNL     1      31.073  -6.366 -24.398  0.00  0.00    +0.007 C 
ATOM      8  C   UNL     1      33.477  -6.228 -24.603  0.00  0.00    +0.007 C 
ATOM      9  C   UNL     1      32.215  -5.657 -24.771  0.00  0.00    +0.035 C 
ENDBRANCH   1   4
BRANCH   1  11
ATOM     10  N   UNL     1      30.533 -11.312 -20.547  0.00  0.00    -0.242 NA
ATOM     11  C   UNL     1      32.002  -9.909 -21.814  0.00  0.00    +0.019 C 
ATOM     12  C   UNL     1      32.372  -9.210 -20.687  0.00  0.00    +0.003 C 
ATOM     13  C   UNL     1      31.098 -10.936 -21.716  0.00  0.00    +0.099 C 
ATOM     14  C   UNL     1      31.811  -9.567 -19.467  0.00  0.00    +0.021 C 
ATOM     15  C   UNL     1      30.906 -10.615 -19.449  0.00  0.00    +0.099 C 
ENDBRANCH   1  11
BRANCH   2  16
ATOM     16  C   UNL     1      33.543 -11.907 -23.489  0.00  0.00    -0.050 C 
BRANCH  16  17
ATOM     17  N   UNL     1      33.907 -12.691 -24.668  0.00  0.00    +0.387 N 
ATOM     18  C   UNL     1      33.805 -11.874 -25.876  0.00  0.00    -0.100 C 
ATOM     19  C   UNL     1      33.058 -13.876 -24.777  0.00  0.00    -0.100 C 
ATOM     20  H   UNL     1      34.876 -12.996 -24.565  0.00  0.00    -0.079 HD
ENDBRANCH  16  17
ENDBRANCH   2  16
TORSDOF 4
ENDMDL
