MODEL 1
REMARK VINA RESULT:      -8.8      0.000      0.000
REMARK  Name = 86294073
REMARK  5 active torsions:
REMARK  status: ('A' for Active; 'I' for Inactive)
REMARK    1  A    between atoms: C_9  and  C_23
REMARK    2  A    between atoms: C_17  and  O_20
REMARK    3  A    between atoms: C_23  and  C_24
REMARK    4  A    between atoms: C_24  and  N_25
REMARK    5  A    between atoms: C_28  and  C_31
REMARK                            x       y       z     vdW  Elec       q    Type
REMARK                         _______ _______ _______ _____ _____    ______ ____
ROOT
ATOM      1  C   UNL     1      34.874 -16.859 -23.487  0.00  0.00    +0.000 C 
ATOM      2  C   UNL     1      33.750 -15.895 -23.873  0.00  0.00    +0.000 C 
ATOM      3  C   UNL     1      34.717 -17.418 -22.056  0.00  0.00    +0.007 C 
ATOM      4  C   UNL     1      33.758 -14.693 -22.881  0.00  0.00    +0.000 C 
ATOM      5  C   UNL     1      32.597 -13.716 -23.228  0.00  0.00    +0.000 C 
ATOM      6  C   UNL     1      34.786 -16.236 -21.080  0.00  0.00    +0.000 C 
ATOM      7  C   UNL     1      32.678 -13.237 -24.699  0.00  0.00    +0.002 C 
ATOM      8  C   UNL     1      33.731 -15.164 -21.405  0.00  0.00    +0.000 C 
ATOM      9  C   UNL     1      35.941 -18.361 -22.021  0.00  0.00    +0.059 C 
ATOM     10  C   UNL     1      35.107 -18.107 -24.331  0.00  0.00    +0.000 C 
ATOM     11  C   UNL     1      33.884 -15.407 -25.319  0.00  0.00    +0.000 C 
ATOM     12  C   UNL     1      32.776 -14.420 -25.672  0.00  0.00    +0.000 C 
ATOM     13  C   UNL     1      35.961 -19.009 -23.422  0.00  0.00    +0.007 C 
ATOM     14  C   UNL     1      32.497 -12.492 -22.298  0.00  0.00    +0.002 C 
ATOM     15  C   UNL     1      33.827 -12.233 -24.915  0.00  0.00    +0.027 C 
ATOM     16  C   UNL     1      33.402 -18.207 -21.829  0.00  0.00    +0.000 C 
ATOM     17  C   UNL     1      33.778 -11.035 -23.952  0.00  0.00    +0.088 C 
ATOM     18  C   UNL     1      33.643 -11.504 -22.495  0.00  0.00    +0.027 C 
ATOM     19  C   UNL     1      32.662 -10.055 -24.333  0.00  0.00    +0.029 C 
ENDROOT
BRANCH  17  20
ATOM     20  O   UNL     1      35.003 -10.304 -24.078  0.00  0.00    -0.387 OA
ATOM     21  H   UNL     1      35.723 -10.916 -24.299  0.00  0.00    +0.210 HD
ENDBRANCH  17  20
BRANCH   9  23
ATOM     22  O   UNL     1      36.425 -19.140 -19.830  0.00  0.00    -0.294 OA
ATOM     23  C   UNL     1      35.910 -19.376 -20.922  0.00  0.00    +0.172 C 
BRANCH  23  24
ATOM     24  C   UNL     1      35.214 -20.684 -21.245  0.00  0.00    +0.180 C 
BRANCH  24  25
ATOM     25  N   UNL     1      34.571 -21.332 -20.046  0.00  0.00    -0.202 N 
ATOM     26  N   UNL     1      33.247 -21.203 -19.849  0.00  0.00    -0.175 NA
ATOM     27  C   UNL     1      35.202 -22.069 -19.089  0.00  0.00    +0.096 C 
ATOM     28  C   UNL     1      34.225 -22.451 -18.204  0.00  0.00    +0.105 C 
ATOM     29  C   UNL     1      33.042 -21.889 -18.721  0.00  0.00    +0.129 C 
BRANCH  28  31
ATOM     30  N   UNL     1      34.547 -23.880 -16.080  0.00  0.00    -0.191 NA
ATOM     31  C   UNL     1      34.403 -23.237 -17.035  0.00  0.00    +0.103 C 
ENDBRANCH  28  31
ENDBRANCH  24  25
ENDBRANCH  23  24
ENDBRANCH   9  23
TORSDOF 5
ENDMDL
MODEL 2
REMARK VINA RESULT:      -8.8      4.512      8.230
REMARK  Name = 86294073
REMARK  5 active torsions:
REMARK  status: ('A' for Active; 'I' for Inactive)
REMARK    1  A    between atoms: C_9  and  C_23
REMARK    2  A    between atoms: C_17  and  O_20
REMARK    3  A    between atoms: C_23  and  C_24
REMARK    4  A    between atoms: C_24  and  N_25
REMARK    5  A    between atoms: C_28  and  C_31
REMARK                            x       y       z     vdW  Elec       q    Type
REMARK                         _______ _______ _______ _____ _____    ______ ____
ROOT
ATOM      1  C   UNL     1      34.881 -22.461 -16.789  0.00  0.00    +0.000 C 
ATOM      2  C   UNL     1      35.276 -22.301 -18.258  0.00  0.00    +0.000 C 
ATOM      3  C   UNL     1      33.500 -23.128 -16.610  0.00  0.00    +0.007 C 
ATOM      4  C   UNL     1      34.214 -21.409 -18.968  0.00  0.00    +0.000 C 
ATOM      5  C   UNL     1      34.571 -21.262 -20.477  0.00  0.00    +0.000 C 
ATOM      6  C   UNL     1      32.450 -22.215 -17.258  0.00  0.00    +0.000 C 
ATOM      7  C   UNL     1      36.002 -20.701 -20.669  0.00  0.00    +0.002 C 
ATOM      8  C   UNL     1      32.774 -21.932 -18.736  0.00  0.00    +0.000 C 
ATOM      9  C   UNL     1      33.447 -23.183 -15.067  0.00  0.00    +0.059 C 
ATOM     10  C   UNL     1      35.784 -23.263 -15.859  0.00  0.00    +0.000 C 
ATOM     11  C   UNL     1      36.678 -21.703 -18.414  0.00  0.00    +0.000 C 
ATOM     12  C   UNL     1      37.038 -21.517 -19.884  0.00  0.00    +0.000 C 
ATOM     13  C   UNL     1      34.881 -23.576 -14.651  0.00  0.00    +0.007 C 
ATOM     14  C   UNL     1      33.575 -20.410 -21.286  0.00  0.00    +0.002 C 
ATOM     15  C   UNL     1      36.085 -19.202 -20.319  0.00  0.00    +0.027 C 
ATOM     16  C   UNL     1      33.403 -24.550 -17.221  0.00  0.00    +0.000 C 
ATOM     17  C   UNL     1      35.054 -18.343 -21.073  0.00  0.00    +0.088 C 
ATOM     18  C   UNL     1      33.640 -18.927 -20.930  0.00  0.00    +0.027 C 
ATOM     19  C   UNL     1      35.443 -18.166 -22.545  0.00  0.00    +0.029 C 
ENDROOT
BRANCH  17  20
ATOM     20  O   UNL     1      35.059 -17.029 -20.503  0.00  0.00    -0.387 OA
ATOM     21  H   UNL     1      35.835 -16.928 -19.930  0.00  0.00    +0.210 HD
ENDBRANCH  17  20
BRANCH   9  23
ATOM     22  O   UNL     1      32.616 -25.331 -14.486  0.00  0.00    -0.294 OA
ATOM     23  C   UNL     1      32.416 -24.117 -14.515  0.00  0.00    +0.172 C 
BRANCH  23  24
ATOM     24  C   UNL     1      31.139 -23.474 -14.009  0.00  0.00    +0.180 C 
BRANCH  24  25
ATOM     25  N   UNL     1      30.021 -23.489 -15.019  0.00  0.00    -0.202 N 
ATOM     26  N   UNL     1      29.724 -24.627 -15.669  0.00  0.00    -0.175 NA
ATOM     27  C   UNL     1      29.235 -22.431 -15.371  0.00  0.00    +0.096 C 
ATOM     28  C   UNL     1      28.363 -22.911 -16.316  0.00  0.00    +0.105 C 
ATOM     29  C   UNL     1      28.710 -24.267 -16.460  0.00  0.00    +0.129 C 
BRANCH  28  31
ATOM     30  N   UNL     1      26.518 -21.571 -17.525  0.00  0.00    -0.191 NA
ATOM     31  C   UNL     1      27.347 -22.174 -16.982  0.00  0.00    +0.103 C 
ENDBRANCH  28  31
ENDBRANCH  24  25
ENDBRANCH  23  24
ENDBRANCH   9  23
TORSDOF 5
ENDMDL
MODEL 3
REMARK VINA RESULT:      -8.5      3.070      6.091
REMARK  Name = 86294073
REMARK  5 active torsions:
REMARK  status: ('A' for Active; 'I' for Inactive)
REMARK    1  A    between atoms: C_9  and  C_23
REMARK    2  A    between atoms: C_17  and  O_20
REMARK    3  A    between atoms: C_23  and  C_24
REMARK    4  A    between atoms: C_24  and  N_25
REMARK    5  A    between atoms: C_28  and  C_31
REMARK                            x       y       z     vdW  Elec       q    Type
REMARK                         _______ _______ _______ _____ _____    ______ ____
ROOT
ATOM      1  C   UNL     1      35.524 -20.995 -19.041  0.00  0.00    +0.000 C 
ATOM      2  C   UNL     1      35.782 -20.429 -20.440  0.00  0.00    +0.000 C 
ATOM      3  C   UNL     1      34.306 -21.942 -18.994  0.00  0.00    +0.007 C 
ATOM      4  C   UNL     1      34.527 -19.624 -20.893  0.00  0.00    +0.000 C 
ATOM      5  C   UNL     1      34.747 -19.070 -22.331  0.00  0.00    +0.000 C 
ATOM      6  C   UNL     1      33.064 -21.128 -19.383  0.00  0.00    +0.000 C 
ATOM      7  C   UNL     1      36.034 -18.211 -22.417  0.00  0.00    +0.002 C 
ATOM      8  C   UNL     1      33.228 -20.458 -20.759  0.00  0.00    +0.000 C 
ATOM      9  C   UNL     1      34.369 -22.357 -17.508  0.00  0.00    +0.059 C 
ATOM     10  C   UNL     1      36.621 -21.796 -18.349  0.00  0.00    +0.000 C 
ATOM     11  C   UNL     1      37.036 -19.549 -20.481  0.00  0.00    +0.000 C 
ATOM     12  C   UNL     1      37.254 -18.966 -21.873  0.00  0.00    +0.000 C 
ATOM     13  C   UNL     1      35.876 -22.546 -17.230  0.00  0.00    +0.007 C 
ATOM     14  C   UNL     1      33.559 -18.266 -22.892  0.00  0.00    +0.002 C 
ATOM     15  C   UNL     1      35.862 -16.844 -21.724  0.00  0.00    +0.027 C 
ATOM     16  C   UNL     1      34.432 -23.177 -19.923  0.00  0.00    +0.000 C 
ATOM     17  C   UNL     1      34.642 -16.055 -22.229  0.00  0.00    +0.088 C 
ATOM     18  C   UNL     1      33.373 -16.921 -22.196  0.00  0.00    +0.027 C 
ATOM     19  C   UNL     1      34.890 -15.474 -23.625  0.00  0.00    +0.029 C 
ENDROOT
BRANCH  17  20
ATOM     20  O   UNL     1      34.443 -14.931 -21.364  0.00  0.00    -0.387 OA
ATOM     21  H   UNL     1      35.227 -14.811 -20.805  0.00  0.00    +0.210 HD
ENDBRANCH  17  20
BRANCH   9  23
ATOM     22  O   UNL     1      33.447 -24.495 -17.979  0.00  0.00    -0.294 OA
ATOM     23  C   UNL     1      33.569 -23.576 -17.170  0.00  0.00    +0.172 C 
BRANCH  23  24
ATOM     24  C   UNL     1      32.935 -23.594 -15.792  0.00  0.00    +0.180 C 
BRANCH  24  25
ATOM     25  N   UNL     1      31.428 -23.595 -15.827  0.00  0.00    -0.202 N 
ATOM     26  N   UNL     1      30.747 -24.531 -15.144  0.00  0.00    -0.175 NA
ATOM     27  C   UNL     1      30.634 -22.717 -16.504  0.00  0.00    +0.096 C 
ATOM     28  C   UNL     1      29.342 -23.104 -16.245  0.00  0.00    +0.105 C 
ATOM     29  C   UNL     1      29.472 -24.225 -15.403  0.00  0.00    +0.129 C 
BRANCH  28  31
ATOM     30  N   UNL     1      27.195 -21.985 -17.135  0.00  0.00    -0.191 NA
ATOM     31  C   UNL     1      28.161 -22.488 -16.735  0.00  0.00    +0.103 C 
ENDBRANCH  28  31
ENDBRANCH  24  25
ENDBRANCH  23  24
ENDBRANCH   9  23
TORSDOF 5
ENDMDL
MODEL 4
REMARK VINA RESULT:      -8.5      3.345     10.616
REMARK  Name = 86294073
REMARK  5 active torsions:
REMARK  status: ('A' for Active; 'I' for Inactive)
REMARK    1  A    between atoms: C_9  and  C_23
REMARK    2  A    between atoms: C_17  and  O_20
REMARK    3  A    between atoms: C_23  and  C_24
REMARK    4  A    between atoms: C_24  and  N_25
REMARK    5  A    between atoms: C_28  and  C_31
REMARK                            x       y       z     vdW  Elec       q    Type
REMARK                         _______ _______ _______ _____ _____    ______ ____
ROOT
ATOM      1  C   UNL     1      34.401 -21.748 -18.343  0.00  0.00    +0.000 C 
ATOM      2  C   UNL     1      34.707 -23.039 -17.580  0.00  0.00    +0.000 C 
ATOM      3  C   UNL     1      35.573 -21.289 -19.236  0.00  0.00    +0.007 C 
ATOM      4  C   UNL     1      35.945 -22.798 -16.665  0.00  0.00    +0.000 C 
ATOM      5  C   UNL     1      36.303 -24.109 -15.906  0.00  0.00    +0.000 C 
ATOM      6  C   UNL     1      36.772 -20.995 -18.323  0.00  0.00    +0.000 C 
ATOM      7  C   UNL     1      35.095 -24.644 -15.097  0.00  0.00    +0.002 C 
ATOM      8  C   UNL     1      37.141 -22.212 -17.457  0.00  0.00    +0.000 C 
ATOM      9  C   UNL     1      34.926 -20.041 -19.877  0.00  0.00    +0.059 C 
ATOM     10  C   UNL     1      33.202 -21.707 -19.284  0.00  0.00    +0.000 C 
ATOM     11  C   UNL     1      33.507 -23.517 -16.756  0.00  0.00    +0.000 C 
ATOM     12  C   UNL     1      33.844 -24.783 -15.975  0.00  0.00    +0.000 C 
ATOM     13  C   UNL     1      33.473 -20.474 -20.167  0.00  0.00    +0.007 C 
ATOM     14  C   UNL     1      37.527 -23.994 -14.979  0.00  0.00    +0.002 C 
ATOM     15  C   UNL     1      34.814 -23.786 -13.847  0.00  0.00    +0.027 C 
ATOM     16  C   UNL     1      35.983 -22.321 -20.319  0.00  0.00    +0.000 C 
ATOM     17  C   UNL     1      36.044 -23.608 -12.941  0.00  0.00    +0.088 C 
ATOM     18  C   UNL     1      37.260 -23.130 -13.750  0.00  0.00    +0.027 C 
ATOM     19  C   UNL     1      36.356 -24.891 -12.163  0.00  0.00    +0.029 C 
ENDROOT
BRANCH  17  20
ATOM     20  O   UNL     1      35.739 -22.614 -11.956  0.00  0.00    -0.387 OA
ATOM     21  H   UNL     1      36.491 -22.008 -11.865  0.00  0.00    +0.210 HD
ENDBRANCH  17  20
BRANCH   9  23
ATOM     22  O   UNL     1      36.788 -19.136 -21.041  0.00  0.00    -0.294 OA
ATOM     23  C   UNL     1      35.627 -19.538 -21.100  0.00  0.00    +0.172 C 
BRANCH  23  24
ATOM     24  C   UNL     1      34.820 -19.560 -22.384  0.00  0.00    +0.180 C 
BRANCH  24  25
ATOM     25  N   UNL     1      34.744 -18.217 -23.065  0.00  0.00    -0.202 N 
ATOM     26  N   UNL     1      34.947 -18.130 -24.391  0.00  0.00    -0.175 NA
ATOM     27  C   UNL     1      34.481 -17.020 -22.467  0.00  0.00    +0.096 C 
ATOM     28  C   UNL     1      34.513 -16.084 -23.471  0.00  0.00    +0.105 C 
ATOM     29  C   UNL     1      34.804 -16.823 -24.632  0.00  0.00    +0.129 C 
BRANCH  28  31
ATOM     30  N   UNL     1      34.120 -13.547 -23.219  0.00  0.00    -0.191 NA
ATOM     31  C   UNL     1      34.297 -14.688 -23.332  0.00  0.00    +0.103 C 
ENDBRANCH  28  31
ENDBRANCH  24  25
ENDBRANCH  23  24
ENDBRANCH   9  23
TORSDOF 5
ENDMDL
MODEL 5
REMARK VINA RESULT:      -8.4      2.423      3.680
REMARK  Name = 86294073
REMARK  5 active torsions:
REMARK  status: ('A' for Active; 'I' for Inactive)
REMARK    1  A    between atoms: C_9  and  C_23
REMARK    2  A    between atoms: C_17  and  O_20
REMARK    3  A    between atoms: C_23  and  C_24
REMARK    4  A    between atoms: C_24  and  N_25
REMARK    5  A    between atoms: C_28  and  C_31
REMARK                            x       y       z     vdW  Elec       q    Type
REMARK                         _______ _______ _______ _____ _____    ______ ____
ROOT
ATOM      1  C   UNL     1      33.833 -13.527 -22.559  0.00  0.00    +0.000 C 
ATOM      2  C   UNL     1      32.761 -12.442 -22.688  0.00  0.00    +0.000 C 
ATOM      3  C   UNL     1      33.396 -14.694 -21.649  0.00  0.00    +0.007 C 
ATOM      4  C   UNL     1      32.462 -11.864 -21.272  0.00  0.00    +0.000 C 
ATOM      5  C   UNL     1      31.344 -10.784 -21.368  0.00  0.00    +0.000 C 
ATOM      6  C   UNL     1      33.161 -14.130 -20.241  0.00  0.00    +0.000 C 
ATOM      7  C   UNL     1      31.723  -9.664 -22.369  0.00  0.00    +0.002 C 
ATOM      8  C   UNL     1      32.135 -12.982 -20.250  0.00  0.00    +0.000 C 
ATOM      9  C   UNL     1      34.642 -15.597 -21.785  0.00  0.00    +0.059 C 
ATOM     10  C   UNL     1      34.336 -14.228 -23.816  0.00  0.00    +0.000 C 
ATOM     11  C   UNL     1      33.185 -11.328 -23.650  0.00  0.00    +0.000 C 
ATOM     12  C   UNL     1      32.120 -10.239 -23.736  0.00  0.00    +0.000 C 
ATOM     13  C   UNL     1      35.023 -15.496 -23.278  0.00  0.00    +0.007 C 
ATOM     14  C   UNL     1      30.953 -10.152 -20.019  0.00  0.00    +0.002 C 
ATOM     15  C   UNL     1      32.819  -8.736 -21.809  0.00  0.00    +0.027 C 
ATOM     16  C   UNL     1      32.120 -15.430 -22.136  0.00  0.00    +0.000 C 
ATOM     17  C   UNL     1      32.471  -8.145 -20.432  0.00  0.00    +0.088 C 
ATOM     18  C   UNL     1      32.043  -9.248 -19.451  0.00  0.00    +0.027 C 
ATOM     19  C   UNL     1      31.406  -7.049 -20.546  0.00  0.00    +0.029 C 
ENDROOT
BRANCH  17  20
ATOM     20  O   UNL     1      33.640  -7.505 -19.907  0.00  0.00    -0.387 OA
ATOM     21  H   UNL     1      34.143  -7.105 -20.634  0.00  0.00    +0.210 HD
ENDBRANCH  17  20
BRANCH   9  23
ATOM     22  O   UNL     1      33.480 -17.316 -20.627  0.00  0.00    -0.294 OA
ATOM     23  C   UNL     1      34.433 -17.012 -21.344  0.00  0.00    +0.172 C 
BRANCH  23  24
ATOM     24  C   UNL     1      35.457 -18.019 -21.832  0.00  0.00    +0.180 C 
BRANCH  24  25
ATOM     25  N   UNL     1      35.540 -19.253 -20.972  0.00  0.00    -0.202 N 
ATOM     26  N   UNL     1      36.677 -19.530 -20.311  0.00  0.00    -0.175 NA
ATOM     27  C   UNL     1      34.549 -20.170 -20.774  0.00  0.00    +0.096 C 
ATOM     28  C   UNL     1      35.074 -21.111 -19.924  0.00  0.00    +0.105 C 
ATOM     29  C   UNL     1      36.386 -20.667 -19.673  0.00  0.00    +0.129 C 
BRANCH  28  31
ATOM     30  N   UNL     1      33.872 -23.209 -19.025  0.00  0.00    -0.191 NA
ATOM     31  C   UNL     1      34.413 -22.266 -19.429  0.00  0.00    +0.103 C 
ENDBRANCH  28  31
ENDBRANCH  24  25
ENDBRANCH  23  24
ENDBRANCH   9  23
TORSDOF 5
ENDMDL
MODEL 6
REMARK VINA RESULT:      -8.3      2.915      5.697
REMARK  Name = 86294073
REMARK  5 active torsions:
REMARK  status: ('A' for Active; 'I' for Inactive)
REMARK    1  A    between atoms: C_9  and  C_23
REMARK    2  A    between atoms: C_17  and  O_20
REMARK    3  A    between atoms: C_23  and  C_24
REMARK    4  A    between atoms: C_24  and  N_25
REMARK    5  A    between atoms: C_28  and  C_31
REMARK                            x       y       z     vdW  Elec       q    Type
REMARK                         _______ _______ _______ _____ _____    ______ ____
ROOT
ATOM      1  C   UNL     1      32.386 -12.044 -22.503  0.00  0.00    +0.000 C 
ATOM      2  C   UNL     1      32.766 -10.646 -22.009  0.00  0.00    +0.000 C 
ATOM      3  C   UNL     1      33.516 -12.721 -23.307  0.00  0.00    +0.007 C 
ATOM      4  C   UNL     1      33.085  -9.749 -23.242  0.00  0.00    +0.000 C 
ATOM      5  C   UNL     1      33.513  -8.330 -22.766  0.00  0.00    +0.000 C 
ATOM      6  C   UNL     1      33.785 -11.865 -24.552  0.00  0.00    +0.000 C 
ATOM      7  C   UNL     1      32.433  -7.685 -21.861  0.00  0.00    +0.002 C 
ATOM      8  C   UNL     1      34.124 -10.410 -24.182  0.00  0.00    +0.000 C 
ATOM      9  C   UNL     1      32.841 -14.082 -23.589  0.00  0.00    +0.059 C 
ATOM     10  C   UNL     1      31.988 -13.108 -21.486  0.00  0.00    +0.000 C 
ATOM     11  C   UNL     1      31.660 -10.019 -21.153  0.00  0.00    +0.000 C 
ATOM     12  C   UNL     1      32.042  -8.613 -20.702  0.00  0.00    +0.000 C 
ATOM     13  C   UNL     1      32.119 -14.428 -22.269  0.00  0.00    +0.007 C 
ATOM     14  C   UNL     1      33.870  -7.357 -23.906  0.00  0.00    +0.002 C 
ATOM     15  C   UNL     1      31.198  -7.237 -22.666  0.00  0.00    +0.027 C 
ATOM     16  C   UNL     1      34.833 -12.908 -22.509  0.00  0.00    +0.000 C 
ATOM     17  C   UNL     1      31.543  -6.315 -23.848  0.00  0.00    +0.088 C 
ATOM     18  C   UNL     1      32.652  -6.925 -24.718  0.00  0.00    +0.027 C 
ATOM     19  C   UNL     1      31.916  -4.907 -23.369  0.00  0.00    +0.029 C 
ENDROOT
BRANCH  17  20
ATOM     20  O   UNL     1      30.371  -6.158 -24.655  0.00  0.00    -0.387 OA
ATOM     21  H   UNL     1      29.743  -6.871 -24.456  0.00  0.00    +0.210 HD
ENDBRANCH  17  20
BRANCH   9  23
ATOM     22  O   UNL     1      33.753 -15.596 -25.176  0.00  0.00    -0.294 OA
ATOM     23  C   UNL     1      33.782 -15.161 -24.025  0.00  0.00    +0.172 C 
BRANCH  23  24
ATOM     24  C   UNL     1      34.748 -15.667 -22.971  0.00  0.00    +0.180 C 
BRANCH  24  25
ATOM     25  N   UNL     1      34.542 -17.117 -22.617  0.00  0.00    -0.202 N 
ATOM     26  N   UNL     1      35.009 -18.076 -23.435  0.00  0.00    -0.175 NA
ATOM     27  C   UNL     1      33.905 -17.597 -21.511  0.00  0.00    +0.096 C 
ATOM     28  C   UNL     1      33.960 -18.965 -21.611  0.00  0.00    +0.105 C 
ATOM     29  C   UNL     1      34.650 -19.203 -22.814  0.00  0.00    +0.129 C 
BRANCH  28  31
ATOM     30  N   UNL     1      32.992 -20.667 -19.931  0.00  0.00    -0.191 NA
ATOM     31  C   UNL     1      33.427 -19.902 -20.686  0.00  0.00    +0.103 C 
ENDBRANCH  28  31
ENDBRANCH  24  25
ENDBRANCH  23  24
ENDBRANCH   9  23
TORSDOF 5
ENDMDL
MODEL 7
REMARK VINA RESULT:      -8.1      3.045      5.992
REMARK  Name = 86294073
REMARK  5 active torsions:
REMARK  status: ('A' for Active; 'I' for Inactive)
REMARK    1  A    between atoms: C_9  and  C_23
REMARK    2  A    between atoms: C_17  and  O_20
REMARK    3  A    between atoms: C_23  and  C_24
REMARK    4  A    between atoms: C_24  and  N_25
REMARK    5  A    between atoms: C_28  and  C_31
REMARK                            x       y       z     vdW  Elec       q    Type
REMARK                         _______ _______ _______ _____ _____    ______ ____
ROOT
ATOM      1  C   UNL     1      35.647 -20.914 -19.115  0.00  0.00    +0.000 C 
ATOM      2  C   UNL     1      35.838 -20.351 -20.525  0.00  0.00    +0.000 C 
ATOM      3  C   UNL     1      34.441 -21.872 -19.012  0.00  0.00    +0.007 C 
ATOM      4  C   UNL     1      34.557 -19.558 -20.924  0.00  0.00    +0.000 C 
ATOM      5  C   UNL     1      34.709 -19.006 -22.372  0.00  0.00    +0.000 C 
ATOM      6  C   UNL     1      33.176 -21.071 -19.348  0.00  0.00    +0.000 C 
ATOM      7  C   UNL     1      35.983 -18.135 -22.517  0.00  0.00    +0.002 C 
ATOM      8  C   UNL     1      33.273 -20.403 -20.731  0.00  0.00    +0.000 C 
ATOM      9  C   UNL     1      34.573 -22.283 -17.529  0.00  0.00    +0.059 C 
ATOM     10  C   UNL     1      36.781 -21.704 -18.470  0.00  0.00    +0.000 C 
ATOM     11  C   UNL     1      37.081 -19.460 -20.623  0.00  0.00    +0.000 C 
ATOM     12  C   UNL     1      37.233 -18.878 -22.025  0.00  0.00    +0.000 C 
ATOM     13  C   UNL     1      36.093 -22.458 -17.317  0.00  0.00    +0.007 C 
ATOM     14  C   UNL     1      33.490 -18.215 -22.882  0.00  0.00    +0.002 C 
ATOM     15  C   UNL     1      35.829 -16.769 -21.820  0.00  0.00    +0.027 C 
ATOM     16  C   UNL     1      34.537 -23.109 -19.942  0.00  0.00    +0.000 C 
ATOM     17  C   UNL     1      34.581 -15.992 -22.273  0.00  0.00    +0.088 C 
ATOM     18  C   UNL     1      33.322 -16.869 -22.182  0.00  0.00    +0.027 C 
ATOM     19  C   UNL     1      34.761 -15.412 -23.680  0.00  0.00    +0.029 C 
ENDROOT
BRANCH  17  20
ATOM     20  O   UNL     1      34.410 -14.868 -21.403  0.00  0.00    -0.387 OA
ATOM     21  H   UNL     1      35.018 -14.945 -20.650  0.00  0.00    +0.210 HD
ENDBRANCH  17  20
BRANCH   9  23
ATOM     22  O   UNL     1      33.409 -24.295 -18.013  0.00  0.00    -0.294 OA
ATOM     23  C   UNL     1      33.800 -23.508 -17.153  0.00  0.00    +0.172 C 
BRANCH  23  24
ATOM     24  C   UNL     1      33.540 -23.701 -15.672  0.00  0.00    +0.180 C 
BRANCH  24  25
ATOM     25  N   UNL     1      34.722 -24.263 -14.925  0.00  0.00    -0.202 N 
ATOM     26  N   UNL     1      35.459 -25.239 -15.483  0.00  0.00    -0.175 NA
ATOM     27  C   UNL     1      35.155 -23.881 -13.690  0.00  0.00    +0.096 C 
ATOM     28  C   UNL     1      36.252 -24.661 -13.420  0.00  0.00    +0.105 C 
ATOM     29  C   UNL     1      36.393 -25.477 -14.557  0.00  0.00    +0.129 C 
BRANCH  28  31
ATOM     30  N   UNL     1      37.695 -24.596 -11.281  0.00  0.00    -0.191 NA
ATOM     31  C   UNL     1      37.046 -24.625 -12.243  0.00  0.00    +0.103 C 
ENDBRANCH  28  31
ENDBRANCH  24  25
ENDBRANCH  23  24
ENDBRANCH   9  23
TORSDOF 5
ENDMDL
MODEL 8
REMARK VINA RESULT:      -7.9      7.148     12.782
REMARK  Name = 86294073
REMARK  5 active torsions:
REMARK  status: ('A' for Active; 'I' for Inactive)
REMARK    1  A    between atoms: C_9  and  C_23
REMARK    2  A    between atoms: C_17  and  O_20
REMARK    3  A    between atoms: C_23  and  C_24
REMARK    4  A    between atoms: C_24  and  N_25
REMARK    5  A    between atoms: C_28  and  C_31
REMARK                            x       y       z     vdW  Elec       q    Type
REMARK                         _______ _______ _______ _____ _____    ______ ____
ROOT
ATOM      1  C   UNL     1      32.446  -8.907 -21.913  0.00  0.00    +0.000 C 
ATOM      2  C   UNL     1      31.808 -10.297 -21.883  0.00  0.00    +0.000 C 
ATOM      3  C   UNL     1      32.668  -8.381 -23.348  0.00  0.00    +0.007 C 
ATOM      4  C   UNL     1      32.748 -11.296 -22.623  0.00  0.00    +0.000 C 
ATOM      5  C   UNL     1      32.104 -12.713 -22.642  0.00  0.00    +0.000 C 
ATOM      6  C   UNL     1      33.642  -9.335 -24.052  0.00  0.00    +0.000 C 
ATOM      7  C   UNL     1      31.769 -13.203 -21.210  0.00  0.00    +0.002 C 
ATOM      8  C   UNL     1      33.132 -10.788 -24.035  0.00  0.00    +0.000 C 
ATOM      9  C   UNL     1      33.249  -6.989 -23.017  0.00  0.00    +0.059 C 
ATOM     10  C   UNL     1      31.738  -7.749 -21.218  0.00  0.00    +0.000 C 
ATOM     11  C   UNL     1      31.530 -10.771 -20.453  0.00  0.00    +0.000 C 
ATOM     12  C   UNL     1      30.929 -12.172 -20.443  0.00  0.00    +0.000 C 
ATOM     13  C   UNL     1      32.403  -6.498 -21.822  0.00  0.00    +0.007 C 
ATOM     14  C   UNL     1      32.942 -13.783 -23.365  0.00  0.00    +0.002 C 
ATOM     15  C   UNL     1      33.036 -13.594 -20.425  0.00  0.00    +0.027 C 
ATOM     16  C   UNL     1      31.366  -8.257 -24.182  0.00  0.00    +0.000 C 
ATOM     17  C   UNL     1      33.918 -14.617 -21.161  0.00  0.00    +0.088 C 
ATOM     18  C   UNL     1      34.207 -14.160 -22.600  0.00  0.00    +0.027 C 
ATOM     19  C   UNL     1      33.296 -16.017 -21.131  0.00  0.00    +0.029 C 
ENDROOT
BRANCH  17  20
ATOM     20  O   UNL     1      35.164 -14.724 -20.463  0.00  0.00    -0.387 OA
ATOM     21  H   UNL     1      35.036 -14.476 -19.534  0.00  0.00    +0.210 HD
ENDBRANCH  17  20
BRANCH   9  23
ATOM     22  O   UNL     1      34.061  -6.111 -25.070  0.00  0.00    -0.294 OA
ATOM     23  C   UNL     1      33.236  -6.024 -24.161  0.00  0.00    +0.172 C 
BRANCH  23  24
ATOM     24  C   UNL     1      32.158  -4.958 -24.119  0.00  0.00    +0.180 C 
BRANCH  24  25
ATOM     25  N   UNL     1      32.169  -4.048 -25.320  0.00  0.00    -0.202 N 
ATOM     26  N   UNL     1      32.414  -2.736 -25.160  0.00  0.00    -0.175 NA
ATOM     27  C   UNL     1      31.949  -4.414 -26.615  0.00  0.00    +0.096 C 
ATOM     28  C   UNL     1      32.058  -3.263 -27.354  0.00  0.00    +0.105 C 
ATOM     29  C   UNL     1      32.344  -2.262 -26.407  0.00  0.00    +0.129 C 
BRANCH  28  31
ATOM     30  N   UNL     1      31.786  -3.046 -29.910  0.00  0.00    -0.191 NA
ATOM     31  C   UNL     1      31.908  -3.144 -28.761  0.00  0.00    +0.103 C 
ENDBRANCH  28  31
ENDBRANCH  24  25
ENDBRANCH  23  24
ENDBRANCH   9  23
TORSDOF 5
ENDMDL
MODEL 9
REMARK VINA RESULT:      -7.8      5.206      8.919
REMARK  Name = 86294073
REMARK  5 active torsions:
REMARK  status: ('A' for Active; 'I' for Inactive)
REMARK    1  A    between atoms: C_9  and  C_23
REMARK    2  A    between atoms: C_17  and  O_20
REMARK    3  A    between atoms: C_23  and  C_24
REMARK    4  A    between atoms: C_24  and  N_25
REMARK    5  A    between atoms: C_28  and  C_31
REMARK                            x       y       z     vdW  Elec       q    Type
REMARK                         _______ _______ _______ _____ _____    ______ ____
ROOT
ATOM      1  C   UNL     1      36.016 -22.281 -16.213  0.00  0.00    +0.000 C 
ATOM      2  C   UNL     1      36.030 -22.338 -17.742  0.00  0.00    +0.000 C 
ATOM      3  C   UNL     1      34.999 -23.259 -15.587  0.00  0.00    +0.007 C 
ATOM      4  C   UNL     1      34.612 -21.963 -18.269  0.00  0.00    +0.000 C 
ATOM      5  C   UNL     1      34.587 -22.051 -19.824  0.00  0.00    +0.000 C 
ATOM      6  C   UNL     1      33.599 -22.847 -16.062  0.00  0.00    +0.000 C 
ATOM      7  C   UNL     1      35.683 -21.161 -20.461  0.00  0.00    +0.002 C 
ATOM      8  C   UNL     1      33.504 -22.811 -17.598  0.00  0.00    +0.000 C 
ATOM      9  C   UNL     1      35.281 -22.991 -14.092  0.00  0.00    +0.059 C 
ATOM     10  C   UNL     1      37.302 -22.571 -15.447  0.00  0.00    +0.000 C 
ATOM     11  C   UNL     1      37.095 -21.414 -18.342  0.00  0.00    +0.000 C 
ATOM     12  C   UNL     1      37.067 -21.457 -19.866  0.00  0.00    +0.000 C 
ATOM     13  C   UNL     1      36.817 -22.858 -14.014  0.00  0.00    +0.007 C 
ATOM     14  C   UNL     1      33.224 -21.715 -20.458  0.00  0.00    +0.002 C 
ATOM     15  C   UNL     1      35.338 -19.662 -20.362  0.00  0.00    +0.027 C 
ATOM     16  C   UNL     1      35.253 -24.747 -15.943  0.00  0.00    +0.000 C 
ATOM     17  C   UNL     1      33.952 -19.318 -20.935  0.00  0.00    +0.088 C 
ATOM     18  C   UNL     1      32.869 -20.235 -20.346  0.00  0.00    +0.027 C 
ATOM     19  C   UNL     1      33.953 -19.361 -22.467  0.00  0.00    +0.029 C 
ENDROOT
BRANCH  17  20
ATOM     20  O   UNL     1      33.640 -17.966 -20.579  0.00  0.00    -0.387 OA
ATOM     21  H   UNL     1      34.407 -17.399 -20.758  0.00  0.00    +0.210 HD
ENDBRANCH  17  20
BRANCH   9  23
ATOM     22  O   UNL     1      33.554 -24.326 -13.156  0.00  0.00    -0.294 OA
ATOM     23  C   UNL     1      34.750 -24.037 -13.163  0.00  0.00    +0.172 C 
BRANCH  23  24
ATOM     24  C   UNL     1      35.769 -24.698 -12.255  0.00  0.00    +0.180 C 
BRANCH  24  25
ATOM     25  N   UNL     1      36.829 -25.464 -13.003  0.00  0.00    -0.202 N 
ATOM     26  N   UNL     1      36.474 -26.481 -13.808  0.00  0.00    -0.175 NA
ATOM     27  C   UNL     1      38.173 -25.239 -12.959  0.00  0.00    +0.096 C 
ATOM     28  C   UNL     1      38.737 -26.172 -13.793  0.00  0.00    +0.105 C 
ATOM     29  C   UNL     1      37.645 -26.909 -14.288  0.00  0.00    +0.129 C 
BRANCH  28  31
ATOM     30  N   UNL     1      41.251 -26.460 -14.299  0.00  0.00    -0.191 NA
ATOM     31  C   UNL     1      40.121 -26.331 -14.072  0.00  0.00    +0.103 C 
ENDBRANCH  28  31
ENDBRANCH  24  25
ENDBRANCH  23  24
ENDBRANCH   9  23
TORSDOF 5
ENDMDL
