MODEL 1
REMARK VINA RESULT:      -7.9      0.000      0.000
REMARK  Name = 405012
REMARK  5 active torsions:
REMARK  status: ('A' for Active; 'I' for Inactive)
REMARK    1  A    between atoms: C_2  and  C_11
REMARK    2  A    between atoms: C_11  and  CA_12
REMARK    3  A    between atoms: CA_12  and  N_13
REMARK    4  A    between atoms: CA_12  and  C_18
REMARK    5  A    between atoms: C_18  and  O_19
REMARK                            x       y       z     vdW  Elec       q    Type
REMARK                         _______ _______ _______ _____ _____    ______ ____
ROOT
ATOM      1  N   UNL     1      34.747 -16.393 -21.597  0.00  0.00    -0.284 N 
ATOM      2  C   UNL     1      34.897 -18.606 -21.507  0.00  0.00    -0.008 C 
ATOM      3  C   UNL     1      34.754 -18.224 -22.871  0.00  0.00    +0.011 C 
ATOM      4  C   UNL     1      34.662 -16.831 -22.899  0.00  0.00    +0.051 C 
ATOM      5  C   UNL     1      34.889 -17.458 -20.749  0.00  0.00    +0.061 C 
ATOM      6  C   UNL     1      34.694 -18.933 -24.087  0.00  0.00    +0.001 C 
ATOM      7  C   UNL     1      34.512 -16.108 -24.088  0.00  0.00    +0.015 C 
ATOM      8  C   UNL     1      34.696 -15.011 -21.170  0.00  0.00    +0.117 C 
ATOM      9  C   UNL     1      34.545 -18.223 -25.284  0.00  0.00    +0.000 C 
ATOM     10  C   UNL     1      34.456 -16.832 -25.283  0.00  0.00    +0.001 C 
ENDROOT
BRANCH   2  11
ATOM     11  C   UNL     1      35.030 -19.983 -20.989  0.00  0.00    +0.017 C 
BRANCH  11  12
ATOM     12  CA  UNL     1      33.893 -20.417 -20.037  0.00  0.00    +0.040 C 
BRANCH  12  13
ATOM     13  N   UNL     1      32.612 -20.442 -20.749  0.00  0.00    +0.389 N 
ATOM     14  H1  UNL     1      32.688 -21.053 -21.563  0.00  0.00    -0.088 HD
ATOM     15  H2  UNL     1      32.373 -19.498 -21.053  0.00  0.00    -0.088 HD
ATOM     16  H3  UNL     1      31.885 -20.793 -20.127  0.00  0.00    -0.088 HD
ENDBRANCH  12  13
BRANCH  12  18
ATOM     17  OXT UNL     1      35.224 -22.363 -19.409  0.00  0.00    -0.253 OA
ATOM     18  C   UNL     1      34.129 -21.825 -19.515  0.00  0.00    +0.293 C 
BRANCH  18  19
ATOM     19  O   UNL     1      32.973 -22.434 -19.141  0.00  0.00    -0.482 OA
ATOM     20  H   UNL     1      32.179 -21.941 -19.087  0.00  0.00    +0.295 HD
ENDBRANCH  18  19
ENDBRANCH  12  18
ENDBRANCH  11  12
ENDBRANCH   2  11
TORSDOF 5
ENDMDL
MODEL 2
REMARK VINA RESULT:      -7.8      1.616      3.064
REMARK  Name = 405012
REMARK  5 active torsions:
REMARK  status: ('A' for Active; 'I' for Inactive)
REMARK    1  A    between atoms: C_2  and  C_11
REMARK    2  A    between atoms: C_11  and  CA_12
REMARK    3  A    between atoms: CA_12  and  N_13
REMARK    4  A    between atoms: CA_12  and  C_18
REMARK    5  A    between atoms: C_18  and  O_19
REMARK                            x       y       z     vdW  Elec       q    Type
REMARK                         _______ _______ _______ _____ _____    ______ ____
ROOT
ATOM      1  N   UNL     1      34.603 -17.848 -23.842  0.00  0.00    -0.284 N 
ATOM      2  C   UNL     1      34.561 -18.730 -21.805  0.00  0.00    -0.008 C 
ATOM      3  C   UNL     1      34.542 -17.312 -21.677  0.00  0.00    +0.011 C 
ATOM      4  C   UNL     1      34.569 -16.783 -22.969  0.00  0.00    +0.051 C 
ATOM      5  C   UNL     1      34.599 -19.028 -23.147  0.00  0.00    +0.061 C 
ATOM      6  C   UNL     1      34.505 -16.425 -20.582  0.00  0.00    +0.001 C 
ATOM      7  C   UNL     1      34.560 -15.407 -23.223  0.00  0.00    +0.015 C 
ATOM      8  C   UNL     1      34.637 -17.751 -25.285  0.00  0.00    +0.117 C 
ATOM      9  C   UNL     1      34.495 -15.046 -20.821  0.00  0.00    +0.000 C 
ATOM     10  C   UNL     1      34.522 -14.547 -22.122  0.00  0.00    +0.001 C 
ENDROOT
BRANCH   2  11
ATOM     11  C   UNL     1      34.545 -19.711 -20.701  0.00  0.00    +0.017 C 
BRANCH  11  12
ATOM     12  CA  UNL     1      35.858 -20.509 -20.540  0.00  0.00    +0.040 C 
BRANCH  12  13
ATOM     13  N   UNL     1      36.976 -19.603 -20.259  0.00  0.00    +0.389 N 
ATOM     14  H1  UNL     1      36.854 -18.739 -20.788  0.00  0.00    -0.088 HD
ATOM     15  H2  UNL     1      37.852 -20.049 -20.531  0.00  0.00    -0.088 HD
ATOM     16  H3  UNL     1      36.998 -19.391 -19.262  0.00  0.00    -0.088 HD
ENDBRANCH  12  13
BRANCH  12  18
ATOM     17  OXT UNL     1      35.099 -22.494 -19.342  0.00  0.00    -0.253 OA
ATOM     18  C   UNL     1      35.770 -21.470 -19.366  0.00  0.00    +0.293 C 
BRANCH  18  19
ATOM     19  O   UNL     1      36.555 -21.083 -18.326  0.00  0.00    -0.482 OA
ATOM     20  H   UNL     1      36.217 -21.100 -17.452  0.00  0.00    +0.295 HD
ENDBRANCH  18  19
ENDBRANCH  12  18
ENDBRANCH  11  12
ENDBRANCH   2  11
TORSDOF 5
ENDMDL
MODEL 3
REMARK VINA RESULT:      -7.4      2.378      4.075
REMARK  Name = 405012
REMARK  5 active torsions:
REMARK  status: ('A' for Active; 'I' for Inactive)
REMARK    1  A    between atoms: C_2  and  C_11
REMARK    2  A    between atoms: C_11  and  CA_12
REMARK    3  A    between atoms: CA_12  and  N_13
REMARK    4  A    between atoms: CA_12  and  C_18
REMARK    5  A    between atoms: C_18  and  O_19
REMARK                            x       y       z     vdW  Elec       q    Type
REMARK                         _______ _______ _______ _____ _____    ______ ____
ROOT
ATOM      1  N   UNL     1      33.508 -14.945 -24.438  0.00  0.00    -0.284 N 
ATOM      2  C   UNL     1      34.497 -16.234 -22.925  0.00  0.00    -0.008 C 
ATOM      3  C   UNL     1      33.743 -15.239 -22.240  0.00  0.00    +0.011 C 
ATOM      4  C   UNL     1      33.133 -14.443 -23.212  0.00  0.00    +0.051 C 
ATOM      5  C   UNL     1      34.332 -16.025 -24.275  0.00  0.00    +0.061 C 
ATOM      6  C   UNL     1      33.522 -14.938 -20.880  0.00  0.00    +0.001 C 
ATOM      7  C   UNL     1      32.309 -13.358 -22.892  0.00  0.00    +0.015 C 
ATOM      8  C   UNL     1      33.098 -14.417 -25.722  0.00  0.00    +0.117 C 
ATOM      9  C   UNL     1      32.699 -13.856 -20.546  0.00  0.00    +0.000 C 
ATOM     10  C   UNL     1      32.103 -13.080 -21.538  0.00  0.00    +0.001 C 
ENDROOT
BRANCH   2  11
ATOM     11  C   UNL     1      35.311 -17.299 -22.307  0.00  0.00    +0.017 C 
BRANCH  11  12
ATOM     12  CA  UNL     1      34.591 -18.662 -22.186  0.00  0.00    +0.040 C 
BRANCH  12  13
ATOM     13  N   UNL     1      34.897 -19.506 -23.345  0.00  0.00    +0.389 N 
ATOM     14  H1  UNL     1      35.765 -20.015 -23.175  0.00  0.00    -0.088 HD
ATOM     15  H2  UNL     1      35.002 -18.920 -24.174  0.00  0.00    -0.088 HD
ATOM     16  H3  UNL     1      34.137 -20.169 -23.492  0.00  0.00    -0.088 HD
ENDBRANCH  12  13
BRANCH  12  18
ATOM     17  OXT UNL     1      34.440 -20.309 -20.394  0.00  0.00    -0.253 OA
ATOM     18  C   UNL     1      35.065 -19.420 -20.958  0.00  0.00    +0.293 C 
BRANCH  18  19
ATOM     19  O   UNL     1      36.299 -19.019 -20.551  0.00  0.00    -0.482 OA
ATOM     20  H   UNL     1      37.064 -19.345 -20.982  0.00  0.00    +0.295 HD
ENDBRANCH  18  19
ENDBRANCH  12  18
ENDBRANCH  11  12
ENDBRANCH   2  11
TORSDOF 5
ENDMDL
MODEL 4
REMARK VINA RESULT:      -7.4      6.260      8.511
REMARK  Name = 405012
REMARK  5 active torsions:
REMARK  status: ('A' for Active; 'I' for Inactive)
REMARK    1  A    between atoms: C_2  and  C_11
REMARK    2  A    between atoms: C_11  and  CA_12
REMARK    3  A    between atoms: CA_12  and  N_13
REMARK    4  A    between atoms: CA_12  and  C_18
REMARK    5  A    between atoms: C_18  and  O_19
REMARK                            x       y       z     vdW  Elec       q    Type
REMARK                         _______ _______ _______ _____ _____    ______ ____
ROOT
ATOM      1  N   UNL     1      33.586 -23.302 -16.176  0.00  0.00    -0.284 N 
ATOM      2  C   UNL     1      35.552 -23.146 -15.157  0.00  0.00    -0.008 C 
ATOM      3  C   UNL     1      35.694 -22.637 -16.479  0.00  0.00    +0.011 C 
ATOM      4  C   UNL     1      34.446 -22.747 -17.097  0.00  0.00    +0.051 C 
ATOM      5  C   UNL     1      34.246 -23.548 -15.002  0.00  0.00    +0.061 C 
ATOM      6  C   UNL     1      36.768 -22.092 -17.212  0.00  0.00    +0.001 C 
ATOM      7  C   UNL     1      34.217 -22.337 -18.415  0.00  0.00    +0.015 C 
ATOM      8  C   UNL     1      32.186 -23.590 -16.402  0.00  0.00    +0.117 C 
ATOM      9  C   UNL     1      36.553 -21.677 -18.531  0.00  0.00    +0.000 C 
ATOM     10  C   UNL     1      35.297 -21.798 -19.122  0.00  0.00    +0.001 C 
ENDROOT
BRANCH   2  11
ATOM     11  C   UNL     1      36.611 -23.233 -14.132  0.00  0.00    +0.017 C 
BRANCH  11  12
ATOM     12  CA  UNL     1      36.129 -23.764 -12.762  0.00  0.00    +0.040 C 
BRANCH  12  13
ATOM     13  N   UNL     1      36.160 -25.229 -12.743  0.00  0.00    +0.389 N 
ATOM     14  H1  UNL     1      35.296 -25.582 -12.331  0.00  0.00    -0.088 HD
ATOM     15  H2  UNL     1      36.956 -25.546 -12.189  0.00  0.00    -0.088 HD
ATOM     16  H3  UNL     1      36.250 -25.579 -13.697  0.00  0.00    -0.088 HD
ENDBRANCH  12  13
BRANCH  12  18
ATOM     17  OXT UNL     1      37.985 -22.522 -11.780  0.00  0.00    -0.253 OA
ATOM     18  C   UNL     1      37.044 -23.293 -11.644  0.00  0.00    +0.293 C 
BRANCH  18  19
ATOM     19  O   UNL     1      36.686 -23.808 -10.437  0.00  0.00    -0.482 OA
ATOM     20  H   UNL     1      37.143 -23.548  -9.662  0.00  0.00    +0.295 HD
ENDBRANCH  18  19
ENDBRANCH  12  18
ENDBRANCH  11  12
ENDBRANCH   2  11
TORSDOF 5
ENDMDL
MODEL 5
REMARK VINA RESULT:      -7.3      6.603      9.352
REMARK  Name = 405012
REMARK  5 active torsions:
REMARK  status: ('A' for Active; 'I' for Inactive)
REMARK    1  A    between atoms: C_2  and  C_11
REMARK    2  A    between atoms: C_11  and  CA_12
REMARK    3  A    between atoms: CA_12  and  N_13
REMARK    4  A    between atoms: CA_12  and  C_18
REMARK    5  A    between atoms: C_18  and  O_19
REMARK                            x       y       z     vdW  Elec       q    Type
REMARK                         _______ _______ _______ _____ _____    ______ ____
ROOT
ATOM      1  N   UNL     1      33.545 -23.101 -17.028  0.00  0.00    -0.284 N 
ATOM      2  C   UNL     1      34.521 -23.930 -15.215  0.00  0.00    -0.008 C 
ATOM      3  C   UNL     1      33.130 -23.788 -14.947  0.00  0.00    +0.011 C 
ATOM      4  C   UNL     1      32.541 -23.266 -16.100  0.00  0.00    +0.051 C 
ATOM      5  C   UNL     1      34.744 -23.499 -16.502  0.00  0.00    +0.061 C 
ATOM      6  C   UNL     1      32.314 -24.055 -13.829  0.00  0.00    +0.001 C 
ATOM      7  C   UNL     1      31.171 -22.995 -16.193  0.00  0.00    +0.015 C 
ATOM      8  C   UNL     1      33.373 -22.584 -18.369  0.00  0.00    +0.117 C 
ATOM      9  C   UNL     1      30.942 -23.790 -13.908  0.00  0.00    +0.000 C 
ATOM     10  C   UNL     1      30.381 -23.269 -15.072  0.00  0.00    +0.001 C 
ENDROOT
BRANCH   2  11
ATOM     11  C   UNL     1      35.546 -24.445 -14.285  0.00  0.00    +0.017 C 
BRANCH  11  12
ATOM     12  CA  UNL     1      36.802 -25.022 -14.979  0.00  0.00    +0.040 C 
BRANCH  12  13
ATOM     13  N   UNL     1      38.006 -24.692 -14.210  0.00  0.00    +0.389 N 
ATOM     14  H1  UNL     1      37.793 -23.947 -13.547  0.00  0.00    -0.088 HD
ATOM     15  H2  UNL     1      38.742 -24.382 -14.846  0.00  0.00    -0.088 HD
ATOM     16  H3  UNL     1      38.321 -25.519 -13.703  0.00  0.00    -0.088 HD
ENDBRANCH  12  13
BRANCH  12  18
ATOM     17  OXT UNL     1      36.686 -27.190 -16.090  0.00  0.00    -0.253 OA
ATOM     18  C   UNL     1      36.734 -26.538 -15.055  0.00  0.00    +0.293 C 
BRANCH  18  19
ATOM     19  O   UNL     1      36.760 -27.115 -13.824  0.00  0.00    -0.482 OA
ATOM     20  H   UNL     1      36.142 -27.785 -13.607  0.00  0.00    +0.295 HD
ENDBRANCH  18  19
ENDBRANCH  12  18
ENDBRANCH  11  12
ENDBRANCH   2  11
TORSDOF 5
ENDMDL
MODEL 6
REMARK VINA RESULT:      -7.3      6.963      9.585
REMARK  Name = 405012
REMARK  5 active torsions:
REMARK  status: ('A' for Active; 'I' for Inactive)
REMARK    1  A    between atoms: C_2  and  C_11
REMARK    2  A    between atoms: C_11  and  CA_12
REMARK    3  A    between atoms: CA_12  and  N_13
REMARK    4  A    between atoms: CA_12  and  C_18
REMARK    5  A    between atoms: C_18  and  O_19
REMARK                            x       y       z     vdW  Elec       q    Type
REMARK                         _______ _______ _______ _____ _____    ______ ____
ROOT
ATOM      1  N   UNL     1      36.459 -22.598 -16.502  0.00  0.00    -0.284 N 
ATOM      2  C   UNL     1      37.169 -23.756 -14.746  0.00  0.00    -0.008 C 
ATOM      3  C   UNL     1      35.748 -23.837 -14.789  0.00  0.00    +0.011 C 
ATOM      4  C   UNL     1      35.328 -23.102 -15.900  0.00  0.00    +0.051 C 
ATOM      5  C   UNL     1      37.575 -22.987 -15.812  0.00  0.00    +0.061 C 
ATOM      6  C   UNL     1      34.776 -24.468 -13.987  0.00  0.00    +0.001 C 
ATOM      7  C   UNL     1      33.980 -22.966 -16.251  0.00  0.00    +0.015 C 
ATOM      8  C   UNL     1      36.481 -21.775 -17.693  0.00  0.00    +0.117 C 
ATOM      9  C   UNL     1      33.424 -24.341 -14.326  0.00  0.00    +0.000 C 
ATOM     10  C   UNL     1      33.034 -23.601 -15.440  0.00  0.00    +0.001 C 
ENDROOT
BRANCH   2  11
ATOM     11  C   UNL     1      38.054 -24.380 -13.742  0.00  0.00    +0.017 C 
BRANCH  11  12
ATOM     12  CA  UNL     1      38.762 -25.664 -14.229  0.00  0.00    +0.040 C 
BRANCH  12  13
ATOM     13  N   UNL     1      37.988 -26.300 -15.299  0.00  0.00    +0.389 N 
ATOM     14  H1  UNL     1      37.147 -25.753 -15.481  0.00  0.00    -0.088 HD
ATOM     15  H2  UNL     1      37.726 -27.245 -15.014  0.00  0.00    -0.088 HD
ATOM     16  H3  UNL     1      38.554 -26.346 -16.146  0.00  0.00    -0.088 HD
ENDBRANCH  12  13
BRANCH  12  18
ATOM     17  OXT UNL     1      40.980 -24.649 -14.270  0.00  0.00    -0.253 OA
ATOM     18  C   UNL     1      40.129 -25.345 -14.810  0.00  0.00    +0.293 C 
BRANCH  18  19
ATOM     19  O   UNL     1      40.330 -25.949 -16.012  0.00  0.00    -0.482 OA
ATOM     20  H   UNL     1      39.747 -26.622 -16.302  0.00  0.00    +0.295 HD
ENDBRANCH  18  19
ENDBRANCH  12  18
ENDBRANCH  11  12
ENDBRANCH   2  11
TORSDOF 5
ENDMDL
MODEL 7
REMARK VINA RESULT:      -7.3      6.895      8.799
REMARK  Name = 405012
REMARK  5 active torsions:
REMARK  status: ('A' for Active; 'I' for Inactive)
REMARK    1  A    between atoms: C_2  and  C_11
REMARK    2  A    between atoms: C_11  and  CA_12
REMARK    3  A    between atoms: CA_12  and  N_13
REMARK    4  A    between atoms: CA_12  and  C_18
REMARK    5  A    between atoms: C_18  and  O_19
REMARK                            x       y       z     vdW  Elec       q    Type
REMARK                         _______ _______ _______ _____ _____    ______ ____
ROOT
ATOM      1  N   UNL     1      33.860 -23.644 -14.307  0.00  0.00    -0.284 N 
ATOM      2  C   UNL     1      31.753 -23.343 -14.937  0.00  0.00    -0.008 C 
ATOM      3  C   UNL     1      32.593 -23.099 -16.060  0.00  0.00    +0.011 C 
ATOM      4  C   UNL     1      33.909 -23.295 -15.638  0.00  0.00    +0.051 C 
ATOM      5  C   UNL     1      32.561 -23.674 -13.875  0.00  0.00    +0.061 C 
ATOM      6  C   UNL     1      32.358 -22.730 -17.400  0.00  0.00    +0.001 C 
ATOM      7  C   UNL     1      35.008 -23.139 -16.491  0.00  0.00    +0.015 C 
ATOM      8  C   UNL     1      35.005 -23.939 -13.472  0.00  0.00    +0.117 C 
ATOM      9  C   UNL     1      33.447 -22.572 -18.265  0.00  0.00    +0.000 C 
ATOM     10  C   UNL     1      34.750 -22.774 -17.816  0.00  0.00    +0.001 C 
ENDROOT
BRANCH   2  11
ATOM     11  C   UNL     1      30.279 -23.256 -14.908  0.00  0.00    +0.017 C 
BRANCH  11  12
ATOM     12  CA  UNL     1      29.559 -24.379 -15.688  0.00  0.00    +0.040 C 
BRANCH  12  13
ATOM     13  N   UNL     1      28.714 -25.167 -14.786  0.00  0.00    +0.389 N 
ATOM     14  H1  UNL     1      27.844 -24.664 -14.609  0.00  0.00    -0.088 HD
ATOM     15  H2  UNL     1      29.205 -25.318 -13.905  0.00  0.00    -0.088 HD
ATOM     16  H3  UNL     1      28.505 -26.067 -15.217  0.00  0.00    -0.088 HD
ENDBRANCH  12  13
BRANCH  12  18
ATOM     17  OXT UNL     1      27.768 -24.422 -17.343  0.00  0.00    -0.253 OA
ATOM     18  C   UNL     1      28.641 -23.800 -16.752  0.00  0.00    +0.293 C 
BRANCH  18  19
ATOM     19  O   UNL     1      28.874 -22.478 -16.967  0.00  0.00    -0.482 OA
ATOM     20  H   UNL     1      29.220 -21.945 -16.279  0.00  0.00    +0.295 HD
ENDBRANCH  18  19
ENDBRANCH  12  18
ENDBRANCH  11  12
ENDBRANCH   2  11
TORSDOF 5
ENDMDL
MODEL 8
REMARK VINA RESULT:      -7.2      6.652      9.365
REMARK  Name = 405012
REMARK  5 active torsions:
REMARK  status: ('A' for Active; 'I' for Inactive)
REMARK    1  A    between atoms: C_2  and  C_11
REMARK    2  A    between atoms: C_11  and  CA_12
REMARK    3  A    between atoms: CA_12  and  N_13
REMARK    4  A    between atoms: CA_12  and  C_18
REMARK    5  A    between atoms: C_18  and  O_19
REMARK                            x       y       z     vdW  Elec       q    Type
REMARK                         _______ _______ _______ _____ _____    ______ ____
ROOT
ATOM      1  N   UNL     1      33.229 -23.016 -17.125  0.00  0.00    -0.284 N 
ATOM      2  C   UNL     1      31.661 -23.321 -15.583  0.00  0.00    -0.008 C 
ATOM      3  C   UNL     1      32.929 -23.563 -14.984  0.00  0.00    +0.011 C 
ATOM      4  C   UNL     1      33.896 -23.365 -15.972  0.00  0.00    +0.051 C 
ATOM      5  C   UNL     1      31.879 -22.987 -16.900  0.00  0.00    +0.061 C 
ATOM      6  C   UNL     1      33.349 -23.934 -13.690  0.00  0.00    +0.001 C 
ATOM      7  C   UNL     1      35.266 -23.519 -15.731  0.00  0.00    +0.015 C 
ATOM      8  C   UNL     1      33.851 -22.718 -18.398  0.00  0.00    +0.117 C 
ATOM      9  C   UNL     1      34.716 -24.091 -13.435  0.00  0.00    +0.000 C 
ATOM     10  C   UNL     1      35.658 -23.886 -14.441  0.00  0.00    +0.001 C 
ENDROOT
BRANCH   2  11
ATOM     11  C   UNL     1      30.345 -23.410 -14.921  0.00  0.00    +0.017 C 
BRANCH  11  12
ATOM     12  CA  UNL     1      29.380 -24.436 -15.557  0.00  0.00    +0.040 C 
BRANCH  12  13
ATOM     13  N   UNL     1      28.831 -25.327 -14.530  0.00  0.00    +0.389 N 
ATOM     14  H1  UNL     1      28.169 -24.809 -13.951  0.00  0.00    -0.088 HD
ATOM     15  H2  UNL     1      29.589 -25.682 -13.947  0.00  0.00    -0.088 HD
ATOM     16  H3  UNL     1      28.353 -26.108 -14.979  0.00  0.00    -0.088 HD
ENDBRANCH  12  13
BRANCH  12  18
ATOM     17  OXT UNL     1      27.623 -22.757 -15.758  0.00  0.00    -0.253 OA
ATOM     18  C   UNL     1      28.197 -23.740 -16.208  0.00  0.00    +0.293 C 
BRANCH  18  19
ATOM     19  O   UNL     1      27.847 -24.318 -17.388  0.00  0.00    -0.482 OA
ATOM     20  H   UNL     1      27.922 -23.835 -18.188  0.00  0.00    +0.295 HD
ENDBRANCH  18  19
ENDBRANCH  12  18
ENDBRANCH  11  12
ENDBRANCH   2  11
TORSDOF 5
ENDMDL
MODEL 9
REMARK VINA RESULT:      -7.2      7.160      9.709
REMARK  Name = 405012
REMARK  5 active torsions:
REMARK  status: ('A' for Active; 'I' for Inactive)
REMARK    1  A    between atoms: C_2  and  C_11
REMARK    2  A    between atoms: C_11  and  CA_12
REMARK    3  A    between atoms: CA_12  and  N_13
REMARK    4  A    between atoms: CA_12  and  C_18
REMARK    5  A    between atoms: C_18  and  O_19
REMARK                            x       y       z     vdW  Elec       q    Type
REMARK                         _______ _______ _______ _____ _____    ______ ____
ROOT
ATOM      1  N   UNL     1      33.880 -23.147 -16.847  0.00  0.00    -0.284 N 
ATOM      2  C   UNL     1      34.718 -23.349 -14.801  0.00  0.00    -0.008 C 
ATOM      3  C   UNL     1      33.298 -23.394 -14.708  0.00  0.00    +0.011 C 
ATOM      4  C   UNL     1      32.797 -23.265 -16.005  0.00  0.00    +0.051 C 
ATOM      5  C   UNL     1      35.044 -23.196 -16.128  0.00  0.00    +0.061 C 
ATOM      6  C   UNL     1      32.388 -23.533 -13.640  0.00  0.00    +0.001 C 
ATOM      7  C   UNL     1      31.427 -23.268 -16.290  0.00  0.00    +0.015 C 
ATOM      8  C   UNL     1      33.814 -22.993 -18.285  0.00  0.00    +0.117 C 
ATOM      9  C   UNL     1      31.015 -23.538 -13.911  0.00  0.00    +0.000 C 
ATOM     10  C   UNL     1      30.544 -23.408 -15.215  0.00  0.00    +0.001 C 
ENDROOT
BRANCH   2  11
ATOM     11  C   UNL     1      35.675 -23.447 -13.680  0.00  0.00    +0.017 C 
BRANCH  11  12
ATOM     12  CA  UNL     1      35.620 -24.786 -12.911  0.00  0.00    +0.040 C 
BRANCH  12  13
ATOM     13  N   UNL     1      36.432 -25.800 -13.591  0.00  0.00    +0.389 N 
ATOM     14  H1  UNL     1      35.911 -26.176 -14.384  0.00  0.00    -0.088 HD
ATOM     15  H2  UNL     1      36.652 -26.553 -12.939  0.00  0.00    -0.088 HD
ATOM     16  H3  UNL     1      37.297 -25.374 -13.923  0.00  0.00    -0.088 HD
ENDBRANCH  12  13
BRANCH  12  18
ATOM     17  OXT UNL     1      37.301 -24.183 -11.250  0.00  0.00    -0.253 OA
ATOM     18  C   UNL     1      36.193 -24.634 -11.512  0.00  0.00    +0.293 C 
BRANCH  18  19
ATOM     19  O   UNL     1      35.318 -25.036 -10.552  0.00  0.00    -0.482 OA
ATOM     20  H   UNL     1      35.630 -25.264  -9.699  0.00  0.00    +0.295 HD
ENDBRANCH  18  19
ENDBRANCH  12  18
ENDBRANCH  11  12
ENDBRANCH   2  11
TORSDOF 5
ENDMDL
