MODEL 1
REMARK VINA RESULT:      -7.7      0.000      0.000
REMARK  Name = 445228
REMARK  3 active torsions:
REMARK  status: ('A' for Active; 'I' for Inactive)
REMARK    1  A    between atoms: N_3  and  O_14
REMARK    2  A    between atoms: C_6  and  O_12
REMARK    3  A    between atoms: C_10  and  O_16
REMARK                            x       y       z     vdW  Elec       q    Type
REMARK                         _______ _______ _______ _____ _____    ______ ____
ROOT
ATOM      1  O   UNL     1      37.598 -23.447 -13.268  0.00  0.00    -0.445 OA
ATOM      2  O   UNL     1      35.424 -25.162 -10.942  0.00  0.00    -0.266 OA
ATOM      3  N   UNL     1      34.966 -24.344 -13.050  0.00  0.00    -0.141 N 
ATOM      4  C   UNL     1      35.397 -23.752 -14.241  0.00  0.00    +0.115 C 
ATOM      5  C   UNL     1      36.726 -23.323 -14.315  0.00  0.00    +0.161 C 
ATOM      6  C   UNL     1      37.266 -24.482 -12.358  0.00  0.00    +0.367 C 
ATOM      7  C   UNL     1      35.793 -24.689 -12.015  0.00  0.00    +0.322 C 
ATOM      8  C   UNL     1      37.194 -22.675 -15.458  0.00  0.00    +0.075 C 
ATOM      9  C   UNL     1      34.539 -23.539 -15.325  0.00  0.00    +0.023 C 
ATOM     10  C   UNL     1      36.341 -22.475 -16.542  0.00  0.00    +0.142 C 
ATOM     11  C   UNL     1      35.016 -22.906 -16.475  0.00  0.00    +0.038 C 
ENDROOT
BRANCH   6  12
ATOM     12  O   UNL     1      37.952 -24.293 -11.126  0.00  0.00    -0.343 OA
ATOM     13  H   UNL     1      37.427 -24.668 -10.402  0.00  0.00    +0.215 HD
ENDBRANCH   6  12
BRANCH   3  14
ATOM     14  O   UNL     1      33.603 -24.637 -12.907  0.00  0.00    -0.287 OA
ATOM     15  H   UNL     1      33.114 -24.283 -13.666  0.00  0.00    +0.242 HD
ENDBRANCH   3  14
BRANCH  10  16
ATOM     16  O   UNL     1      36.796 -21.851 -17.663  0.00  0.00    -0.471 OA
ATOM     17  C   UNL     1      35.895 -21.752 -18.764  0.00  0.00    +0.252 C 
ENDBRANCH  10  16
TORSDOF 3
ENDMDL
MODEL 2
REMARK VINA RESULT:      -7.6     11.509     13.674
REMARK  Name = 445228
REMARK  3 active torsions:
REMARK  status: ('A' for Active; 'I' for Inactive)
REMARK    1  A    between atoms: N_3  and  O_14
REMARK    2  A    between atoms: C_6  and  O_12
REMARK    3  A    between atoms: C_10  and  O_16
REMARK                            x       y       z     vdW  Elec       q    Type
REMARK                         _______ _______ _______ _____ _____    ______ ____
ROOT
ATOM      1  O   UNL     1      33.002 -14.169 -24.833  0.00  0.00    -0.445 OA
ATOM      2  O   UNL     1      35.054 -16.954 -25.887  0.00  0.00    -0.266 OA
ATOM      3  N   UNL     1      34.601 -16.188 -23.759  0.00  0.00    -0.141 N 
ATOM      4  C   UNL     1      33.910 -15.325 -22.903  0.00  0.00    +0.115 C 
ATOM      5  C   UNL     1      33.112 -14.332 -23.478  0.00  0.00    +0.161 C 
ATOM      6  C   UNL     1      33.273 -15.343 -25.579  0.00  0.00    +0.367 C 
ATOM      7  C   UNL     1      34.419 -16.239 -25.115  0.00  0.00    +0.322 C 
ATOM      8  C   UNL     1      32.445 -13.409 -22.673  0.00  0.00    +0.075 C 
ATOM      9  C   UNL     1      34.029 -15.398 -21.510  0.00  0.00    +0.023 C 
ATOM     10  C   UNL     1      32.555 -13.491 -21.285  0.00  0.00    +0.142 C 
ATOM     11  C   UNL     1      33.345 -14.483 -20.706  0.00  0.00    +0.038 C 
ENDROOT
BRANCH   6  12
ATOM     12  O   UNL     1      33.535 -15.013 -26.938  0.00  0.00    -0.343 OA
ATOM     13  H   UNL     1      33.298 -15.763 -27.505  0.00  0.00    +0.215 HD
ENDBRANCH   6  12
BRANCH   3  14
ATOM     14  O   UNL     1      35.521 -17.086 -23.201  0.00  0.00    -0.287 OA
ATOM     15  H   UNL     1      35.989 -16.655 -22.468  0.00  0.00    +0.242 HD
ENDBRANCH   3  14
BRANCH  10  16
ATOM     16  O   UNL     1      31.899 -12.597 -20.495  0.00  0.00    -0.471 OA
ATOM     17  C   UNL     1      31.189 -11.549 -21.152  0.00  0.00    +0.252 C 
ENDBRANCH  10  16
TORSDOF 3
ENDMDL
MODEL 3
REMARK VINA RESULT:      -7.6      1.707      3.125
REMARK  Name = 445228
REMARK  3 active torsions:
REMARK  status: ('A' for Active; 'I' for Inactive)
REMARK    1  A    between atoms: N_3  and  O_14
REMARK    2  A    between atoms: C_6  and  O_12
REMARK    3  A    between atoms: C_10  and  O_16
REMARK                            x       y       z     vdW  Elec       q    Type
REMARK                         _______ _______ _______ _____ _____    ______ ____
ROOT
ATOM      1  O   UNL     1      34.353 -24.484 -12.377  0.00  0.00    -0.445 OA
ATOM      2  O   UNL     1      37.789 -24.553 -11.251  0.00  0.00    -0.266 OA
ATOM      3  N   UNL     1      36.934 -24.003 -13.321  0.00  0.00    -0.141 N 
ATOM      4  C   UNL     1      35.839 -23.766 -14.157  0.00  0.00    +0.115 C 
ATOM      5  C   UNL     1      34.560 -24.010 -13.645  0.00  0.00    +0.161 C 
ATOM      6  C   UNL     1      35.405 -24.193 -11.473  0.00  0.00    +0.367 C 
ATOM      7  C   UNL     1      36.840 -24.292 -11.987  0.00  0.00    +0.322 C 
ATOM      8  C   UNL     1      33.435 -23.844 -14.452  0.00  0.00    +0.075 C 
ATOM      9  C   UNL     1      35.984 -23.343 -15.482  0.00  0.00    +0.023 C 
ATOM     10  C   UNL     1      33.582 -23.411 -15.769  0.00  0.00    +0.142 C 
ATOM     11  C   UNL     1      34.854 -23.161 -16.282  0.00  0.00    +0.038 C 
ENDROOT
BRANCH   6  12
ATOM     12  O   UNL     1      35.319 -25.036 -10.330  0.00  0.00    -0.343 OA
ATOM     13  H   UNL     1      35.311 -24.492  -9.527  0.00  0.00    +0.215 HD
ENDBRANCH   6  12
BRANCH   3  14
ATOM     14  O   UNL     1      38.222 -23.911 -13.868  0.00  0.00    -0.287 OA
ATOM     15  H   UNL     1      38.855 -24.352 -13.281  0.00  0.00    +0.242 HD
ENDBRANCH   3  14
BRANCH  10  16
ATOM     16  O   UNL     1      32.485 -23.240 -16.557  0.00  0.00    -0.471 OA
ATOM     17  C   UNL     1      31.218 -23.181 -15.904  0.00  0.00    +0.252 C 
ENDBRANCH  10  16
TORSDOF 3
ENDMDL
MODEL 4
REMARK VINA RESULT:      -7.6      7.983     12.033
REMARK  Name = 445228
REMARK  3 active torsions:
REMARK  status: ('A' for Active; 'I' for Inactive)
REMARK    1  A    between atoms: N_3  and  O_14
REMARK    2  A    between atoms: C_6  and  O_12
REMARK    3  A    between atoms: C_10  and  O_16
REMARK                            x       y       z     vdW  Elec       q    Type
REMARK                         _______ _______ _______ _____ _____    ______ ____
ROOT
ATOM      1  O   UNL     1      34.795 -15.262 -22.273  0.00  0.00    -0.445 OA
ATOM      2  O   UNL     1      33.501 -14.506 -25.564  0.00  0.00    -0.266 OA
ATOM      3  N   UNL     1      34.085 -16.541 -24.648  0.00  0.00    -0.141 N 
ATOM      4  C   UNL     1      34.503 -17.303 -23.553  0.00  0.00    +0.115 C 
ATOM      5  C   UNL     1      34.842 -16.626 -22.377  0.00  0.00    +0.161 C 
ATOM      6  C   UNL     1      33.898 -14.645 -23.180  0.00  0.00    +0.367 C 
ATOM      7  C   UNL     1      33.820 -15.200 -24.600  0.00  0.00    +0.322 C 
ATOM      8  C   UNL     1      35.319 -17.330 -21.271  0.00  0.00    +0.075 C 
ATOM      9  C   UNL     1      34.633 -18.694 -23.613  0.00  0.00    +0.023 C 
ATOM     10  C   UNL     1      35.437 -18.719 -21.330  0.00  0.00    +0.142 C 
ATOM     11  C   UNL     1      35.094 -19.398 -22.499  0.00  0.00    +0.038 C 
ENDROOT
BRANCH   6  12
ATOM     12  O   UNL     1      34.193 -13.257 -23.297  0.00  0.00    -0.343 OA
ATOM     13  H   UNL     1      34.872 -13.015 -22.648  0.00  0.00    +0.215 HD
ENDBRANCH   6  12
BRANCH   3  14
ATOM     14  O   UNL     1      33.890 -17.191 -25.875  0.00  0.00    -0.287 OA
ATOM     15  H   UNL     1      32.980 -17.046 -26.177  0.00  0.00    +0.242 HD
ENDBRANCH   3  14
BRANCH  10  16
ATOM     16  O   UNL     1      35.894 -19.410 -20.251  0.00  0.00    -0.471 OA
ATOM     17  C   UNL     1      35.693 -20.823 -20.251  0.00  0.00    +0.252 C 
ENDBRANCH  10  16
TORSDOF 3
ENDMDL
MODEL 5
REMARK VINA RESULT:      -7.4     10.680     12.686
REMARK  Name = 445228
REMARK  3 active torsions:
REMARK  status: ('A' for Active; 'I' for Inactive)
REMARK    1  A    between atoms: N_3  and  O_14
REMARK    2  A    between atoms: C_6  and  O_12
REMARK    3  A    between atoms: C_10  and  O_16
REMARK                            x       y       z     vdW  Elec       q    Type
REMARK                         _______ _______ _______ _____ _____    ______ ____
ROOT
ATOM      1  O   UNL     1      33.823 -15.246 -24.462  0.00  0.00    -0.445 OA
ATOM      2  O   UNL     1      35.710 -18.227 -23.665  0.00  0.00    -0.266 OA
ATOM      3  N   UNL     1      34.670 -16.727 -22.254  0.00  0.00    -0.141 N 
ATOM      4  C   UNL     1      33.853 -15.609 -22.063  0.00  0.00    +0.115 C 
ATOM      5  C   UNL     1      33.442 -14.897 -23.194  0.00  0.00    +0.161 C 
ATOM      6  C   UNL     1      34.169 -16.613 -24.605  0.00  0.00    +0.367 C 
ATOM      7  C   UNL     1      34.954 -17.276 -23.475  0.00  0.00    +0.322 C 
ATOM      8  C   UNL     1      32.673 -13.741 -23.059  0.00  0.00    +0.075 C 
ATOM      9  C   UNL     1      33.480 -15.161 -20.791  0.00  0.00    +0.023 C 
ATOM     10  C   UNL     1      32.293 -13.304 -21.791  0.00  0.00    +0.142 C 
ATOM     11  C   UNL     1      32.695 -14.014 -20.659  0.00  0.00    +0.038 C 
ENDROOT
BRANCH   6  12
ATOM     12  O   UNL     1      34.921 -16.809 -25.797  0.00  0.00    -0.343 OA
ATOM     13  H   UNL     1      35.851 -16.590 -25.633  0.00  0.00    +0.215 HD
ENDBRANCH   6  12
BRANCH   3  14
ATOM     14  O   UNL     1      35.213 -17.357 -21.125  0.00  0.00    -0.287 OA
ATOM     15  H   UNL     1      35.674 -18.166 -21.397  0.00  0.00    +0.242 HD
ENDBRANCH   3  14
BRANCH  10  16
ATOM     16  O   UNL     1      31.536 -12.181 -21.655  0.00  0.00    -0.471 OA
ATOM     17  C   UNL     1      31.500 -11.575 -20.364  0.00  0.00    +0.252 C 
ENDBRANCH  10  16
TORSDOF 3
ENDMDL
MODEL 6
REMARK VINA RESULT:      -7.3      2.595      3.979
REMARK  Name = 445228
REMARK  3 active torsions:
REMARK  status: ('A' for Active; 'I' for Inactive)
REMARK    1  A    between atoms: N_3  and  O_14
REMARK    2  A    between atoms: C_6  and  O_12
REMARK    3  A    between atoms: C_10  and  O_16
REMARK                            x       y       z     vdW  Elec       q    Type
REMARK                         _______ _______ _______ _____ _____    ______ ____
ROOT
ATOM      1  O   UNL     1      33.299 -24.279 -13.338  0.00  0.00    -0.445 OA
ATOM      2  O   UNL     1      36.873 -24.826 -13.252  0.00  0.00    -0.266 OA
ATOM      3  N   UNL     1      35.535 -24.142 -15.001  0.00  0.00    -0.141 N 
ATOM      4  C   UNL     1      34.286 -23.749 -15.491  0.00  0.00    +0.115 C 
ATOM      5  C   UNL     1      33.190 -23.824 -14.625  0.00  0.00    +0.161 C 
ATOM      6  C   UNL     1      34.597 -24.144 -12.786  0.00  0.00    +0.367 C 
ATOM      7  C   UNL     1      35.794 -24.431 -13.689  0.00  0.00    +0.322 C 
ATOM      8  C   UNL     1      31.911 -23.498 -15.076  0.00  0.00    +0.075 C 
ATOM      9  C   UNL     1      34.094 -23.335 -16.813  0.00  0.00    +0.023 C 
ATOM     10  C   UNL     1      31.726 -23.074 -16.391  0.00  0.00    +0.142 C 
ATOM     11  C   UNL     1      32.816 -22.992 -17.257  0.00  0.00    +0.038 C 
ENDROOT
BRANCH   6  12
ATOM     12  O   UNL     1      34.736 -24.980 -11.643  0.00  0.00    -0.343 OA
ATOM     13  H   UNL     1      33.964 -25.563 -11.572  0.00  0.00    +0.215 HD
ENDBRANCH   6  12
BRANCH   3  14
ATOM     14  O   UNL     1      36.608 -24.218 -15.900  0.00  0.00    -0.287 OA
ATOM     15  H   UNL     1      37.077 -23.370 -15.916  0.00  0.00    +0.242 HD
ENDBRANCH   3  14
BRANCH  10  16
ATOM     16  O   UNL     1      30.480 -22.747 -16.833  0.00  0.00    -0.471 OA
ATOM     17  C   UNL     1      29.395 -22.955 -15.930  0.00  0.00    +0.252 C 
ENDBRANCH  10  16
TORSDOF 3
ENDMDL
MODEL 7
REMARK VINA RESULT:      -7.1     11.542     13.264
REMARK  Name = 445228
REMARK  3 active torsions:
REMARK  status: ('A' for Active; 'I' for Inactive)
REMARK    1  A    between atoms: N_3  and  O_14
REMARK    2  A    between atoms: C_6  and  O_12
REMARK    3  A    between atoms: C_10  and  O_16
REMARK                            x       y       z     vdW  Elec       q    Type
REMARK                         _______ _______ _______ _____ _____    ______ ____
ROOT
ATOM      1  O   UNL     1      34.216 -16.708 -22.504  0.00  0.00    -0.445 OA
ATOM      2  O   UNL     1      34.931 -17.551 -25.947  0.00  0.00    -0.266 OA
ATOM      3  N   UNL     1      33.859 -15.701 -25.082  0.00  0.00    -0.141 N 
ATOM      4  C   UNL     1      33.445 -14.944 -23.982  0.00  0.00    +0.115 C 
ATOM      5  C   UNL     1      33.649 -15.478 -22.705  0.00  0.00    +0.161 C 
ATOM      6  C   UNL     1      35.052 -17.138 -23.565  0.00  0.00    +0.367 C 
ATOM      7  C   UNL     1      34.603 -16.847 -24.995  0.00  0.00    +0.322 C 
ATOM      8  C   UNL     1      33.205 -14.792 -21.575  0.00  0.00    +0.075 C 
ATOM      9  C   UNL     1      32.802 -13.709 -24.120  0.00  0.00    +0.023 C 
ATOM     10  C   UNL     1      32.575 -13.556 -21.716  0.00  0.00    +0.142 C 
ATOM     11  C   UNL     1      32.374 -13.017 -22.986  0.00  0.00    +0.038 C 
ENDROOT
BRANCH   6  12
ATOM     12  O   UNL     1      35.270 -18.542 -23.481  0.00  0.00    -0.343 OA
ATOM     13  H   UNL     1      34.597 -19.006 -24.003  0.00  0.00    +0.215 HD
ENDBRANCH   6  12
BRANCH   3  14
ATOM     14  O   UNL     1      33.523 -15.250 -26.366  0.00  0.00    -0.287 OA
ATOM     15  H   UNL     1      32.566 -15.101 -26.416  0.00  0.00    +0.242 HD
ENDBRANCH   3  14
BRANCH  10  16
ATOM     16  O   UNL     1      32.148 -12.879 -20.615  0.00  0.00    -0.471 OA
ATOM     17  C   UNL     1      31.477 -11.640 -20.834  0.00  0.00    +0.252 C 
ENDBRANCH  10  16
TORSDOF 3
ENDMDL
MODEL 8
REMARK VINA RESULT:      -7.1      9.610     12.187
REMARK  Name = 445228
REMARK  3 active torsions:
REMARK  status: ('A' for Active; 'I' for Inactive)
REMARK    1  A    between atoms: N_3  and  O_14
REMARK    2  A    between atoms: C_6  and  O_12
REMARK    3  A    between atoms: C_10  and  O_16
REMARK                            x       y       z     vdW  Elec       q    Type
REMARK                         _______ _______ _______ _____ _____    ______ ____
ROOT
ATOM      1  O   UNL     1      33.953 -16.584 -20.962  0.00  0.00    -0.445 OA
ATOM      2  O   UNL     1      36.037 -18.499 -23.213  0.00  0.00    -0.266 OA
ATOM      3  N   UNL     1      34.859 -16.555 -23.601  0.00  0.00    -0.141 N 
ATOM      4  C   UNL     1      34.070 -15.501 -23.131  0.00  0.00    +0.115 C 
ATOM      5  C   UNL     1      33.642 -15.546 -21.800  0.00  0.00    +0.161 C 
ATOM      6  C   UNL     1      35.129 -17.286 -21.325  0.00  0.00    +0.367 C 
ATOM      7  C   UNL     1      35.385 -17.539 -22.809  0.00  0.00    +0.322 C 
ATOM      8  C   UNL     1      32.807 -14.551 -21.293  0.00  0.00    +0.075 C 
ATOM      9  C   UNL     1      33.664 -14.443 -23.952  0.00  0.00    +0.023 C 
ATOM     10  C   UNL     1      32.414 -13.492 -22.111  0.00  0.00    +0.142 C 
ATOM     11  C   UNL     1      32.843 -13.439 -23.437  0.00  0.00    +0.038 C 
ENDROOT
BRANCH   6  12
ATOM     12  O   UNL     1      35.164 -18.554 -20.680  0.00  0.00    -0.343 OA
ATOM     13  H   UNL     1      35.546 -19.213 -21.281  0.00  0.00    +0.215 HD
ENDBRANCH   6  12
BRANCH   3  14
ATOM     14  O   UNL     1      35.165 -16.599 -24.968  0.00  0.00    -0.287 OA
ATOM     15  H   UNL     1      34.514 -17.151 -25.428  0.00  0.00    +0.242 HD
ENDBRANCH   3  14
BRANCH  10  16
ATOM     16  O   UNL     1      31.605 -12.514 -21.618  0.00  0.00    -0.471 OA
ATOM     17  C   UNL     1      31.749 -11.209 -22.177  0.00  0.00    +0.252 C 
ENDBRANCH  10  16
TORSDOF 3
ENDMDL
MODEL 9
REMARK VINA RESULT:      -7.1      9.700     12.290
REMARK  Name = 445228
REMARK  3 active torsions:
REMARK  status: ('A' for Active; 'I' for Inactive)
REMARK    1  A    between atoms: N_3  and  O_14
REMARK    2  A    between atoms: C_6  and  O_12
REMARK    3  A    between atoms: C_10  and  O_16
REMARK                            x       y       z     vdW  Elec       q    Type
REMARK                         _______ _______ _______ _____ _____    ______ ____
ROOT
ATOM      1  O   UNL     1      34.694 -17.670 -23.978  0.00  0.00    -0.445 OA
ATOM      2  O   UNL     1      35.596 -17.705 -20.476  0.00  0.00    -0.266 OA
ATOM      3  N   UNL     1      34.749 -15.983 -21.757  0.00  0.00    -0.141 N 
ATOM      4  C   UNL     1      34.225 -15.516 -22.965  0.00  0.00    +0.115 C 
ATOM      5  C   UNL     1      34.206 -16.393 -24.054  0.00  0.00    +0.161 C 
ATOM      6  C   UNL     1      34.699 -18.210 -22.667  0.00  0.00    +0.367 C 
ATOM      7  C   UNL     1      35.087 -17.287 -21.514  0.00  0.00    +0.322 C 
ATOM      8  C   UNL     1      33.746 -15.963 -25.299  0.00  0.00    +0.075 C 
ATOM      9  C   UNL     1      33.768 -14.203 -23.127  0.00  0.00    +0.023 C 
ATOM     10  C   UNL     1      33.280 -14.658 -25.454  0.00  0.00    +0.142 C 
ATOM     11  C   UNL     1      33.292 -13.781 -24.370  0.00  0.00    +0.038 C 
ENDROOT
BRANCH   6  12
ATOM     12  O   UNL     1      35.566 -19.336 -22.601  0.00  0.00    -0.343 OA
ATOM     13  H   UNL     1      35.071 -20.108 -22.288  0.00  0.00    +0.215 HD
ENDBRANCH   6  12
BRANCH   3  14
ATOM     14  O   UNL     1      34.914 -15.071 -20.705  0.00  0.00    -0.287 OA
ATOM     15  H   UNL     1      34.349 -14.297 -20.856  0.00  0.00    +0.242 HD
ENDBRANCH   3  14
BRANCH  10  16
ATOM     16  O   UNL     1      32.824 -14.237 -26.665  0.00  0.00    -0.471 OA
ATOM     17  C   UNL     1      33.441 -13.079 -27.225  0.00  0.00    +0.252 C 
ENDBRANCH  10  16
TORSDOF 3
ENDMDL
