MODEL 1
REMARK VINA RESULT:     -11.3      0.000      0.000
REMARK  Name = 6420159
REMARK  9 active torsions:
REMARK  status: ('A' for Active; 'I' for Inactive)
REMARK    1  A    between atoms: C_1  and  N_3
REMARK    2  A    between atoms: C_1  and  C_15
REMARK    3  A    between atoms: C_1  and  C_29
REMARK    4  A    between atoms: N_14  and  C_17
REMARK    5  A    between atoms: C_17  and  C_18
REMARK    6  A    between atoms: C_18  and  N_19
REMARK    7  A    between atoms: N_19  and  C_21
REMARK    8  A    between atoms: C_26  and  O_27
REMARK    9  A    between atoms: C_29  and  C_30
REMARK                            x       y       z     vdW  Elec       q    Type
REMARK                         _______ _______ _______ _____ _____    ______ ____
ROOT
ATOM      1  C   UNL     1      33.649 -23.306 -17.241  0.00  0.00    +0.151 C 
ENDROOT
BRANCH   1   3
ATOM      2  O   UNL     1      36.152 -22.828 -14.606  0.00  0.00    -0.414 OA
ATOM      3  N   UNL     1      34.572 -22.757 -16.271  0.00  0.00    -0.271 N 
ATOM      4  N   UNL     1      35.412 -24.827 -15.378  0.00  0.00    -0.356 NA
ATOM      5  C   UNL     1      35.359 -23.533 -15.439  0.00  0.00    +0.345 C 
ATOM      6  C   UNL     1      36.803 -23.812 -13.917  0.00  0.00    +0.175 C 
ATOM      7  C   UNL     1      36.347 -25.033 -14.392  0.00  0.00    +0.152 C 
ATOM      8  C   UNL     1      37.754 -23.657 -12.917  0.00  0.00    +0.040 C 
ATOM      9  C   UNL     1      36.868 -26.212 -13.840  0.00  0.00    +0.088 C 
ATOM     10  C   UNL     1      38.263 -24.842 -12.376  0.00  0.00    -0.001 C 
ATOM     11  C   UNL     1      37.831 -26.095 -12.827  0.00  0.00    -0.018 C 
ATOM     12  H   UNL     1      34.643 -21.778 -16.199  0.00  0.00    +0.153 HD
ENDBRANCH   1   3
BRANCH   1  15
ATOM     13  O   UNL     1      33.841 -23.569 -19.642  0.00  0.00    -0.273 OA
ATOM     14  N   UNL     1      34.907 -21.777 -18.629  0.00  0.00    -0.301 N 
ATOM     15  C   UNL     1      34.123 -22.920 -18.636  0.00  0.00    +0.240 C 
ATOM     16  H   UNL     1      35.080 -21.322 -17.773  0.00  0.00    +0.150 HD
BRANCH  14  17
ATOM     17  C   UNL     1      35.478 -21.231 -19.837  0.00  0.00    +0.111 C 
BRANCH  17  18
ATOM     18  C   UNL     1      34.558 -20.220 -20.502  0.00  0.00    +0.109 C 
BRANCH  18  19
ATOM     19  N   UNL     1      35.309 -19.070 -20.947  0.00  0.00    -0.331 N 
ATOM     20  H   UNL     1      36.008 -18.713 -20.352  0.00  0.00    +0.147 HD
BRANCH  19  21
ATOM     21  C   UNL     1      35.103 -18.439 -22.163  0.00  0.00    +0.045 C 
ATOM     22  C   UNL     1      34.819 -19.183 -23.324  0.00  0.00    +0.017 C 
ATOM     23  C   UNL     1      35.174 -17.038 -22.272  0.00  0.00    +0.017 C 
ATOM     24  C   UNL     1      34.613 -18.548 -24.549  0.00  0.00    +0.038 C 
ATOM     25  C   UNL     1      34.968 -16.403 -23.497  0.00  0.00    +0.038 C 
ATOM     26  C   UNL     1      34.688 -17.159 -24.635  0.00  0.00    +0.139 C 
BRANCH  26  27
ATOM     27  O   UNL     1      34.486 -16.538 -25.829  0.00  0.00    -0.471 OA
ATOM     28  C   UNL     1      33.509 -15.499 -25.866  0.00  0.00    +0.252 C 
ENDBRANCH  26  27
ENDBRANCH  19  21
ENDBRANCH  18  19
ENDBRANCH  17  18
ENDBRANCH  14  17
ENDBRANCH   1  15
BRANCH   1  29
ATOM     29  C   UNL     1      32.238 -22.766 -16.999  0.00  0.00    +0.029 C 
BRANCH  29  30
ATOM     30  C   UNL     1      31.320 -23.800 -16.351  0.00  0.00    +0.002 C 
ATOM     31  C   UNL     1      29.854 -23.358 -16.445  0.00  0.00    +0.000 C 
ATOM     32  C   UNL     1      31.723 -24.044 -14.890  0.00  0.00    +0.000 C 
ATOM     33  C   UNL     1      28.920 -24.351 -15.757  0.00  0.00    +0.000 C 
ATOM     34  C   UNL     1      30.786 -25.034 -14.204  0.00  0.00    +0.000 C 
ATOM     35  C   UNL     1      29.329 -24.596 -14.308  0.00  0.00    +0.000 C 
ENDBRANCH  29  30
ENDBRANCH   1  29
TORSDOF 9
ENDMDL
MODEL 2
REMARK VINA RESULT:     -10.9      3.178      7.430
REMARK  Name = 6420159
REMARK  9 active torsions:
REMARK  status: ('A' for Active; 'I' for Inactive)
REMARK    1  A    between atoms: C_1  and  N_3
REMARK    2  A    between atoms: C_1  and  C_15
REMARK    3  A    between atoms: C_1  and  C_29
REMARK    4  A    between atoms: N_14  and  C_17
REMARK    5  A    between atoms: C_17  and  C_18
REMARK    6  A    between atoms: C_18  and  N_19
REMARK    7  A    between atoms: N_19  and  C_21
REMARK    8  A    between atoms: C_26  and  O_27
REMARK    9  A    between atoms: C_29  and  C_30
REMARK                            x       y       z     vdW  Elec       q    Type
REMARK                         _______ _______ _______ _____ _____    ______ ____
ROOT
ATOM      1  C   UNL     1      33.818 -22.921 -17.003  0.00  0.00    +0.151 C 
ENDROOT
BRANCH   1   3
ATOM      2  O   UNL     1      36.023 -25.350 -15.366  0.00  0.00    -0.414 OA
ATOM      3  N   UNL     1      34.568 -24.102 -16.631  0.00  0.00    -0.271 N 
ATOM      4  N   UNL     1      35.684 -23.211 -14.694  0.00  0.00    -0.356 NA
ATOM      5  C   UNL     1      35.417 -24.157 -15.540  0.00  0.00    +0.345 C 
ATOM      6  C   UNL     1      36.781 -25.134 -14.251  0.00  0.00    +0.175 C 
ATOM      7  C   UNL     1      36.571 -23.825 -13.843  0.00  0.00    +0.152 C 
ATOM      8  C   UNL     1      37.623 -26.036 -13.612  0.00  0.00    +0.040 C 
ATOM      9  C   UNL     1      37.244 -23.352 -12.707  0.00  0.00    +0.088 C 
ATOM     10  C   UNL     1      38.287 -25.550 -12.481  0.00  0.00    -0.001 C 
ATOM     11  C   UNL     1      38.103 -24.235 -12.036  0.00  0.00    -0.018 C 
ATOM     12  H   UNL     1      34.469 -24.909 -17.185  0.00  0.00    +0.153 HD
ENDBRANCH   1   3
BRANCH   1  15
ATOM     13  O   UNL     1      31.401 -22.771 -16.940  0.00  0.00    -0.273 OA
ATOM     14  N   UNL     1      32.536 -23.291 -14.986  0.00  0.00    -0.301 N 
ATOM     15  C   UNL     1      32.451 -22.984 -16.336  0.00  0.00    +0.240 C 
ATOM     16  H   UNL     1      33.423 -23.446 -14.587  0.00  0.00    +0.150 HD
BRANCH  14  17
ATOM     17  C   UNL     1      31.366 -23.393 -14.147  0.00  0.00    +0.111 C 
BRANCH  17  18
ATOM     18  C   UNL     1      30.905 -24.832 -13.976  0.00  0.00    +0.109 C 
BRANCH  18  19
ATOM     19  N   UNL     1      29.487 -24.940 -14.229  0.00  0.00    -0.331 N 
ATOM     20  H   UNL     1      28.963 -25.563 -13.676  0.00  0.00    +0.147 HD
BRANCH  19  21
ATOM     21  C   UNL     1      28.823 -24.217 -15.207  0.00  0.00    +0.045 C 
ATOM     22  C   UNL     1      28.705 -24.715 -16.518  0.00  0.00    +0.017 C 
ATOM     23  C   UNL     1      28.251 -22.965 -14.917  0.00  0.00    +0.017 C 
ATOM     24  C   UNL     1      28.038 -23.987 -17.503  0.00  0.00    +0.038 C 
ATOM     25  C   UNL     1      27.583 -22.237 -15.902  0.00  0.00    +0.038 C 
ATOM     26  C   UNL     1      27.477 -22.747 -17.195  0.00  0.00    +0.139 C 
BRANCH  26  27
ATOM     27  O   UNL     1      26.825 -22.037 -18.155  0.00  0.00    -0.471 OA
ATOM     28  C   UNL     1      25.927 -21.020 -17.714  0.00  0.00    +0.252 C 
ENDBRANCH  26  27
ENDBRANCH  19  21
ENDBRANCH  18  19
ENDBRANCH  17  18
ENDBRANCH  14  17
ENDBRANCH   1  15
BRANCH   1  29
ATOM     29  C   UNL     1      33.658 -22.849 -18.523  0.00  0.00    +0.029 C 
BRANCH  29  30
ATOM     30  C   UNL     1      34.149 -21.523 -19.100  0.00  0.00    +0.002 C 
ATOM     31  C   UNL     1      33.152 -20.976 -20.129  0.00  0.00    +0.000 C 
ATOM     32  C   UNL     1      35.543 -21.686 -19.723  0.00  0.00    +0.000 C 
ATOM     33  C   UNL     1      33.647 -19.677 -20.760  0.00  0.00    +0.000 C 
ATOM     34  C   UNL     1      36.034 -20.386 -20.355  0.00  0.00    +0.000 C 
ATOM     35  C   UNL     1      35.035 -19.841 -21.371  0.00  0.00    +0.000 C 
ENDBRANCH  29  30
ENDBRANCH   1  29
TORSDOF 9
ENDMDL
MODEL 3
REMARK VINA RESULT:     -10.8      5.176     12.935
REMARK  Name = 6420159
REMARK  9 active torsions:
REMARK  status: ('A' for Active; 'I' for Inactive)
REMARK    1  A    between atoms: C_1  and  N_3
REMARK    2  A    between atoms: C_1  and  C_15
REMARK    3  A    between atoms: C_1  and  C_29
REMARK    4  A    between atoms: N_14  and  C_17
REMARK    5  A    between atoms: C_17  and  C_18
REMARK    6  A    between atoms: C_18  and  N_19
REMARK    7  A    between atoms: N_19  and  C_21
REMARK    8  A    between atoms: C_26  and  O_27
REMARK    9  A    between atoms: C_29  and  C_30
REMARK                            x       y       z     vdW  Elec       q    Type
REMARK                         _______ _______ _______ _____ _____    ______ ____
ROOT
ATOM      1  C   UNL     1      32.358 -13.632 -22.061  0.00  0.00    +0.151 C 
ENDROOT
BRANCH   1   3
ATOM      2  O   UNL     1      32.005 -10.508 -20.175  0.00  0.00    -0.414 OA
ATOM      3  N   UNL     1      32.201 -12.632 -21.026  0.00  0.00    -0.271 N 
ATOM      4  N   UNL     1      32.244 -10.674 -22.423  0.00  0.00    -0.356 NA
ATOM      5  C   UNL     1      32.157 -11.272 -21.277  0.00  0.00    +0.345 C 
ATOM      6  C   UNL     1      31.993  -9.245 -20.693  0.00  0.00    +0.175 C 
ATOM      7  C   UNL     1      32.139  -9.350 -22.069  0.00  0.00    +0.152 C 
ATOM      8  C   UNL     1      31.861  -8.048 -20.001  0.00  0.00    +0.040 C 
ATOM      9  C   UNL     1      32.158  -8.179 -22.840  0.00  0.00    +0.088 C 
ATOM     10  C   UNL     1      31.881  -6.889 -20.784  0.00  0.00    -0.001 C 
ATOM     11  C   UNL     1      32.026  -6.951 -22.176  0.00  0.00    -0.018 C 
ATOM     12  H   UNL     1      32.122 -12.937 -20.094  0.00  0.00    +0.153 HD
ENDBRANCH   1   3
BRANCH   1  15
ATOM     13  O   UNL     1      31.858 -15.717 -20.934  0.00  0.00    -0.273 OA
ATOM     14  N   UNL     1      34.072 -15.202 -21.392  0.00  0.00    -0.301 N 
ATOM     15  C   UNL     1      32.706 -14.961 -21.405  0.00  0.00    +0.240 C 
ATOM     16  H   UNL     1      34.677 -14.538 -21.794  0.00  0.00    +0.150 HD
BRANCH  14  17
ATOM     17  C   UNL     1      34.634 -16.396 -20.809  0.00  0.00    +0.111 C 
BRANCH  17  18
ATOM     18  C   UNL     1      35.192 -17.342 -21.861  0.00  0.00    +0.109 C 
BRANCH  18  19
ATOM     19  N   UNL     1      34.378 -18.530 -21.953  0.00  0.00    -0.331 N 
ATOM     20  H   UNL     1      33.731 -18.594 -22.692  0.00  0.00    +0.147 HD
BRANCH  19  21
ATOM     21  C   UNL     1      34.455 -19.587 -21.060  0.00  0.00    +0.045 C 
ATOM     22  C   UNL     1      35.701 -20.105 -20.659  0.00  0.00    +0.017 C 
ATOM     23  C   UNL     1      33.290 -20.173 -20.531  0.00  0.00    +0.017 C 
ATOM     24  C   UNL     1      35.779 -21.170 -19.761  0.00  0.00    +0.038 C 
ATOM     25  C   UNL     1      33.368 -21.238 -19.633  0.00  0.00    +0.038 C 
ATOM     26  C   UNL     1      34.612 -21.736 -19.249  0.00  0.00    +0.139 C 
BRANCH  26  27
ATOM     27  O   UNL     1      34.687 -22.774 -18.372  0.00  0.00    -0.471 OA
ATOM     28  C   UNL     1      33.468 -23.207 -17.771  0.00  0.00    +0.252 C 
ENDBRANCH  26  27
ENDBRANCH  19  21
ENDBRANCH  18  19
ENDBRANCH  17  18
ENDBRANCH  14  17
ENDBRANCH   1  15
BRANCH   1  29
ATOM     29  C   UNL     1      33.465 -13.222 -23.034  0.00  0.00    +0.029 C 
BRANCH  29  30
ATOM     30  C   UNL     1      33.031 -13.332 -24.494  0.00  0.00    +0.002 C 
ATOM     31  C   UNL     1      33.268 -14.752 -25.024  0.00  0.00    +0.000 C 
ATOM     32  C   UNL     1      33.765 -12.297 -25.358  0.00  0.00    +0.000 C 
ATOM     33  C   UNL     1      32.891 -14.874 -26.499  0.00  0.00    +0.000 C 
ATOM     34  C   UNL     1      33.387 -12.423 -26.832  0.00  0.00    +0.000 C 
ATOM     35  C   UNL     1      33.616 -13.839 -27.353  0.00  0.00    +0.000 C 
ENDBRANCH  29  30
ENDBRANCH   1  29
TORSDOF 9
ENDMDL
MODEL 4
REMARK VINA RESULT:     -10.6      1.281      5.010
REMARK  Name = 6420159
REMARK  9 active torsions:
REMARK  status: ('A' for Active; 'I' for Inactive)
REMARK    1  A    between atoms: C_1  and  N_3
REMARK    2  A    between atoms: C_1  and  C_15
REMARK    3  A    between atoms: C_1  and  C_29
REMARK    4  A    between atoms: N_14  and  C_17
REMARK    5  A    between atoms: C_17  and  C_18
REMARK    6  A    between atoms: C_18  and  N_19
REMARK    7  A    between atoms: N_19  and  C_21
REMARK    8  A    between atoms: C_26  and  O_27
REMARK    9  A    between atoms: C_29  and  C_30
REMARK                            x       y       z     vdW  Elec       q    Type
REMARK                         _______ _______ _______ _____ _____    ______ ____
ROOT
ATOM      1  C   UNL     1      35.560 -22.866 -16.010  0.00  0.00    +0.151 C 
ENDROOT
BRANCH   1   3
ATOM      2  O   UNL     1      32.036 -23.531 -16.772  0.00  0.00    -0.414 OA
ATOM      3  N   UNL     1      34.271 -23.015 -16.651  0.00  0.00    -0.271 N 
ATOM      4  N   UNL     1      33.027 -23.813 -14.753  0.00  0.00    -0.356 NA
ATOM      5  C   UNL     1      33.137 -23.462 -15.995  0.00  0.00    +0.345 C 
ATOM      6  C   UNL     1      31.090 -23.988 -15.900  0.00  0.00    +0.175 C 
ATOM      7  C   UNL     1      31.700 -24.159 -14.665  0.00  0.00    +0.152 C 
ATOM      8  C   UNL     1      29.751 -24.247 -16.163  0.00  0.00    +0.040 C 
ATOM      9  C   UNL     1      30.932 -24.626 -13.589  0.00  0.00    +0.088 C 
ATOM     10  C   UNL     1      28.998 -24.712 -15.079  0.00  0.00    -0.001 C 
ATOM     11  C   UNL     1      29.575 -24.898 -13.817  0.00  0.00    -0.018 C 
ATOM     12  H   UNL     1      34.197 -22.786 -17.605  0.00  0.00    +0.153 HD
ENDBRANCH   1   3
BRANCH   1  15
ATOM     13  O   UNL     1      37.569 -21.635 -16.572  0.00  0.00    -0.273 OA
ATOM     14  N   UNL     1      35.889 -21.810 -18.160  0.00  0.00    -0.301 N 
ATOM     15  C   UNL     1      36.463 -22.045 -16.920  0.00  0.00    +0.240 C 
ATOM     16  H   UNL     1      34.997 -22.179 -18.351  0.00  0.00    +0.150 HD
BRANCH  14  17
ATOM     17  C   UNL     1      36.559 -21.042 -19.182  0.00  0.00    +0.111 C 
BRANCH  17  18
ATOM     18  C   UNL     1      35.621 -20.645 -20.311  0.00  0.00    +0.109 C 
BRANCH  18  19
ATOM     19  N   UNL     1      35.784 -19.247 -20.635  0.00  0.00    -0.331 N 
ATOM     20  H   UNL     1      36.175 -18.655 -19.952  0.00  0.00    +0.147 HD
BRANCH  19  21
ATOM     21  C   UNL     1      35.422 -18.691 -21.851  0.00  0.00    +0.045 C 
ATOM     22  C   UNL     1      35.396 -17.295 -22.028  0.00  0.00    +0.017 C 
ATOM     23  C   UNL     1      35.069 -19.507 -22.942  0.00  0.00    +0.017 C 
ATOM     24  C   UNL     1      35.030 -16.735 -23.252  0.00  0.00    +0.038 C 
ATOM     25  C   UNL     1      34.703 -18.947 -24.166  0.00  0.00    +0.038 C 
ATOM     26  C   UNL     1      34.683 -17.562 -24.321  0.00  0.00    +0.139 C 
BRANCH  26  27
ATOM     27  O   UNL     1      34.327 -17.016 -25.516  0.00  0.00    -0.471 OA
ATOM     28  C   UNL     1      33.762 -15.706 -25.490  0.00  0.00    +0.252 C 
ENDBRANCH  26  27
ENDBRANCH  19  21
ENDBRANCH  18  19
ENDBRANCH  17  18
ENDBRANCH  14  17
ENDBRANCH   1  15
BRANCH   1  29
ATOM     29  C   UNL     1      36.186 -24.237 -15.749  0.00  0.00    +0.029 C 
BRANCH  29  30
ATOM     30  C   UNL     1      36.493 -24.467 -14.270  0.00  0.00    +0.002 C 
ATOM     31  C   UNL     1      36.441 -23.145 -13.494  0.00  0.00    +0.000 C 
ATOM     32  C   UNL     1      37.859 -25.147 -14.099  0.00  0.00    +0.000 C 
ATOM     33  C   UNL     1      36.797 -23.341 -12.022  0.00  0.00    +0.000 C 
ATOM     34  C   UNL     1      38.212 -25.340 -12.627  0.00  0.00    +0.000 C 
ATOM     35  C   UNL     1      38.151 -24.025 -11.856  0.00  0.00    +0.000 C 
ENDBRANCH  29  30
ENDBRANCH   1  29
TORSDOF 9
ENDMDL
MODEL 5
REMARK VINA RESULT:     -10.2      1.255      5.115
REMARK  Name = 6420159
REMARK  9 active torsions:
REMARK  status: ('A' for Active; 'I' for Inactive)
REMARK    1  A    between atoms: C_1  and  N_3
REMARK    2  A    between atoms: C_1  and  C_15
REMARK    3  A    between atoms: C_1  and  C_29
REMARK    4  A    between atoms: N_14  and  C_17
REMARK    5  A    between atoms: C_17  and  C_18
REMARK    6  A    between atoms: C_18  and  N_19
REMARK    7  A    between atoms: N_19  and  C_21
REMARK    8  A    between atoms: C_26  and  O_27
REMARK    9  A    between atoms: C_29  and  C_30
REMARK                            x       y       z     vdW  Elec       q    Type
REMARK                         _______ _______ _______ _____ _____    ______ ____
ROOT
ATOM      1  C   UNL     1      35.101 -22.664 -16.116  0.00  0.00    +0.151 C 
ENDROOT
BRANCH   1   3
ATOM      2  O   UNL     1      32.284 -24.760 -15.062  0.00  0.00    -0.414 OA
ATOM      3  N   UNL     1      34.262 -23.722 -15.594  0.00  0.00    -0.271 N 
ATOM      4  N   UNL     1      32.120 -22.721 -16.037  0.00  0.00    -0.356 NA
ATOM      5  C   UNL     1      32.879 -23.673 -15.594  0.00  0.00    +0.345 C 
ATOM      6  C   UNL     1      30.958 -24.458 -15.184  0.00  0.00    +0.175 C 
ATOM      7  C   UNL     1      30.861 -23.210 -15.782  0.00  0.00    +0.152 C 
ATOM      8  C   UNL     1      29.874 -25.234 -14.794  0.00  0.00    +0.040 C 
ATOM      9  C   UNL     1      29.590 -22.669 -16.020  0.00  0.00    +0.088 C 
ATOM     10  C   UNL     1      28.612 -24.681 -15.038  0.00  0.00    -0.001 C 
ATOM     11  C   UNL     1      28.471 -23.423 -15.639  0.00  0.00    -0.018 C 
ATOM     12  H   UNL     1      34.699 -24.520 -15.219  0.00  0.00    +0.153 HD
ENDBRANCH   1   3
BRANCH   1  15
ATOM     13  O   UNL     1      34.266 -23.437 -18.254  0.00  0.00    -0.273 OA
ATOM     14  N   UNL     1      35.817 -21.714 -18.221  0.00  0.00    -0.301 N 
ATOM     15  C   UNL     1      34.995 -22.665 -17.635  0.00  0.00    +0.240 C 
ATOM     16  H   UNL     1      36.368 -21.138 -17.644  0.00  0.00    +0.150 HD
BRANCH  14  17
ATOM     17  C   UNL     1      35.891 -21.542 -19.652  0.00  0.00    +0.111 C 
BRANCH  17  18
ATOM     18  C   UNL     1      34.904 -20.501 -20.158  0.00  0.00    +0.109 C 
BRANCH  18  19
ATOM     19  N   UNL     1      35.606 -19.355 -20.684  0.00  0.00    -0.331 N 
ATOM     20  H   UNL     1      36.340 -18.974 -20.150  0.00  0.00    +0.147 HD
BRANCH  19  21
ATOM     21  C   UNL     1      35.306 -18.759 -21.899  0.00  0.00    +0.045 C 
ATOM     22  C   UNL     1      34.982 -19.538 -23.025  0.00  0.00    +0.017 C 
ATOM     23  C   UNL     1      35.319 -17.359 -22.040  0.00  0.00    +0.017 C 
ATOM     24  C   UNL     1      34.681 -18.939 -24.248  0.00  0.00    +0.038 C 
ATOM     25  C   UNL     1      35.018 -16.759 -23.263  0.00  0.00    +0.038 C 
ATOM     26  C   UNL     1      34.699 -17.549 -24.367  0.00  0.00    +0.139 C 
BRANCH  26  27
ATOM     27  O   UNL     1      34.404 -16.964 -25.559  0.00  0.00    -0.471 OA
ATOM     28  C   UNL     1      33.711 -15.717 -25.518  0.00  0.00    +0.252 C 
ENDBRANCH  26  27
ENDBRANCH  19  21
ENDBRANCH  18  19
ENDBRANCH  17  18
ENDBRANCH  14  17
ENDBRANCH   1  15
BRANCH   1  29
ATOM     29  C   UNL     1      36.555 -22.878 -15.691  0.00  0.00    +0.029 C 
BRANCH  29  30
ATOM     30  C   UNL     1      36.695 -23.940 -14.603  0.00  0.00    +0.002 C 
ATOM     31  C   UNL     1      37.116 -23.301 -13.273  0.00  0.00    +0.000 C 
ATOM     32  C   UNL     1      37.695 -25.024 -15.028  0.00  0.00    +0.000 C 
ATOM     33  C   UNL     1      37.315 -24.350 -12.181  0.00  0.00    +0.000 C 
ATOM     34  C   UNL     1      37.893 -26.070 -13.934  0.00  0.00    +0.000 C 
ATOM     35  C   UNL     1      38.303 -25.430 -12.611  0.00  0.00    +0.000 C 
ENDBRANCH  29  30
ENDBRANCH   1  29
TORSDOF 9
ENDMDL
MODEL 6
REMARK VINA RESULT:     -10.1      8.486     15.944
REMARK  Name = 6420159
REMARK  9 active torsions:
REMARK  status: ('A' for Active; 'I' for Inactive)
REMARK    1  A    between atoms: C_1  and  N_3
REMARK    2  A    between atoms: C_1  and  C_15
REMARK    3  A    between atoms: C_1  and  C_29
REMARK    4  A    between atoms: N_14  and  C_17
REMARK    5  A    between atoms: C_17  and  C_18
REMARK    6  A    between atoms: C_18  and  N_19
REMARK    7  A    between atoms: N_19  and  C_21
REMARK    8  A    between atoms: C_26  and  O_27
REMARK    9  A    between atoms: C_29  and  C_30
REMARK                            x       y       z     vdW  Elec       q    Type
REMARK                         _______ _______ _______ _____ _____    ______ ____
ROOT
ATOM      1  C   UNL     1      33.124  -8.531 -23.455  0.00  0.00    +0.151 C 
ENDROOT
BRANCH   1   3
ATOM      2  O   UNL     1      32.587  -5.307 -25.115  0.00  0.00    -0.414 OA
ATOM      3  N   UNL     1      33.089  -7.427 -24.392  0.00  0.00    -0.271 N 
ATOM      4  N   UNL     1      31.935  -5.832 -23.009  0.00  0.00    -0.356 NA
ATOM      5  C   UNL     1      32.516  -6.201 -24.107  0.00  0.00    +0.345 C 
ATOM      6  C   UNL     1      31.965  -4.214 -24.583  0.00  0.00    +0.175 C 
ATOM      7  C   UNL     1      31.567  -4.539 -23.294  0.00  0.00    +0.152 C 
ATOM      8  C   UNL     1      31.749  -2.983 -25.190  0.00  0.00    +0.040 C 
ATOM      9  C   UNL     1      30.898  -3.575 -22.528  0.00  0.00    +0.088 C 
ATOM     10  C   UNL     1      31.081  -2.032 -24.412  0.00  0.00    -0.001 C 
ATOM     11  C   UNL     1      30.662  -2.320 -23.107  0.00  0.00    -0.018 C 
ATOM     12  H   UNL     1      33.495  -7.557 -25.279  0.00  0.00    +0.153 HD
ENDBRANCH   1   3
BRANCH   1  15
ATOM     13  O   UNL     1      35.321  -9.394 -24.000  0.00  0.00    -0.273 OA
ATOM     14  N   UNL     1      33.468 -10.727 -24.406  0.00  0.00    -0.301 N 
ATOM     15  C   UNL     1      34.105  -9.575 -23.971  0.00  0.00    +0.240 C 
ATOM     16  H   UNL     1      32.487 -10.783 -24.343  0.00  0.00    +0.150 HD
BRANCH  14  17
ATOM     17  C   UNL     1      34.197 -11.849 -24.947  0.00  0.00    +0.111 C 
BRANCH  17  18
ATOM     18  C   UNL     1      33.443 -13.159 -24.784  0.00  0.00    +0.109 C 
BRANCH  18  19
ATOM     19  N   UNL     1      33.183 -13.421 -23.388  0.00  0.00    -0.331 N 
ATOM     20  H   UNL     1      32.565 -12.822 -22.910  0.00  0.00    +0.147 HD
BRANCH  19  21
ATOM     21  C   UNL     1      33.756 -14.467 -22.682  0.00  0.00    +0.045 C 
ATOM     22  C   UNL     1      33.699 -14.506 -21.276  0.00  0.00    +0.017 C 
ATOM     23  C   UNL     1      34.411 -15.517 -23.351  0.00  0.00    +0.017 C 
ATOM     24  C   UNL     1      34.276 -15.558 -20.565  0.00  0.00    +0.038 C 
ATOM     25  C   UNL     1      34.988 -16.569 -22.640  0.00  0.00    +0.038 C 
ATOM     26  C   UNL     1      34.921 -16.589 -21.247  0.00  0.00    +0.139 C 
BRANCH  26  27
ATOM     27  O   UNL     1      35.484 -17.617 -20.554  0.00  0.00    -0.471 OA
ATOM     28  C   UNL     1      36.135 -18.634 -21.314  0.00  0.00    +0.252 C 
ENDBRANCH  26  27
ENDBRANCH  19  21
ENDBRANCH  18  19
ENDBRANCH  17  18
ENDBRANCH  14  17
ENDBRANCH   1  15
BRANCH   1  29
ATOM     29  C   UNL     1      31.732  -9.147 -23.305  0.00  0.00    +0.029 C 
BRANCH  29  30
ATOM     30  C   UNL     1      31.353  -9.387 -21.846  0.00  0.00    +0.002 C 
ATOM     31  C   UNL     1      32.328  -8.665 -20.906  0.00  0.00    +0.000 C 
ATOM     32  C   UNL     1      31.308 -10.889 -21.536  0.00  0.00    +0.000 C 
ATOM     33  C   UNL     1      32.000  -8.933 -19.439  0.00  0.00    +0.000 C 
ATOM     34  C   UNL     1      30.983 -11.154 -20.069  0.00  0.00    +0.000 C 
ATOM     35  C   UNL     1      31.949 -10.428 -19.138  0.00  0.00    +0.000 C 
ENDBRANCH  29  30
ENDBRANCH   1  29
TORSDOF 9
ENDMDL
MODEL 7
REMARK VINA RESULT:      -9.9      2.632      7.502
REMARK  Name = 6420159
REMARK  9 active torsions:
REMARK  status: ('A' for Active; 'I' for Inactive)
REMARK    1  A    between atoms: C_1  and  N_3
REMARK    2  A    between atoms: C_1  and  C_15
REMARK    3  A    between atoms: C_1  and  C_29
REMARK    4  A    between atoms: N_14  and  C_17
REMARK    5  A    between atoms: C_17  and  C_18
REMARK    6  A    between atoms: C_18  and  N_19
REMARK    7  A    between atoms: N_19  and  C_21
REMARK    8  A    between atoms: C_26  and  O_27
REMARK    9  A    between atoms: C_29  and  C_30
REMARK                            x       y       z     vdW  Elec       q    Type
REMARK                         _______ _______ _______ _____ _____    ______ ____
ROOT
ATOM      1  C   UNL     1      35.820 -21.910 -17.966  0.00  0.00    +0.151 C 
ENDROOT
BRANCH   1   3
ATOM      2  O   UNL     1      37.906 -23.719 -15.554  0.00  0.00    -0.414 OA
ATOM      3  N   UNL     1      36.866 -22.667 -17.311  0.00  0.00    -0.271 N 
ATOM      4  N   UNL     1      35.915 -22.734 -15.102  0.00  0.00    -0.356 NA
ATOM      5  C   UNL     1      36.835 -23.011 -15.971  0.00  0.00    +0.345 C 
ATOM      6  C   UNL     1      37.628 -23.920 -14.232  0.00  0.00    +0.175 C 
ATOM      7  C   UNL     1      36.409 -23.316 -13.959  0.00  0.00    +0.152 C 
ATOM      8  C   UNL     1      38.400 -24.601 -13.300  0.00  0.00    +0.040 C 
ATOM      9  C   UNL     1      35.897 -23.383 -12.656  0.00  0.00    +0.088 C 
ATOM     10  C   UNL     1      37.876 -24.659 -12.004  0.00  0.00    -0.001 C 
ATOM     11  C   UNL     1      36.649 -24.062 -11.686  0.00  0.00    -0.018 C 
ATOM     12  H   UNL     1      37.639 -22.953 -17.848  0.00  0.00    +0.153 HD
ENDBRANCH   1   3
BRANCH   1  15
ATOM     13  O   UNL     1      34.289 -23.472 -19.006  0.00  0.00    -0.273 OA
ATOM     14  N   UNL     1      33.786 -22.658 -16.894  0.00  0.00    -0.301 N 
ATOM     15  C   UNL     1      34.566 -22.771 -18.035  0.00  0.00    +0.240 C 
ATOM     16  H   UNL     1      34.089 -22.071 -16.165  0.00  0.00    +0.150 HD
BRANCH  14  17
ATOM     17  C   UNL     1      32.543 -23.375 -16.742  0.00  0.00    +0.111 C 
BRANCH  17  18
ATOM     18  C   UNL     1      32.297 -23.801 -15.303  0.00  0.00    +0.109 C 
BRANCH  18  19
ATOM     19  N   UNL     1      30.999 -24.418 -15.175  0.00  0.00    -0.331 N 
ATOM     20  H   UNL     1      30.952 -25.331 -14.806  0.00  0.00    +0.147 HD
BRANCH  19  21
ATOM     21  C   UNL     1      29.813 -23.801 -15.541  0.00  0.00    +0.045 C 
ATOM     22  C   UNL     1      29.016 -24.324 -16.576  0.00  0.00    +0.017 C 
ATOM     23  C   UNL     1      29.376 -22.633 -14.890  0.00  0.00    +0.017 C 
ATOM     24  C   UNL     1      27.824 -23.702 -16.946  0.00  0.00    +0.038 C 
ATOM     25  C   UNL     1      28.184 -22.010 -15.260  0.00  0.00    +0.038 C 
ATOM     26  C   UNL     1      27.408 -22.545 -16.288  0.00  0.00    +0.139 C 
BRANCH  26  27
ATOM     27  O   UNL     1      26.244 -21.938 -16.648  0.00  0.00    -0.471 OA
ATOM     28  C   UNL     1      26.196 -21.337 -17.941  0.00  0.00    +0.252 C 
ENDBRANCH  26  27
ENDBRANCH  19  21
ENDBRANCH  18  19
ENDBRANCH  17  18
ENDBRANCH  14  17
ENDBRANCH   1  15
BRANCH   1  29
ATOM     29  C   UNL     1      36.258 -21.507 -19.376  0.00  0.00    +0.029 C 
BRANCH  29  30
ATOM     30  C   UNL     1      35.582 -20.224 -19.854  0.00  0.00    +0.002 C 
ATOM     31  C   UNL     1      34.260 -20.540 -20.564  0.00  0.00    +0.000 C 
ATOM     32  C   UNL     1      36.518 -19.427 -20.773  0.00  0.00    +0.000 C 
ATOM     33  C   UNL     1      33.590 -19.276 -21.098  0.00  0.00    +0.000 C 
ATOM     34  C   UNL     1      35.845 -18.166 -21.307  0.00  0.00    +0.000 C 
ATOM     35  C   UNL     1      34.526 -18.483 -22.004  0.00  0.00    +0.000 C 
ENDBRANCH  29  30
ENDBRANCH   1  29
TORSDOF 9
ENDMDL
MODEL 8
REMARK VINA RESULT:      -9.7      1.977      2.997
REMARK  Name = 6420159
REMARK  9 active torsions:
REMARK  status: ('A' for Active; 'I' for Inactive)
REMARK    1  A    between atoms: C_1  and  N_3
REMARK    2  A    between atoms: C_1  and  C_15
REMARK    3  A    between atoms: C_1  and  C_29
REMARK    4  A    between atoms: N_14  and  C_17
REMARK    5  A    between atoms: C_17  and  C_18
REMARK    6  A    between atoms: C_18  and  N_19
REMARK    7  A    between atoms: N_19  and  C_21
REMARK    8  A    between atoms: C_26  and  O_27
REMARK    9  A    between atoms: C_29  and  C_30
REMARK                            x       y       z     vdW  Elec       q    Type
REMARK                         _______ _______ _______ _____ _____    ______ ____
ROOT
ATOM      1  C   UNL     1      33.514 -24.720 -14.703  0.00  0.00    +0.151 C 
ENDROOT
BRANCH   1   3
ATOM      2  O   UNL     1      36.659 -25.356 -12.929  0.00  0.00    -0.414 OA
ATOM      3  N   UNL     1      34.528 -25.001 -13.709  0.00  0.00    -0.271 N 
ATOM      4  N   UNL     1      36.456 -24.933 -15.147  0.00  0.00    -0.356 NA
ATOM      5  C   UNL     1      35.879 -25.084 -13.996  0.00  0.00    +0.345 C 
ATOM      6  C   UNL     1      37.909 -25.381 -13.478  0.00  0.00    +0.175 C 
ATOM      7  C   UNL     1      37.781 -25.122 -14.835  0.00  0.00    +0.152 C 
ATOM      8  C   UNL     1      39.114 -25.619 -12.829  0.00  0.00    +0.040 C 
ATOM      9  C   UNL     1      38.934 -25.093 -15.631  0.00  0.00    +0.088 C 
ATOM     10  C   UNL     1      40.255 -25.586 -13.637  0.00  0.00    -0.001 C 
ATOM     11  C   UNL     1      40.170 -25.328 -15.011  0.00  0.00    -0.018 C 
ATOM     12  H   UNL     1      34.241 -25.141 -12.778  0.00  0.00    +0.153 HD
ENDBRANCH   1   3
BRANCH   1  15
ATOM     13  O   UNL     1      34.137 -22.390 -14.931  0.00  0.00    -0.273 OA
ATOM     14  N   UNL     1      34.010 -23.700 -16.839  0.00  0.00    -0.301 N 
ATOM     15  C   UNL     1      33.923 -23.472 -15.474  0.00  0.00    +0.240 C 
ATOM     16  H   UNL     1      33.821 -24.601 -17.185  0.00  0.00    +0.150 HD
BRANCH  14  17
ATOM     17  C   UNL     1      34.370 -22.657 -17.770  0.00  0.00    +0.111 C 
BRANCH  17  18
ATOM     18  C   UNL     1      33.821 -22.915 -19.164  0.00  0.00    +0.109 C 
BRANCH  18  19
ATOM     19  N   UNL     1      33.134 -21.746 -19.660  0.00  0.00    -0.331 N 
ATOM     20  H   UNL     1      32.152 -21.720 -19.592  0.00  0.00    +0.147 HD
BRANCH  19  21
ATOM     21  C   UNL     1      33.778 -20.657 -20.226  0.00  0.00    +0.045 C 
ATOM     22  C   UNL     1      35.183 -20.606 -20.299  0.00  0.00    +0.017 C 
ATOM     23  C   UNL     1      33.045 -19.572 -20.741  0.00  0.00    +0.017 C 
ATOM     24  C   UNL     1      35.831 -19.510 -20.868  0.00  0.00    +0.038 C 
ATOM     25  C   UNL     1      33.693 -18.475 -21.310  0.00  0.00    +0.038 C 
ATOM     26  C   UNL     1      35.086 -18.444 -21.373  0.00  0.00    +0.139 C 
BRANCH  26  27
ATOM     27  O   UNL     1      35.718 -17.375 -21.929  0.00  0.00    -0.471 OA
ATOM     28  C   UNL     1      34.924 -16.488 -22.715  0.00  0.00    +0.252 C 
ENDBRANCH  26  27
ENDBRANCH  19  21
ENDBRANCH  18  19
ENDBRANCH  17  18
ENDBRANCH  14  17
ENDBRANCH   1  15
BRANCH   1  29
ATOM     29  C   UNL     1      32.157 -24.501 -14.033  0.00  0.00    +0.029 C 
BRANCH  29  30
ATOM     30  C   UNL     1      31.067 -24.118 -15.031  0.00  0.00    +0.002 C 
ATOM     31  C   UNL     1      30.443 -22.766 -14.660  0.00  0.00    +0.000 C 
ATOM     32  C   UNL     1      29.993 -25.212 -15.109  0.00  0.00    +0.000 C 
ATOM     33  C   UNL     1      29.313 -22.386 -15.615  0.00  0.00    +0.000 C 
ATOM     34  C   UNL     1      28.864 -24.827 -16.061  0.00  0.00    +0.000 C 
ATOM     35  C   UNL     1      28.252 -23.479 -15.695  0.00  0.00    +0.000 C 
ENDBRANCH  29  30
ENDBRANCH   1  29
TORSDOF 9
ENDMDL
MODEL 9
REMARK VINA RESULT:      -9.7      5.422     10.408
REMARK  Name = 6420159
REMARK  9 active torsions:
REMARK  status: ('A' for Active; 'I' for Inactive)
REMARK    1  A    between atoms: C_1  and  N_3
REMARK    2  A    between atoms: C_1  and  C_15
REMARK    3  A    between atoms: C_1  and  C_29
REMARK    4  A    between atoms: N_14  and  C_17
REMARK    5  A    between atoms: C_17  and  C_18
REMARK    6  A    between atoms: C_18  and  N_19
REMARK    7  A    between atoms: N_19  and  C_21
REMARK    8  A    between atoms: C_26  and  O_27
REMARK    9  A    between atoms: C_29  and  C_30
REMARK                            x       y       z     vdW  Elec       q    Type
REMARK                         _______ _______ _______ _____ _____    ______ ____
ROOT
ATOM      1  C   UNL     1      34.909 -15.606 -22.825  0.00  0.00    +0.151 C 
ENDROOT
BRANCH   1   3
ATOM      2  O   UNL     1      36.091 -18.849 -21.590  0.00  0.00    -0.414 OA
ATOM      3  N   UNL     1      35.700 -16.769 -22.481  0.00  0.00    -0.271 N 
ATOM      4  N   UNL     1      33.976 -18.056 -21.404  0.00  0.00    -0.356 NA
ATOM      5  C   UNL     1      35.190 -17.871 -21.817  0.00  0.00    +0.345 C 
ATOM      6  C   UNL     1      35.344 -19.791 -20.941  0.00  0.00    +0.175 C 
ATOM      7  C   UNL     1      34.051 -19.302 -20.829  0.00  0.00    +0.152 C 
ATOM      8  C   UNL     1      35.767 -21.025 -20.464  0.00  0.00    +0.040 C 
ATOM      9  C   UNL     1      33.081 -20.090 -20.193  0.00  0.00    +0.088 C 
ATOM     10  C   UNL     1      34.788 -21.799 -19.833  0.00  0.00    -0.001 C 
ATOM     11  C   UNL     1      33.471 -21.343 -19.699  0.00  0.00    -0.018 C 
ATOM     12  H   UNL     1      36.651 -16.776 -22.731  0.00  0.00    +0.153 HD
ENDBRANCH   1   3
BRANCH   1  15
ATOM     13  O   UNL     1      34.923 -14.691 -20.582  0.00  0.00    -0.273 OA
ATOM     14  N   UNL     1      32.884 -15.045 -21.628  0.00  0.00    -0.301 N 
ATOM     15  C   UNL     1      34.269 -15.060 -21.556  0.00  0.00    +0.240 C 
ATOM     16  H   UNL     1      32.446 -15.361 -22.451  0.00  0.00    +0.150 HD
BRANCH  14  17
ATOM     17  C   UNL     1      32.064 -14.579 -20.536  0.00  0.00    +0.111 C 
BRANCH  17  18
ATOM     18  C   UNL     1      32.310 -13.113 -20.217  0.00  0.00    +0.109 C 
BRANCH  18  19
ATOM     19  N   UNL     1      31.582 -12.269 -21.134  0.00  0.00    -0.331 N 
ATOM     20  H   UNL     1      30.937 -12.694 -21.745  0.00  0.00    +0.147 HD
BRANCH  19  21
ATOM     21  C   UNL     1      31.739 -10.894 -21.205  0.00  0.00    +0.045 C 
ATOM     22  C   UNL     1      31.835 -10.116 -20.036  0.00  0.00    +0.017 C 
ATOM     23  C   UNL     1      31.807 -10.238 -22.448  0.00  0.00    +0.017 C 
ATOM     24  C   UNL     1      31.992  -8.732 -20.107  0.00  0.00    +0.038 C 
ATOM     25  C   UNL     1      31.964  -8.853 -22.519  0.00  0.00    +0.038 C 
ATOM     26  C   UNL     1      32.056  -8.101 -21.349  0.00  0.00    +0.139 C 
BRANCH  26  27
ATOM     27  O   UNL     1      32.211  -6.751 -21.420  0.00  0.00    -0.471 OA
ATOM     28  C   UNL     1      31.719  -6.100 -22.590  0.00  0.00    +0.252 C 
ENDBRANCH  26  27
ENDBRANCH  19  21
ENDBRANCH  18  19
ENDBRANCH  17  18
ENDBRANCH  14  17
ENDBRANCH   1  15
BRANCH   1  29
ATOM     29  C   UNL     1      33.828 -15.979 -23.840  0.00  0.00    +0.029 C 
BRANCH  29  30
ATOM     30  C   UNL     1      33.302 -14.767 -24.607  0.00  0.00    +0.002 C 
ATOM     31  C   UNL     1      33.340 -15.024 -26.119  0.00  0.00    +0.000 C 
ATOM     32  C   UNL     1      34.103 -13.508 -24.247  0.00  0.00    +0.000 C 
ATOM     33  C   UNL     1      32.869 -13.806 -26.910  0.00  0.00    +0.000 C 
ATOM     34  C   UNL     1      33.632 -12.293 -25.041  0.00  0.00    +0.000 C 
ATOM     35  C   UNL     1      33.662 -12.556 -26.543  0.00  0.00    +0.000 C 
ENDBRANCH  29  30
ENDBRANCH   1  29
TORSDOF 9
ENDMDL
