MODEL 1
REMARK VINA RESULT:      -9.7      0.000      0.000
REMARK  Name = 68749
REMARK  6 active torsions:
REMARK  status: ('A' for Active; 'I' for Inactive)
REMARK    1  A    between atoms: C_2  and  C_3
REMARK    2  A    between atoms: C_2  and  O_13
REMARK    3  A    between atoms: C_4  and  O_9
REMARK    4  A    between atoms: O_9  and  C_11
REMARK    5  A    between atoms: O_13  and  C_14
REMARK    6  A    between atoms: C_15  and  O_20
REMARK                            x       y       z     vdW  Elec       q    Type
REMARK                         _______ _______ _______ _____ _____    ______ ____
ROOT
ATOM      1  O   UNL     1      33.751 -23.832 -18.515  0.00  0.00    -0.244 OA
ATOM      2  C   UNL     1      33.288 -22.691 -18.638  0.00  0.00    +0.349 C 
ENDROOT
BRANCH   2   3
ATOM      3  C   UNL     1      33.916 -21.631 -19.414  0.00  0.00    +0.111 C 
ATOM      4  C   UNL     1      35.301 -21.469 -19.418  0.00  0.00    +0.155 C 
ATOM      5  C   UNL     1      33.111 -20.769 -20.160  0.00  0.00    +0.010 C 
ATOM      6  C   UNL     1      35.882 -20.447 -20.167  0.00  0.00    +0.038 C 
ATOM      7  C   UNL     1      33.693 -19.745 -20.909  0.00  0.00    +0.000 C 
ATOM      8  C   UNL     1      35.079 -19.585 -20.913  0.00  0.00    +0.003 C 
BRANCH   4   9
ATOM      9  O   UNL     1      36.104 -22.300 -18.695  0.00  0.00    -0.424 OA
BRANCH   9  11
ATOM     10  O   UNL     1      37.219 -20.623 -17.503  0.00  0.00    -0.250 OA
ATOM     11  C   UNL     1      36.655 -21.708 -17.548  0.00  0.00    +0.322 C 
ATOM     12  C   UNL     1      36.454 -22.604 -16.362  0.00  0.00    +0.122 C 
ENDBRANCH   9  11
ENDBRANCH   4   9
ENDBRANCH   2   3
BRANCH   2  13
ATOM     13  O   UNL     1      32.098 -22.252 -18.065  0.00  0.00    -0.418 OA
BRANCH  13  14
ATOM     14  C   UNL     1      31.837 -22.796 -16.804  0.00  0.00    +0.182 C 
ATOM     15  C   UNL     1      30.534 -22.903 -16.372  0.00  0.00    +0.173 C 
ATOM     16  C   UNL     1      32.907 -23.208 -16.039  0.00  0.00    +0.041 C 
ATOM     17  C   UNL     1      30.286 -23.447 -15.112  0.00  0.00    +0.040 C 
ATOM     18  C   UNL     1      32.660 -23.752 -14.779  0.00  0.00    +0.003 C 
ATOM     19  C   UNL     1      31.350 -23.872 -14.316  0.00  0.00    +0.003 C 
BRANCH  15  20
ATOM     20  O   UNL     1      29.486 -22.492 -17.141  0.00  0.00    -0.468 OA
ATOM     21  C   UNL     1      28.219 -23.093 -16.885  0.00  0.00    +0.253 C 
ENDBRANCH  15  20
ENDBRANCH  13  14
ENDBRANCH   2  13
TORSDOF 6
ENDMDL
MODEL 2
REMARK VINA RESULT:      -9.5      4.113      7.037
REMARK  Name = 68749
REMARK  6 active torsions:
REMARK  status: ('A' for Active; 'I' for Inactive)
REMARK    1  A    between atoms: C_2  and  C_3
REMARK    2  A    between atoms: C_2  and  O_13
REMARK    3  A    between atoms: C_4  and  O_9
REMARK    4  A    between atoms: O_9  and  C_11
REMARK    5  A    between atoms: O_13  and  C_14
REMARK    6  A    between atoms: C_15  and  O_20
REMARK                            x       y       z     vdW  Elec       q    Type
REMARK                         _______ _______ _______ _____ _____    ______ ____
ROOT
ATOM      1  O   UNL     1      35.349 -16.800 -20.378  0.00  0.00    -0.244 OA
ATOM      2  C   UNL     1      35.345 -17.528 -21.380  0.00  0.00    +0.349 C 
ENDROOT
BRANCH   2   3
ATOM      3  C   UNL     1      34.933 -17.094 -22.707  0.00  0.00    +0.111 C 
ATOM      4  C   UNL     1      34.332 -15.851 -22.900  0.00  0.00    +0.155 C 
ATOM      5  C   UNL     1      35.147 -17.942 -23.794  0.00  0.00    +0.010 C 
ATOM      6  C   UNL     1      33.944 -15.455 -24.179  0.00  0.00    +0.038 C 
ATOM      7  C   UNL     1      34.758 -17.546 -25.075  0.00  0.00    +0.000 C 
ATOM      8  C   UNL     1      34.157 -16.302 -25.267  0.00  0.00    +0.003 C 
BRANCH   4   9
ATOM      9  O   UNL     1      34.113 -15.009 -21.851  0.00  0.00    -0.424 OA
BRANCH   9  11
ATOM     10  O   UNL     1      32.018 -15.766 -21.134  0.00  0.00    -0.250 OA
ATOM     11  C   UNL     1      32.760 -14.866 -21.504  0.00  0.00    +0.322 C 
ATOM     12  C   UNL     1      32.342 -13.434 -21.652  0.00  0.00    +0.122 C 
ENDBRANCH   9  11
ENDBRANCH   4   9
ENDBRANCH   2   3
BRANCH   2  13
ATOM     13  O   UNL     1      35.741 -18.863 -21.391  0.00  0.00    -0.418 OA
BRANCH  13  14
ATOM     14  C   UNL     1      34.829 -19.734 -20.790  0.00  0.00    +0.182 C 
ATOM     15  C   UNL     1      35.283 -20.668 -19.887  0.00  0.00    +0.173 C 
ATOM     16  C   UNL     1      33.498 -19.620 -21.132  0.00  0.00    +0.041 C 
ATOM     17  C   UNL     1      34.362 -21.533 -19.294  0.00  0.00    +0.040 C 
ATOM     18  C   UNL     1      32.577 -20.485 -20.540  0.00  0.00    +0.003 C 
ATOM     19  C   UNL     1      33.010 -21.441 -19.621  0.00  0.00    +0.003 C 
BRANCH  15  20
ATOM     20  O   UNL     1      36.602 -20.768 -19.559  0.00  0.00    -0.468 OA
ATOM     21  C   UNL     1      36.916 -21.408 -18.324  0.00  0.00    +0.253 C 
ENDBRANCH  15  20
ENDBRANCH  13  14
ENDBRANCH   2  13
TORSDOF 6
ENDMDL
MODEL 3
REMARK VINA RESULT:      -9.3      4.761      7.403
REMARK  Name = 68749
REMARK  6 active torsions:
REMARK  status: ('A' for Active; 'I' for Inactive)
REMARK    1  A    between atoms: C_2  and  C_3
REMARK    2  A    between atoms: C_2  and  O_13
REMARK    3  A    between atoms: C_4  and  O_9
REMARK    4  A    between atoms: O_9  and  C_11
REMARK    5  A    between atoms: O_13  and  C_14
REMARK    6  A    between atoms: C_15  and  O_20
REMARK                            x       y       z     vdW  Elec       q    Type
REMARK                         _______ _______ _______ _____ _____    ______ ____
ROOT
ATOM      1  O   UNL     1      35.182 -16.322 -20.111  0.00  0.00    -0.244 OA
ATOM      2  C   UNL     1      34.435 -16.565 -21.067  0.00  0.00    +0.349 C 
ENDROOT
BRANCH   2   3
ATOM      3  C   UNL     1      33.836 -15.548 -21.919  0.00  0.00    +0.111 C 
ATOM      4  C   UNL     1      34.221 -15.411 -23.252  0.00  0.00    +0.155 C 
ATOM      5  C   UNL     1      32.863 -14.703 -21.384  0.00  0.00    +0.010 C 
ATOM      6  C   UNL     1      33.636 -14.430 -24.051  0.00  0.00    +0.038 C 
ATOM      7  C   UNL     1      32.277 -13.721 -22.183  0.00  0.00    +0.000 C 
ATOM      8  C   UNL     1      32.663 -13.584 -23.517  0.00  0.00    +0.003 C 
BRANCH   4   9
ATOM      9  O   UNL     1      35.171 -16.226 -23.793  0.00  0.00    -0.424 OA
BRANCH   9  11
ATOM     10  O   UNL     1      34.569 -16.383 -26.049  0.00  0.00    -0.250 OA
ATOM     11  C   UNL     1      34.755 -16.897 -24.954  0.00  0.00    +0.322 C 
ATOM     12  C   UNL     1      34.567 -18.356 -24.663  0.00  0.00    +0.122 C 
ENDBRANCH   9  11
ENDBRANCH   4   9
ENDBRANCH   2   3
BRANCH   2  13
ATOM     13  O   UNL     1      34.064 -17.843 -21.479  0.00  0.00    -0.418 OA
BRANCH  13  14
ATOM     14  C   UNL     1      34.919 -18.856 -21.037  0.00  0.00    +0.182 C 
ATOM     15  C   UNL     1      34.388 -19.966 -20.421  0.00  0.00    +0.173 C 
ATOM     16  C   UNL     1      36.274 -18.697 -21.238  0.00  0.00    +0.041 C 
ATOM     17  C   UNL     1      35.252 -20.970 -19.983  0.00  0.00    +0.040 C 
ATOM     18  C   UNL     1      37.138 -19.701 -20.801  0.00  0.00    +0.003 C 
ATOM     19  C   UNL     1      36.627 -20.837 -20.173  0.00  0.00    +0.003 C 
BRANCH  15  20
ATOM     20  O   UNL     1      33.046 -20.108 -20.229  0.00  0.00    -0.468 OA
ATOM     21  C   UNL     1      32.623 -21.157 -19.361  0.00  0.00    +0.253 C 
ENDBRANCH  15  20
ENDBRANCH  13  14
ENDBRANCH   2  13
TORSDOF 6
ENDMDL
MODEL 4
REMARK VINA RESULT:      -9.3      4.177      6.827
REMARK  Name = 68749
REMARK  6 active torsions:
REMARK  status: ('A' for Active; 'I' for Inactive)
REMARK    1  A    between atoms: C_2  and  C_3
REMARK    2  A    between atoms: C_2  and  O_13
REMARK    3  A    between atoms: C_4  and  O_9
REMARK    4  A    between atoms: O_9  and  C_11
REMARK    5  A    between atoms: O_13  and  C_14
REMARK    6  A    between atoms: C_15  and  O_20
REMARK                            x       y       z     vdW  Elec       q    Type
REMARK                         _______ _______ _______ _____ _____    ______ ____
ROOT
ATOM      1  O   UNL     1      35.397 -17.138 -20.430  0.00  0.00    -0.244 OA
ATOM      2  C   UNL     1      35.460 -17.681 -21.541  0.00  0.00    +0.349 C 
ENDROOT
BRANCH   2   3
ATOM      3  C   UNL     1      34.934 -17.100 -22.768  0.00  0.00    +0.111 C 
ATOM      4  C   UNL     1      34.298 -15.859 -22.758  0.00  0.00    +0.155 C 
ATOM      5  C   UNL     1      35.074 -17.802 -23.965  0.00  0.00    +0.010 C 
ATOM      6  C   UNL     1      33.800 -15.320 -23.944  0.00  0.00    +0.038 C 
ATOM      7  C   UNL     1      34.577 -17.263 -25.152  0.00  0.00    +0.000 C 
ATOM      8  C   UNL     1      33.940 -16.022 -25.141  0.00  0.00    +0.003 C 
BRANCH   4   9
ATOM      9  O   UNL     1      34.150 -15.158 -21.599  0.00  0.00    -0.424 OA
BRANCH   9  11
ATOM     10  O   UNL     1      32.035 -15.939 -20.971  0.00  0.00    -0.250 OA
ATOM     11  C   UNL     1      32.817 -15.021 -21.178  0.00  0.00    +0.322 C 
ATOM     12  C   UNL     1      32.478 -13.570 -21.015  0.00  0.00    +0.122 C 
ENDBRANCH   9  11
ENDBRANCH   4   9
ENDBRANCH   2   3
BRANCH   2  13
ATOM     13  O   UNL     1      36.048 -18.918 -21.787  0.00  0.00    -0.418 OA
BRANCH  13  14
ATOM     14  C   UNL     1      35.793 -19.877 -20.803  0.00  0.00    +0.182 C 
ATOM     15  C   UNL     1      34.509 -20.344 -20.632  0.00  0.00    +0.173 C 
ATOM     16  C   UNL     1      36.850 -20.319 -20.036  0.00  0.00    +0.041 C 
ATOM     17  C   UNL     1      34.267 -21.300 -19.646  0.00  0.00    +0.040 C 
ATOM     18  C   UNL     1      36.608 -21.275 -19.049  0.00  0.00    +0.003 C 
ATOM     19  C   UNL     1      35.317 -21.766 -18.854  0.00  0.00    +0.003 C 
BRANCH  15  20
ATOM     20  O   UNL     1      33.475 -19.898 -21.399  0.00  0.00    -0.468 OA
ATOM     21  C   UNL     1      32.302 -19.463 -20.715  0.00  0.00    +0.253 C 
ENDBRANCH  15  20
ENDBRANCH  13  14
ENDBRANCH   2  13
TORSDOF 6
ENDMDL
MODEL 5
REMARK VINA RESULT:      -9.2      4.778      7.533
REMARK  Name = 68749
REMARK  6 active torsions:
REMARK  status: ('A' for Active; 'I' for Inactive)
REMARK    1  A    between atoms: C_2  and  C_3
REMARK    2  A    between atoms: C_2  and  O_13
REMARK    3  A    between atoms: C_4  and  O_9
REMARK    4  A    between atoms: O_9  and  C_11
REMARK    5  A    between atoms: O_13  and  C_14
REMARK    6  A    between atoms: C_15  and  O_20
REMARK                            x       y       z     vdW  Elec       q    Type
REMARK                         _______ _______ _______ _____ _____    ______ ____
ROOT
ATOM      1  O   UNL     1      35.295 -16.794 -20.283  0.00  0.00    -0.244 OA
ATOM      2  C   UNL     1      34.559 -16.882 -21.275  0.00  0.00    +0.349 C 
ENDROOT
BRANCH   2   3
ATOM      3  C   UNL     1      33.867 -15.756 -21.885  0.00  0.00    +0.111 C 
ATOM      4  C   UNL     1      34.115 -15.393 -23.208  0.00  0.00    +0.155 C 
ATOM      5  C   UNL     1      32.944 -15.037 -21.126  0.00  0.00    +0.010 C 
ATOM      6  C   UNL     1      33.443 -14.310 -23.773  0.00  0.00    +0.038 C 
ATOM      7  C   UNL     1      32.270 -13.953 -21.690  0.00  0.00    +0.000 C 
ATOM      8  C   UNL     1      32.519 -13.590 -23.014  0.00  0.00    +0.003 C 
BRANCH   4   9
ATOM      9  O   UNL     1      35.015 -16.082 -23.965  0.00  0.00    -0.424 OA
BRANCH   9  11
ATOM     10  O   UNL     1      34.093 -15.960 -26.113  0.00  0.00    -0.250 OA
ATOM     11  C   UNL     1      34.479 -16.610 -25.151  0.00  0.00    +0.322 C 
ATOM     12  C   UNL     1      34.443 -18.107 -25.075  0.00  0.00    +0.122 C 
ENDBRANCH   9  11
ENDBRANCH   4   9
ENDBRANCH   2   3
BRANCH   2  13
ATOM     13  O   UNL     1      34.291 -18.064 -21.961  0.00  0.00    -0.418 OA
BRANCH  13  14
ATOM     14  C   UNL     1      34.079 -19.169 -21.133  0.00  0.00    +0.182 C 
ATOM     15  C   UNL     1      35.147 -19.962 -20.779  0.00  0.00    +0.173 C 
ATOM     16  C   UNL     1      32.794 -19.421 -20.702  0.00  0.00    +0.041 C 
ATOM     17  C   UNL     1      34.922 -21.063 -19.952  0.00  0.00    +0.040 C 
ATOM     18  C   UNL     1      32.568 -20.522 -19.876  0.00  0.00    +0.003 C 
ATOM     19  C   UNL     1      33.632 -21.343 -19.501  0.00  0.00    +0.003 C 
BRANCH  15  20
ATOM     20  O   UNL     1      36.412 -19.699 -21.213  0.00  0.00    -0.468 OA
ATOM     21  C   UNL     1      37.457 -19.771 -20.245  0.00  0.00    +0.253 C 
ENDBRANCH  15  20
ENDBRANCH  13  14
ENDBRANCH   2  13
TORSDOF 6
ENDMDL
MODEL 6
REMARK VINA RESULT:      -9.1      3.494      6.304
REMARK  Name = 68749
REMARK  6 active torsions:
REMARK  status: ('A' for Active; 'I' for Inactive)
REMARK    1  A    between atoms: C_2  and  C_3
REMARK    2  A    between atoms: C_2  and  O_13
REMARK    3  A    between atoms: C_4  and  O_9
REMARK    4  A    between atoms: O_9  and  C_11
REMARK    5  A    between atoms: O_13  and  C_14
REMARK    6  A    between atoms: C_15  and  O_20
REMARK                            x       y       z     vdW  Elec       q    Type
REMARK                         _______ _______ _______ _____ _____    ______ ____
ROOT
ATOM      1  O   UNL     1      35.680 -25.574 -15.745  0.00  0.00    -0.244 OA
ATOM      2  C   UNL     1      35.491 -24.571 -15.043  0.00  0.00    +0.349 C 
ENDROOT
BRANCH   2   3
ATOM      3  C   UNL     1      36.082 -24.368 -13.729  0.00  0.00    +0.111 C 
ATOM      4  C   UNL     1      37.466 -24.306 -13.566  0.00  0.00    +0.155 C 
ATOM      5  C   UNL     1      35.244 -24.234 -12.622  0.00  0.00    +0.010 C 
ATOM      6  C   UNL     1      38.012 -24.112 -12.299  0.00  0.00    +0.038 C 
ATOM      7  C   UNL     1      35.790 -24.039 -11.352  0.00  0.00    +0.000 C 
ATOM      8  C   UNL     1      37.175 -23.978 -11.191  0.00  0.00    +0.003 C 
BRANCH   4   9
ATOM      9  O   UNL     1      38.302 -24.436 -14.635  0.00  0.00    -0.424 OA
BRANCH   9  11
ATOM     10  O   UNL     1      38.546 -26.764 -14.649  0.00  0.00    -0.250 OA
ATOM     11  C   UNL     1      39.027 -25.639 -14.653  0.00  0.00    +0.322 C 
ATOM     12  C   UNL     1      40.498 -25.350 -14.676  0.00  0.00    +0.122 C 
ENDBRANCH   9  11
ENDBRANCH   4   9
ENDBRANCH   2   3
BRANCH   2  13
ATOM     13  O   UNL     1      34.696 -23.487 -15.406  0.00  0.00    -0.418 OA
BRANCH  13  14
ATOM     14  C   UNL     1      35.072 -22.881 -16.608  0.00  0.00    +0.182 C 
ATOM     15  C   UNL     1      34.205 -22.906 -17.676  0.00  0.00    +0.173 C 
ATOM     16  C   UNL     1      36.310 -22.278 -16.672  0.00  0.00    +0.041 C 
ATOM     17  C   UNL     1      34.592 -22.298 -18.871  0.00  0.00    +0.040 C 
ATOM     18  C   UNL     1      36.698 -21.670 -17.867  0.00  0.00    +0.003 C 
ATOM     19  C   UNL     1      35.839 -21.681 -18.966  0.00  0.00    +0.003 C 
BRANCH  15  20
ATOM     20  O   UNL     1      32.984 -23.507 -17.597  0.00  0.00    -0.468 OA
ATOM     21  C   UNL     1      31.939 -22.769 -16.966  0.00  0.00    +0.253 C 
ENDBRANCH  15  20
ENDBRANCH  13  14
ENDBRANCH   2  13
TORSDOF 6
ENDMDL
MODEL 7
REMARK VINA RESULT:      -9.1      3.607      6.160
REMARK  Name = 68749
REMARK  6 active torsions:
REMARK  status: ('A' for Active; 'I' for Inactive)
REMARK    1  A    between atoms: C_2  and  C_3
REMARK    2  A    between atoms: C_2  and  O_13
REMARK    3  A    between atoms: C_4  and  O_9
REMARK    4  A    between atoms: O_9  and  C_11
REMARK    5  A    between atoms: O_13  and  C_14
REMARK    6  A    between atoms: C_15  and  O_20
REMARK                            x       y       z     vdW  Elec       q    Type
REMARK                         _______ _______ _______ _____ _____    ______ ____
ROOT
ATOM      1  O   UNL     1      35.600 -25.633 -15.574  0.00  0.00    -0.244 OA
ATOM      2  C   UNL     1      35.730 -24.542 -15.003  0.00  0.00    +0.349 C 
ENDROOT
BRANCH   2   3
ATOM      3  C   UNL     1      36.272 -24.379 -13.661  0.00  0.00    +0.111 C 
ATOM      4  C   UNL     1      37.649 -24.364 -13.441  0.00  0.00    +0.155 C 
ATOM      5  C   UNL     1      35.392 -24.236 -12.588  0.00  0.00    +0.010 C 
ATOM      6  C   UNL     1      38.147 -24.208 -12.148  0.00  0.00    +0.038 C 
ATOM      7  C   UNL     1      35.890 -24.080 -11.294  0.00  0.00    +0.000 C 
ATOM      8  C   UNL     1      37.268 -24.065 -11.074  0.00  0.00    +0.003 C 
BRANCH   4   9
ATOM      9  O   UNL     1      38.524 -24.503 -14.476  0.00  0.00    -0.424 OA
BRANCH   9  11
ATOM     10  O   UNL     1      38.532 -26.837 -14.653  0.00  0.00    -0.250 OA
ATOM     11  C   UNL     1      39.124 -25.770 -14.553  0.00  0.00    +0.322 C 
ATOM     12  C   UNL     1      40.616 -25.636 -14.492  0.00  0.00    +0.122 C 
ENDBRANCH   9  11
ENDBRANCH   4   9
ENDBRANCH   2   3
BRANCH   2  13
ATOM     13  O   UNL     1      35.390 -23.311 -15.557  0.00  0.00    -0.418 OA
BRANCH  13  14
ATOM     14  C   UNL     1      34.043 -23.198 -15.911  0.00  0.00    +0.182 C 
ATOM     15  C   UNL     1      33.704 -23.060 -17.238  0.00  0.00    +0.173 C 
ATOM     16  C   UNL     1      33.100 -23.229 -14.905  0.00  0.00    +0.041 C 
ATOM     17  C   UNL     1      32.356 -22.947 -17.579  0.00  0.00    +0.040 C 
ATOM     18  C   UNL     1      31.753 -23.116 -15.246  0.00  0.00    +0.003 C 
ATOM     19  C   UNL     1      31.380 -22.975 -16.583  0.00  0.00    +0.003 C 
BRANCH  15  20
ATOM     20  O   UNL     1      34.647 -23.031 -18.221  0.00  0.00    -0.468 OA
ATOM     21  C   UNL     1      34.531 -22.001 -19.200  0.00  0.00    +0.253 C 
ENDBRANCH  15  20
ENDBRANCH  13  14
ENDBRANCH   2  13
TORSDOF 6
ENDMDL
MODEL 8
REMARK VINA RESULT:      -9.1      1.852      5.728
REMARK  Name = 68749
REMARK  6 active torsions:
REMARK  status: ('A' for Active; 'I' for Inactive)
REMARK    1  A    between atoms: C_2  and  C_3
REMARK    2  A    between atoms: C_2  and  O_13
REMARK    3  A    between atoms: C_4  and  O_9
REMARK    4  A    between atoms: O_9  and  C_11
REMARK    5  A    between atoms: O_13  and  C_14
REMARK    6  A    between atoms: C_15  and  O_20
REMARK                            x       y       z     vdW  Elec       q    Type
REMARK                         _______ _______ _______ _____ _____    ______ ____
ROOT
ATOM      1  O   UNL     1      33.867 -23.965 -19.386  0.00  0.00    -0.244 OA
ATOM      2  C   UNL     1      34.089 -23.138 -18.492  0.00  0.00    +0.349 C 
ENDROOT
BRANCH   2   3
ATOM      3  C   UNL     1      33.564 -23.234 -17.138  0.00  0.00    +0.111 C 
ATOM      4  C   UNL     1      34.391 -23.580 -16.070  0.00  0.00    +0.155 C 
ATOM      5  C   UNL     1      32.211 -22.974 -16.915  0.00  0.00    +0.010 C 
ATOM      6  C   UNL     1      33.868 -23.668 -14.781  0.00  0.00    +0.038 C 
ATOM      7  C   UNL     1      31.687 -23.061 -15.625  0.00  0.00    +0.000 C 
ATOM      8  C   UNL     1      32.515 -23.408 -14.558  0.00  0.00    +0.003 C 
BRANCH   4   9
ATOM      9  O   UNL     1      35.715 -23.839 -16.267  0.00  0.00    -0.424 OA
BRANCH   9  11
ATOM     10  O   UNL     1      36.924 -23.264 -14.347  0.00  0.00    -0.250 OA
ATOM     11  C   UNL     1      36.575 -23.039 -15.498  0.00  0.00    +0.322 C 
ATOM     12  C   UNL     1      37.017 -21.849 -16.296  0.00  0.00    +0.122 C 
ENDBRANCH   9  11
ENDBRANCH   4   9
ENDBRANCH   2   3
BRANCH   2  13
ATOM     13  O   UNL     1      34.879 -22.002 -18.641  0.00  0.00    -0.418 OA
BRANCH  13  14
ATOM     14  C   UNL     1      34.405 -21.098 -19.596  0.00  0.00    +0.182 C 
ATOM     15  C   UNL     1      35.304 -20.408 -20.377  0.00  0.00    +0.173 C 
ATOM     16  C   UNL     1      33.041 -20.936 -19.717  0.00  0.00    +0.041 C 
ATOM     17  C   UNL     1      34.818 -19.508 -21.326  0.00  0.00    +0.040 C 
ATOM     18  C   UNL     1      32.555 -20.036 -20.666  0.00  0.00    +0.003 C 
ATOM     19  C   UNL     1      33.444 -19.323 -21.470  0.00  0.00    +0.003 C 
BRANCH  15  20
ATOM     20  O   UNL     1      36.650 -20.580 -20.246  0.00  0.00    -0.468 OA
ATOM     21  C   UNL     1      37.487 -19.524 -20.713  0.00  0.00    +0.253 C 
ENDBRANCH  15  20
ENDBRANCH  13  14
ENDBRANCH   2  13
TORSDOF 6
ENDMDL
MODEL 9
REMARK VINA RESULT:      -9.1      8.471     11.118
REMARK  Name = 68749
REMARK  6 active torsions:
REMARK  status: ('A' for Active; 'I' for Inactive)
REMARK    1  A    between atoms: C_2  and  C_3
REMARK    2  A    between atoms: C_2  and  O_13
REMARK    3  A    between atoms: C_4  and  O_9
REMARK    4  A    between atoms: O_9  and  C_11
REMARK    5  A    between atoms: O_13  and  C_14
REMARK    6  A    between atoms: C_15  and  O_20
REMARK                            x       y       z     vdW  Elec       q    Type
REMARK                         _______ _______ _______ _____ _____    ______ ____
ROOT
ATOM      1  O   UNL     1      34.086 -11.538 -23.616  0.00  0.00    -0.244 OA
ATOM      2  C   UNL     1      33.266 -12.466 -23.597  0.00  0.00    +0.349 C 
ENDROOT
BRANCH   2   3
ATOM      3  C   UNL     1      33.545 -13.816 -24.065  0.00  0.00    +0.111 C 
ATOM      4  C   UNL     1      34.194 -14.739 -23.246  0.00  0.00    +0.155 C 
ATOM      5  C   UNL     1      33.154 -14.181 -25.353  0.00  0.00    +0.010 C 
ATOM      6  C   UNL     1      34.453 -16.027 -23.714  0.00  0.00    +0.038 C 
ATOM      7  C   UNL     1      33.412 -15.470 -25.822  0.00  0.00    +0.000 C 
ATOM      8  C   UNL     1      34.062 -16.393 -25.002  0.00  0.00    +0.003 C 
BRANCH   4   9
ATOM      9  O   UNL     1      34.585 -14.401 -21.985  0.00  0.00    -0.424 OA
BRANCH   9  11
ATOM     10  O   UNL     1      35.033 -15.982 -20.317  0.00  0.00    -0.250 OA
ATOM     11  C   UNL     1      34.244 -15.349 -21.006  0.00  0.00    +0.322 C 
ATOM     12  C   UNL     1      32.753 -15.482 -20.920  0.00  0.00    +0.122 C 
ENDBRANCH   9  11
ENDBRANCH   4   9
ENDBRANCH   2   3
BRANCH   2  13
ATOM     13  O   UNL     1      31.963 -12.363 -23.119  0.00  0.00    -0.418 OA
BRANCH  13  14
ATOM     14  C   UNL     1      31.839 -11.592 -21.960  0.00  0.00    +0.182 C 
ATOM     15  C   UNL     1      31.720 -10.225 -22.068  0.00  0.00    +0.173 C 
ATOM     16  C   UNL     1      31.843 -12.242 -20.744  0.00  0.00    +0.041 C 
ATOM     17  C   UNL     1      31.598  -9.467 -20.903  0.00  0.00    +0.040 C 
ATOM     18  C   UNL     1      31.722 -11.484 -19.579  0.00  0.00    +0.003 C 
ATOM     19  C   UNL     1      31.599 -10.097 -19.658  0.00  0.00    +0.003 C 
BRANCH  15  20
ATOM     20  O   UNL     1      31.717  -9.598 -23.277  0.00  0.00    -0.468 OA
ATOM     21  C   UNL     1      31.305  -8.233 -23.299  0.00  0.00    +0.253 C 
ENDBRANCH  15  20
ENDBRANCH  13  14
ENDBRANCH   2  13
TORSDOF 6
ENDMDL
