MODEL 1
REMARK VINA RESULT:     -12.9      0.000      0.000
REMARK  Name = 23658582
REMARK  4 active torsions:
REMARK  status: ('A' for Active; 'I' for Inactive)
REMARK    1  A    between atoms: N_3  and  C_13
REMARK    2  A    between atoms: C_8  and  C_25
REMARK    3  A    between atoms: C_15  and  C_22
REMARK    4  A    between atoms: N_24  and  C_29
REMARK                            x       y       z     vdW  Elec       q    Type
REMARK                         _______ _______ _______ _____ _____    ______ ____
ROOT
ATOM      1 CL   UNL     1      35.198 -19.834 -24.387  0.00  0.00    -0.082 Cl
ATOM      2  O   UNL     1      34.349 -15.651 -21.460  0.00  0.00    -0.352 OA
ATOM      3  N   UNL     1      33.638 -13.132 -23.771  0.00  0.00    -0.295 N 
ATOM      4  N   UNL     1      34.021 -14.327 -21.730  0.00  0.00    -0.062 NA
ATOM      5  C   UNL     1      34.200 -15.484 -23.689  0.00  0.00    +0.072 A 
ATOM      6  C   UNL     1      34.454 -16.338 -22.630  0.00  0.00    +0.183 A 
ATOM      7  C   UNL     1      33.938 -14.250 -23.062  0.00  0.00    +0.174 A 
ATOM      8  C   UNL     1      34.768 -17.688 -22.768  0.00  0.00    +0.101 C 
ATOM      9  C   UNL     1      34.255 -15.986 -24.997  0.00  0.00    +0.007 C 
ATOM     10  C   UNL     1      34.819 -18.174 -24.079  0.00  0.00    +0.065 C 
ATOM     11  C   UNL     1      34.568 -17.340 -25.174  0.00  0.00    +0.012 C 
ATOM     12  H   UNL     1      33.711 -13.248 -24.746  0.00  0.00    +0.154 HD
ENDROOT
BRANCH   3  13
ATOM     13  C   UNL     1      33.238 -11.824 -23.377  0.00  0.00    +0.049 C 
ATOM     14  C   UNL     1      33.933 -10.711 -23.850  0.00  0.00    +0.018 C 
ATOM     15  C   UNL     1      33.541  -9.429 -23.464  0.00  0.00    +0.073 C 
ATOM     16  C   UNL     1      32.151 -11.655 -22.519  0.00  0.00    +0.015 C 
ATOM     17  C   UNL     1      32.454  -9.260 -22.606  0.00  0.00    +0.004 C 
ATOM     18  C   UNL     1      31.759 -10.375 -22.134  0.00  0.00    +0.001 C 
BRANCH  15  22
ATOM     19  F   UNL     1      33.473  -7.214 -24.366  0.00  0.00    -0.166 F 
ATOM     20  F   UNL     1      35.124  -7.686 -23.043  0.00  0.00    -0.166 F 
ATOM     21  F   UNL     1      35.067  -8.526 -25.048  0.00  0.00    -0.166 F 
ATOM     22  C   UNL     1      34.284  -8.238 -23.968  0.00  0.00    +0.419 C 
ENDBRANCH  15  22
ENDBRANCH   3  13
BRANCH   8  25
ATOM     23  O   UNL     1      35.991 -18.287 -20.863  0.00  0.00    -0.270 OA
ATOM     24  N   UNL     1      34.118 -19.565 -21.410  0.00  0.00    -0.278 N 
ATOM     25  C   UNL     1      35.020 -18.511 -21.598  0.00  0.00    +0.253 C 
ATOM     26  H   UNL     1      33.389 -19.629 -22.069  0.00  0.00    +0.155 HD
BRANCH  24  29
ATOM     27  N   UNL     1      35.328 -22.048 -18.943  0.00  0.00    -0.221 NA
ATOM     28  N   UNL     1      32.922 -21.959 -18.851  0.00  0.00    -0.221 NA
ATOM     29  C   UNL     1      34.120 -20.553 -20.392  0.00  0.00    +0.089 C 
ATOM     30  C   UNL     1      35.288 -21.108 -19.910  0.00  0.00    +0.117 C 
ATOM     31  C   UNL     1      32.956 -21.022 -19.821  0.00  0.00    +0.117 C 
ATOM     32  C   UNL     1      34.126 -22.423 -18.465  0.00  0.00    +0.199 C 
ENDBRANCH  24  29
ENDBRANCH   8  25
TORSDOF 4
ENDMDL
MODEL 2
REMARK VINA RESULT:     -12.5      2.007      2.609
REMARK  Name = 23658582
REMARK  4 active torsions:
REMARK  status: ('A' for Active; 'I' for Inactive)
REMARK    1  A    between atoms: N_3  and  C_13
REMARK    2  A    between atoms: C_8  and  C_25
REMARK    3  A    between atoms: C_15  and  C_22
REMARK    4  A    between atoms: N_24  and  C_29
REMARK                            x       y       z     vdW  Elec       q    Type
REMARK                         _______ _______ _______ _____ _____    ______ ____
ROOT
ATOM      1 CL   UNL     1      35.211 -20.194 -24.688  0.00  0.00    -0.082 Cl
ATOM      2  O   UNL     1      34.444 -16.127 -21.581  0.00  0.00    -0.352 OA
ATOM      3  N   UNL     1      33.532 -13.558 -23.762  0.00  0.00    -0.295 N 
ATOM      4  N   UNL     1      34.069 -14.804 -21.788  0.00  0.00    -0.062 NA
ATOM      5  C   UNL     1      34.154 -15.895 -23.790  0.00  0.00    +0.072 A 
ATOM      6  C   UNL     1      34.493 -16.775 -22.777  0.00  0.00    +0.183 A 
ATOM      7  C   UNL     1      33.902 -14.688 -23.109  0.00  0.00    +0.174 A 
ATOM      8  C   UNL     1      34.830 -18.111 -22.977  0.00  0.00    +0.101 C 
ATOM      9  C   UNL     1      34.140 -16.355 -25.115  0.00  0.00    +0.007 C 
ATOM     10  C   UNL     1      34.812 -18.555 -24.304  0.00  0.00    +0.065 C 
ATOM     11  C   UNL     1      34.474 -17.695 -25.354  0.00  0.00    +0.012 C 
ATOM     12  H   UNL     1      33.547 -13.642 -24.743  0.00  0.00    +0.154 HD
ENDROOT
BRANCH   3  13
ATOM     13  C   UNL     1      33.126 -12.273 -23.303  0.00  0.00    +0.049 C 
ATOM     14  C   UNL     1      32.370 -12.156 -22.137  0.00  0.00    +0.018 C 
ATOM     15  C   UNL     1      31.973 -10.897 -21.686  0.00  0.00    +0.073 C 
ATOM     16  C   UNL     1      33.487 -11.131 -24.018  0.00  0.00    +0.015 C 
ATOM     17  C   UNL     1      32.333  -9.755 -22.401  0.00  0.00    +0.004 C 
ATOM     18  C   UNL     1      33.090  -9.872 -23.568  0.00  0.00    +0.001 C 
BRANCH  15  22
ATOM     19  F   UNL     1      29.842 -11.074 -20.613  0.00  0.00    -0.166 F 
ATOM     20  F   UNL     1      31.585 -11.586 -19.429  0.00  0.00    -0.166 F 
ATOM     21  F   UNL     1      31.184  -9.508 -19.926  0.00  0.00    -0.166 F 
ATOM     22  C   UNL     1      31.163 -10.771 -20.441  0.00  0.00    +0.419 C 
ENDBRANCH  15  22
ENDBRANCH   3  13
BRANCH   8  25
ATOM     23  O   UNL     1      36.322 -18.970 -21.390  0.00  0.00    -0.270 OA
ATOM     24  N   UNL     1      34.132 -19.773 -21.383  0.00  0.00    -0.278 N 
ATOM     25  C   UNL     1      35.174 -18.963 -21.851  0.00  0.00    +0.253 C 
ATOM     26  H   UNL     1      33.267 -19.668 -21.840  0.00  0.00    +0.155 HD
BRANCH  24  29
ATOM     27  N   UNL     1      33.008 -22.106 -18.736  0.00  0.00    -0.221 NA
ATOM     28  N   UNL     1      35.414 -22.149 -18.849  0.00  0.00    -0.221 NA
ATOM     29  C   UNL     1      34.165 -20.727 -20.334  0.00  0.00    +0.089 C 
ATOM     30  C   UNL     1      33.015 -21.200 -19.735  0.00  0.00    +0.117 C 
ATOM     31  C   UNL     1      35.348 -21.241 -19.845  0.00  0.00    +0.117 C 
ATOM     32  C   UNL     1      34.225 -22.532 -18.347  0.00  0.00    +0.199 C 
ENDBRANCH  24  29
ENDBRANCH   8  25
TORSDOF 4
ENDMDL
MODEL 3
REMARK VINA RESULT:     -12.5      5.476      9.646
REMARK  Name = 23658582
REMARK  4 active torsions:
REMARK  status: ('A' for Active; 'I' for Inactive)
REMARK    1  A    between atoms: N_3  and  C_13
REMARK    2  A    between atoms: C_8  and  C_25
REMARK    3  A    between atoms: C_15  and  C_22
REMARK    4  A    between atoms: N_24  and  C_29
REMARK                            x       y       z     vdW  Elec       q    Type
REMARK                         _______ _______ _______ _____ _____    ______ ____
ROOT
ATOM      1 CL   UNL     1      33.425 -14.445 -26.476  0.00  0.00    -0.082 Cl
ATOM      2  O   UNL     1      34.221 -15.982 -21.598  0.00  0.00    -0.352 OA
ATOM      3  N   UNL     1      34.984 -19.376 -21.896  0.00  0.00    -0.295 N 
ATOM      4  N   UNL     1      34.556 -17.193 -21.005  0.00  0.00    -0.062 NA
ATOM      5  C   UNL     1      34.416 -17.465 -23.266  0.00  0.00    +0.072 A 
ATOM      6  C   UNL     1      34.139 -16.147 -22.947  0.00  0.00    +0.183 A 
ATOM      7  C   UNL     1      34.667 -18.061 -22.015  0.00  0.00    +0.174 A 
ATOM      8  C   UNL     1      33.826 -15.163 -23.881  0.00  0.00    +0.101 C 
ATOM      9  C   UNL     1      34.388 -17.861 -24.611  0.00  0.00    +0.007 C 
ATOM     10  C   UNL     1      33.801 -15.572 -25.218  0.00  0.00    +0.065 C 
ATOM     11  C   UNL     1      34.076 -16.896 -25.578  0.00  0.00    +0.012 C 
ATOM     12  H   UNL     1      34.931 -19.877 -22.742  0.00  0.00    +0.154 HD
ENDROOT
BRANCH   3  13
ATOM     13  C   UNL     1      35.377 -20.171 -20.783  0.00  0.00    +0.049 C 
ATOM     14  C   UNL     1      34.442 -20.982 -20.140  0.00  0.00    +0.018 C 
ATOM     15  C   UNL     1      34.828 -21.761 -19.049  0.00  0.00    +0.073 C 
ATOM     16  C   UNL     1      36.699 -20.141 -20.336  0.00  0.00    +0.015 C 
ATOM     17  C   UNL     1      36.149 -21.731 -18.602  0.00  0.00    +0.004 C 
ATOM     18  C   UNL     1      37.084 -20.920 -19.246  0.00  0.00    +0.001 C 
BRANCH  15  22
ATOM     19  F   UNL     1      33.633 -23.832 -18.971  0.00  0.00    -0.166 F 
ATOM     20  F   UNL     1      34.166 -22.933 -17.071  0.00  0.00    -0.166 F 
ATOM     21  F   UNL     1      32.594 -22.049 -18.286  0.00  0.00    -0.166 F 
ATOM     22  C   UNL     1      33.829 -22.627 -18.359  0.00  0.00    +0.419 C 
ENDBRANCH  15  22
ENDBRANCH   3  13
BRANCH   8  25
ATOM     23  O   UNL     1      34.155 -12.845 -23.951  0.00  0.00    -0.270 OA
ATOM     24  N   UNL     1      32.593 -13.685 -22.436  0.00  0.00    -0.278 N 
ATOM     25  C   UNL     1      33.548 -13.802 -23.454  0.00  0.00    +0.253 C 
ATOM     26  H   UNL     1      32.185 -14.528 -22.131  0.00  0.00    +0.155 HD
BRANCH  24  29
ATOM     27  N   UNL     1      31.472 -11.359 -19.782  0.00  0.00    -0.221 NA
ATOM     28  N   UNL     1      31.465 -10.200 -21.894  0.00  0.00    -0.221 NA
ATOM     29  C   UNL     1      32.137 -12.508 -21.789  0.00  0.00    +0.089 C 
ATOM     30  C   UNL     1      31.904 -12.460 -20.430  0.00  0.00    +0.117 C 
ATOM     31  C   UNL     1      31.898 -11.337 -22.478  0.00  0.00    +0.117 C 
ATOM     32  C   UNL     1      31.276 -10.280 -20.563  0.00  0.00    +0.199 C 
ENDBRANCH  24  29
ENDBRANCH   8  25
TORSDOF 4
ENDMDL
MODEL 4
REMARK VINA RESULT:     -12.5      5.319      9.998
REMARK  Name = 23658582
REMARK  4 active torsions:
REMARK  status: ('A' for Active; 'I' for Inactive)
REMARK    1  A    between atoms: N_3  and  C_13
REMARK    2  A    between atoms: C_8  and  C_25
REMARK    3  A    between atoms: C_15  and  C_22
REMARK    4  A    between atoms: N_24  and  C_29
REMARK                            x       y       z     vdW  Elec       q    Type
REMARK                         _______ _______ _______ _____ _____    ______ ____
ROOT
ATOM      1 CL   UNL     1      33.017 -13.382 -26.591  0.00  0.00    -0.082 Cl
ATOM      2  O   UNL     1      34.100 -15.186 -21.863  0.00  0.00    -0.352 OA
ATOM      3  N   UNL     1      34.937 -18.532 -22.406  0.00  0.00    -0.295 N 
ATOM      4  N   UNL     1      34.497 -16.421 -21.363  0.00  0.00    -0.062 NA
ATOM      5  C   UNL     1      34.250 -16.559 -23.626  0.00  0.00    +0.072 A 
ATOM      6  C   UNL     1      33.954 -15.272 -23.213  0.00  0.00    +0.183 A 
ATOM      7  C   UNL     1      34.580 -17.223 -22.428  0.00  0.00    +0.174 A 
ATOM      8  C   UNL     1      33.568 -14.242 -24.068  0.00  0.00    +0.101 C 
ATOM      9  C   UNL     1      34.164 -16.874 -24.990  0.00  0.00    +0.007 C 
ATOM     10  C   UNL     1      33.486 -14.571 -25.425  0.00  0.00    +0.065 C 
ATOM     11  C   UNL     1      33.777 -15.861 -25.880  0.00  0.00    +0.012 C 
ATOM     12  H   UNL     1      34.854 -18.982 -23.278  0.00  0.00    +0.154 HD
ENDROOT
BRANCH   3  13
ATOM     13  C   UNL     1      35.408 -19.381 -21.365  0.00  0.00    +0.049 C 
ATOM     14  C   UNL     1      34.532 -20.266 -20.738  0.00  0.00    +0.018 C 
ATOM     15  C   UNL     1      34.993 -21.099 -19.718  0.00  0.00    +0.073 C 
ATOM     16  C   UNL     1      36.745 -19.328 -20.973  0.00  0.00    +0.015 C 
ATOM     17  C   UNL     1      36.330 -21.046 -19.326  0.00  0.00    +0.004 C 
ATOM     18  C   UNL     1      37.207 -20.160 -19.954  0.00  0.00    +0.001 C 
BRANCH  15  22
ATOM     19  F   UNL     1      33.867 -23.209 -19.733  0.00  0.00    -0.166 F 
ATOM     20  F   UNL     1      34.468 -22.430 -17.802  0.00  0.00    -0.166 F 
ATOM     21  F   UNL     1      32.811 -21.515 -18.871  0.00  0.00    -0.166 F 
ATOM     22  C   UNL     1      34.057 -22.045 -19.046  0.00  0.00    +0.419 C 
ENDBRANCH  15  22
ENDBRANCH   3  13
BRANCH   8  25
ATOM     23  O   UNL     1      32.394 -12.755 -22.691  0.00  0.00    -0.270 OA
ATOM     24  N   UNL     1      34.029 -11.881 -24.106  0.00  0.00    -0.278 N 
ATOM     25  C   UNL     1      33.275 -12.919 -23.544  0.00  0.00    +0.253 C 
ATOM     26  H   UNL     1      34.699 -12.150 -24.776  0.00  0.00    +0.155 HD
BRANCH  24  29
ATOM     27  N   UNL     1      32.716  -8.595 -23.013  0.00  0.00    -0.221 NA
ATOM     28  N   UNL     1      34.956  -8.305 -23.851  0.00  0.00    -0.221 NA
ATOM     29  C   UNL     1      33.952 -10.491 -23.833  0.00  0.00    +0.089 C 
ATOM     30  C   UNL     1      32.825  -9.912 -23.286  0.00  0.00    +0.117 C 
ATOM     31  C   UNL     1      34.997  -9.631 -24.099  0.00  0.00    +0.117 C 
ATOM     32  C   UNL     1      33.803  -7.861 -23.317  0.00  0.00    +0.199 C 
ENDBRANCH  24  29
ENDBRANCH   8  25
TORSDOF 4
ENDMDL
MODEL 5
REMARK VINA RESULT:     -12.3      4.249      6.946
REMARK  Name = 23658582
REMARK  4 active torsions:
REMARK  status: ('A' for Active; 'I' for Inactive)
REMARK    1  A    between atoms: N_3  and  C_13
REMARK    2  A    between atoms: C_8  and  C_25
REMARK    3  A    between atoms: C_15  and  C_22
REMARK    4  A    between atoms: N_24  and  C_29
REMARK                            x       y       z     vdW  Elec       q    Type
REMARK                         _______ _______ _______ _____ _____    ______ ____
ROOT
ATOM      1 CL   UNL     1      36.133 -23.421 -16.190  0.00  0.00    -0.082 Cl
ATOM      2  O   UNL     1      33.215 -21.409 -19.961  0.00  0.00    -0.352 OA
ATOM      3  N   UNL     1      35.332 -19.127 -21.543  0.00  0.00    -0.295 N 
ATOM      4  N   UNL     1      33.430 -20.458 -20.952  0.00  0.00    -0.062 NA
ATOM      5  C   UNL     1      35.329 -20.713 -19.715  0.00  0.00    +0.072 A 
ATOM      6  C   UNL     1      34.350 -21.559 -19.226  0.00  0.00    +0.183 A 
ATOM      7  C   UNL     1      34.693 -20.057 -20.787  0.00  0.00    +0.174 A 
ATOM      8  C   UNL     1      34.525 -22.420 -18.145  0.00  0.00    +0.101 C 
ATOM      9  C   UNL     1      36.590 -20.702 -19.101  0.00  0.00    +0.007 C 
ATOM     10  C   UNL     1      35.787 -22.398 -17.543  0.00  0.00    +0.065 C 
ATOM     11  C   UNL     1      36.801 -21.556 -18.009  0.00  0.00    +0.012 C 
ATOM     12  H   UNL     1      36.232 -18.898 -21.214  0.00  0.00    +0.154 HD
ENDROOT
BRANCH   3  13
ATOM     13  C   UNL     1      34.952 -18.420 -22.718  0.00  0.00    +0.049 C 
ATOM     14  C   UNL     1      34.583 -17.078 -22.634  0.00  0.00    +0.018 C 
ATOM     15  C   UNL     1      34.211 -16.384 -23.786  0.00  0.00    +0.073 C 
ATOM     16  C   UNL     1      34.951 -19.068 -23.953  0.00  0.00    +0.015 C 
ATOM     17  C   UNL     1      34.208 -17.032 -25.020  0.00  0.00    +0.004 C 
ATOM     18  C   UNL     1      34.579 -18.375 -25.103  0.00  0.00    +0.001 C 
BRANCH  15  22
ATOM     19  F   UNL     1      32.708 -14.733 -22.925  0.00  0.00    -0.166 F 
ATOM     20  F   UNL     1      34.781 -14.145 -23.164  0.00  0.00    -0.166 F 
ATOM     21  F   UNL     1      33.520 -14.409 -24.916  0.00  0.00    -0.166 F 
ATOM     22  C   UNL     1      33.814 -14.949 -23.697  0.00  0.00    +0.419 C 
ENDBRANCH  15  22
ENDBRANCH   3  13
BRANCH   8  25
ATOM     23  O   UNL     1      33.224 -24.365 -18.244  0.00  0.00    -0.270 OA
ATOM     24  N   UNL     1      32.660 -22.748 -16.659  0.00  0.00    -0.278 N 
ATOM     25  C   UNL     1      33.438 -23.274 -17.699  0.00  0.00    +0.253 C 
ATOM     26  H   UNL     1      32.941 -21.870 -16.315  0.00  0.00    +0.155 HD
BRANCH  24  29
ATOM     27  N   UNL     1      30.562 -24.763 -14.367  0.00  0.00    -0.221 NA
ATOM     28  N   UNL     1      29.131 -23.557 -15.884  0.00  0.00    -0.221 NA
ATOM     29  C   UNL     1      31.521 -23.320 -16.038  0.00  0.00    +0.089 C 
ATOM     30  C   UNL     1      31.624 -24.201 -14.981  0.00  0.00    +0.117 C 
ATOM     31  C   UNL     1      30.237 -23.032 -16.453  0.00  0.00    +0.117 C 
ATOM     32  C   UNL     1      29.363 -24.403 -14.862  0.00  0.00    +0.199 C 
ENDBRANCH  24  29
ENDBRANCH   8  25
TORSDOF 4
ENDMDL
MODEL 6
REMARK VINA RESULT:     -11.7      1.539      2.046
REMARK  Name = 23658582
REMARK  4 active torsions:
REMARK  status: ('A' for Active; 'I' for Inactive)
REMARK    1  A    between atoms: N_3  and  C_13
REMARK    2  A    between atoms: C_8  and  C_25
REMARK    3  A    between atoms: C_15  and  C_22
REMARK    4  A    between atoms: N_24  and  C_29
REMARK                            x       y       z     vdW  Elec       q    Type
REMARK                         _______ _______ _______ _____ _____    ______ ____
ROOT
ATOM      1 CL   UNL     1      34.376 -19.620 -24.980  0.00  0.00    -0.082 Cl
ATOM      2  O   UNL     1      34.775 -15.293 -22.169  0.00  0.00    -0.352 OA
ATOM      3  N   UNL     1      33.986 -12.745 -24.423  0.00  0.00    -0.295 N 
ATOM      4  N   UNL     1      34.599 -13.941 -22.439  0.00  0.00    -0.062 NA
ATOM      5  C   UNL     1      34.198 -15.153 -24.329  0.00  0.00    +0.072 A 
ATOM      6  C   UNL     1      34.534 -16.013 -23.298  0.00  0.00    +0.183 A 
ATOM      7  C   UNL     1      34.257 -13.880 -23.729  0.00  0.00    +0.174 A 
ATOM      8  C   UNL     1      34.610 -17.398 -23.425  0.00  0.00    +0.101 C 
ATOM      9  C   UNL     1      33.909 -15.686 -25.594  0.00  0.00    +0.007 C 
ATOM     10  C   UNL     1      34.319 -17.915 -24.691  0.00  0.00    +0.065 C 
ATOM     11  C   UNL     1      33.975 -17.077 -25.757  0.00  0.00    +0.012 C 
ATOM     12  H   UNL     1      33.840 -12.893 -25.385  0.00  0.00    +0.154 HD
ENDROOT
BRANCH   3  13
ATOM     13  C   UNL     1      33.874 -11.382 -24.027  0.00  0.00    +0.049 C 
ATOM     14  C   UNL     1      32.904 -11.003 -23.100  0.00  0.00    +0.018 C 
ATOM     15  C   UNL     1      32.795  -9.667 -22.712  0.00  0.00    +0.073 C 
ATOM     16  C   UNL     1      34.737 -10.427 -24.565  0.00  0.00    +0.015 C 
ATOM     17  C   UNL     1      33.657  -8.712 -23.251  0.00  0.00    +0.004 C 
ATOM     18  C   UNL     1      34.628  -9.093 -24.178  0.00  0.00    +0.001 C 
BRANCH  15  22
ATOM     19  F   UNL     1      31.169  -8.061 -22.007  0.00  0.00    -0.166 F 
ATOM     20  F   UNL     1      30.723 -10.147 -21.618  0.00  0.00    -0.166 F 
ATOM     21  F   UNL     1      32.257  -9.132 -20.459  0.00  0.00    -0.166 F 
ATOM     22  C   UNL     1      31.757  -9.260 -21.722  0.00  0.00    +0.419 C 
ENDBRANCH  15  22
ENDBRANCH   3  13
BRANCH   8  25
ATOM     23  O   UNL     1      36.094 -18.138 -21.771  0.00  0.00    -0.270 OA
ATOM     24  N   UNL     1      33.982 -19.123 -21.868  0.00  0.00    -0.278 N 
ATOM     25  C   UNL     1      34.972 -18.225 -22.286  0.00  0.00    +0.253 C 
ATOM     26  H   UNL     1      33.133 -19.088 -22.364  0.00  0.00    +0.155 HD
BRANCH  24  29
ATOM     27  N   UNL     1      35.343 -21.508 -19.383  0.00  0.00    -0.221 NA
ATOM     28  N   UNL     1      32.943 -21.448 -19.179  0.00  0.00    -0.221 NA
ATOM     29  C   UNL     1      34.047 -20.077 -20.820  0.00  0.00    +0.089 C 
ATOM     30  C   UNL     1      35.244 -20.600 -20.376  0.00  0.00    +0.117 C 
ATOM     31  C   UNL     1      32.917 -20.542 -20.179  0.00  0.00    +0.117 C 
ATOM     32  C   UNL     1      34.171 -21.882 -18.837  0.00  0.00    +0.199 C 
ENDBRANCH  24  29
ENDBRANCH   8  25
TORSDOF 4
ENDMDL
MODEL 7
REMARK VINA RESULT:     -11.4      6.481     11.122
REMARK  Name = 23658582
REMARK  4 active torsions:
REMARK  status: ('A' for Active; 'I' for Inactive)
REMARK    1  A    between atoms: N_3  and  C_13
REMARK    2  A    between atoms: C_8  and  C_25
REMARK    3  A    between atoms: C_15  and  C_22
REMARK    4  A    between atoms: N_24  and  C_29
REMARK                            x       y       z     vdW  Elec       q    Type
REMARK                         _______ _______ _______ _____ _____    ______ ____
ROOT
ATOM      1 CL   UNL     1      37.569 -19.381 -21.441  0.00  0.00    -0.082 Cl
ATOM      2  O   UNL     1      32.815 -20.543 -19.759  0.00  0.00    -0.352 OA
ATOM      3  N   UNL     1      33.359 -22.935 -17.274  0.00  0.00    -0.295 N 
ATOM      4  N   UNL     1      32.311 -21.408 -18.794  0.00  0.00    -0.062 NA
ATOM      5  C   UNL     1      34.587 -21.564 -18.844  0.00  0.00    +0.072 A 
ATOM      6  C   UNL     1      34.172 -20.638 -19.785  0.00  0.00    +0.183 A 
ATOM      7  C   UNL     1      33.382 -22.005 -18.262  0.00  0.00    +0.174 A 
ATOM      8  C   UNL     1      35.032 -19.928 -20.620  0.00  0.00    +0.101 C 
ATOM      9  C   UNL     1      35.958 -21.822 -18.700  0.00  0.00    +0.007 C 
ATOM     10  C   UNL     1      36.396 -20.197 -20.465  0.00  0.00    +0.065 C 
ATOM     11  C   UNL     1      36.852 -21.125 -19.524  0.00  0.00    +0.012 C 
ATOM     12  H   UNL     1      34.241 -23.326 -17.075  0.00  0.00    +0.154 HD
ENDROOT
BRANCH   3  13
ATOM     13  C   UNL     1      32.306 -23.454 -16.469  0.00  0.00    +0.049 C 
ATOM     14  C   UNL     1      30.979 -23.278 -16.859  0.00  0.00    +0.018 C 
ATOM     15  C   UNL     1      29.947 -23.788 -16.071  0.00  0.00    +0.073 C 
ATOM     16  C   UNL     1      32.601 -24.141 -15.292  0.00  0.00    +0.015 C 
ATOM     17  C   UNL     1      30.242 -24.474 -14.894  0.00  0.00    +0.004 C 
ATOM     18  C   UNL     1      31.570 -24.651 -14.504  0.00  0.00    +0.001 C 
BRANCH  15  22
ATOM     19  F   UNL     1      28.338 -22.536 -17.324  0.00  0.00    -0.166 F 
ATOM     20  F   UNL     1      28.003 -24.671 -17.151  0.00  0.00    -0.166 F 
ATOM     21  F   UNL     1      27.694 -23.381 -15.427  0.00  0.00    -0.166 F 
ATOM     22  C   UNL     1      28.527 -23.598 -16.487  0.00  0.00    +0.419 C 
ENDBRANCH  15  22
ENDBRANCH   3  13
BRANCH   8  25
ATOM     23  O   UNL     1      34.185 -19.335 -22.721  0.00  0.00    -0.270 OA
ATOM     24  N   UNL     1      34.441 -17.651 -21.127  0.00  0.00    -0.278 N 
ATOM     25  C   UNL     1      34.507 -18.974 -21.582  0.00  0.00    +0.253 C 
ATOM     26  H   UNL     1      34.728 -17.502 -20.197  0.00  0.00    +0.155 HD
BRANCH  24  29
ATOM     27  N   UNL     1      34.307 -14.934 -23.638  0.00  0.00    -0.221 NA
ATOM     28  N   UNL     1      32.462 -14.680 -22.111  0.00  0.00    -0.221 NA
ATOM     29  C   UNL     1      34.013 -16.499 -21.834  0.00  0.00    +0.089 C 
ATOM     30  C   UNL     1      34.686 -16.025 -22.942  0.00  0.00    +0.117 C 
ATOM     31  C   UNL     1      32.897 -15.780 -21.460  0.00  0.00    +0.117 C 
ATOM     32  C   UNL     1      33.203 -14.318 -23.175  0.00  0.00    +0.199 C 
ENDBRANCH  24  29
ENDBRANCH   8  25
TORSDOF 4
ENDMDL
MODEL 8
REMARK VINA RESULT:     -10.8      5.694     11.294
REMARK  Name = 23658582
REMARK  4 active torsions:
REMARK  status: ('A' for Active; 'I' for Inactive)
REMARK    1  A    between atoms: N_3  and  C_13
REMARK    2  A    between atoms: C_8  and  C_25
REMARK    3  A    between atoms: C_15  and  C_22
REMARK    4  A    between atoms: N_24  and  C_29
REMARK                            x       y       z     vdW  Elec       q    Type
REMARK                         _______ _______ _______ _____ _____    ______ ____
ROOT
ATOM      1 CL   UNL     1      31.591  -6.870 -21.206  0.00  0.00    -0.082 Cl
ATOM      2  O   UNL     1      33.971 -10.149 -24.427  0.00  0.00    -0.352 OA
ATOM      3  N   UNL     1      33.085 -13.305 -23.226  0.00  0.00    -0.295 N 
ATOM      4  N   UNL     1      34.042 -11.533 -24.524  0.00  0.00    -0.062 NA
ATOM      5  C   UNL     1      32.730 -10.960 -22.748  0.00  0.00    +0.072 A 
ATOM      6  C   UNL     1      33.187  -9.810 -23.367  0.00  0.00    +0.183 A 
ATOM      7  C   UNL     1      33.298 -11.996 -23.515  0.00  0.00    +0.174 A 
ATOM      8  C   UNL     1      32.878  -8.518 -22.949  0.00  0.00    +0.101 C 
ATOM      9  C   UNL     1      31.900 -10.845 -21.623  0.00  0.00    +0.007 C 
ATOM     10  C   UNL     1      32.049  -8.419 -21.827  0.00  0.00    +0.065 C 
ATOM     11  C   UNL     1      31.569  -9.559 -21.174  0.00  0.00    +0.012 C 
ATOM     12  H   UNL     1      32.582 -13.452 -22.392  0.00  0.00    +0.154 HD
ENDROOT
BRANCH   3  13
ATOM     13  C   UNL     1      33.449 -14.507 -23.896  0.00  0.00    +0.049 C 
ATOM     14  C   UNL     1      34.076 -15.535 -23.192  0.00  0.00    +0.018 C 
ATOM     15  C   UNL     1      34.432 -16.713 -23.849  0.00  0.00    +0.073 C 
ATOM     16  C   UNL     1      33.176 -14.658 -25.256  0.00  0.00    +0.015 C 
ATOM     17  C   UNL     1      34.161 -16.864 -25.208  0.00  0.00    +0.004 C 
ATOM     18  C   UNL     1      33.532 -15.835 -25.912  0.00  0.00    +0.001 C 
BRANCH  15  22
ATOM     19  F   UNL     1      34.252 -18.793 -22.681  0.00  0.00    -0.166 F 
ATOM     20  F   UNL     1      36.066 -18.460 -23.820  0.00  0.00    -0.166 F 
ATOM     21  F   UNL     1      35.733 -17.369 -21.969  0.00  0.00    -0.166 F 
ATOM     22  C   UNL     1      35.105 -17.812 -23.097  0.00  0.00    +0.419 C 
ENDBRANCH  15  22
ENDBRANCH   3  13
BRANCH   8  25
ATOM     23  O   UNL     1      34.602  -7.065 -23.583  0.00  0.00    -0.270 OA
ATOM     24  N   UNL     1      32.454  -6.634 -24.385  0.00  0.00    -0.278 N 
ATOM     25  C   UNL     1      33.404  -7.366 -23.662  0.00  0.00    +0.253 C 
ATOM     26  H   UNL     1      31.535  -6.985 -24.364  0.00  0.00    +0.155 HD
BRANCH  24  29
ATOM     27  N   UNL     1      32.161  -3.130 -25.546  0.00  0.00    -0.221 NA
ATOM     28  N   UNL     1      33.704  -4.303 -26.976  0.00  0.00    -0.221 NA
ATOM     29  C   UNL     1      32.648  -5.453 -25.145  0.00  0.00    +0.089 C 
ATOM     30  C   UNL     1      32.000  -4.272 -24.845  0.00  0.00    +0.117 C 
ATOM     31  C   UNL     1      33.496  -5.409 -26.232  0.00  0.00    +0.117 C 
ATOM     32  C   UNL     1      33.014  -3.215 -26.583  0.00  0.00    +0.199 C 
ENDBRANCH  24  29
ENDBRANCH   8  25
TORSDOF 4
ENDMDL
MODEL 9
REMARK VINA RESULT:     -10.8      4.962      9.378
REMARK  Name = 23658582
REMARK  4 active torsions:
REMARK  status: ('A' for Active; 'I' for Inactive)
REMARK    1  A    between atoms: N_3  and  C_13
REMARK    2  A    between atoms: C_8  and  C_25
REMARK    3  A    between atoms: C_15  and  C_22
REMARK    4  A    between atoms: N_24  and  C_29
REMARK                            x       y       z     vdW  Elec       q    Type
REMARK                         _______ _______ _______ _____ _____    ______ ____
ROOT
ATOM      1 CL   UNL     1      33.401 -12.560 -26.934  0.00  0.00    -0.082 Cl
ATOM      2  O   UNL     1      33.800 -14.636 -22.210  0.00  0.00    -0.352 OA
ATOM      3  N   UNL     1      33.846 -18.077 -22.800  0.00  0.00    -0.295 N 
ATOM      4  N   UNL     1      33.869 -15.937 -21.724  0.00  0.00    -0.062 NA
ATOM      5  C   UNL     1      33.704 -15.980 -23.999  0.00  0.00    +0.072 A 
ATOM      6  C   UNL     1      33.703 -14.666 -23.567  0.00  0.00    +0.183 A 
ATOM      7  C   UNL     1      33.810 -16.720 -22.805  0.00  0.00    +0.174 A 
ATOM      8  C   UNL     1      33.612 -13.562 -24.412  0.00  0.00    +0.101 C 
ATOM      9  C   UNL     1      33.611 -16.246 -25.373  0.00  0.00    +0.007 C 
ATOM     10  C   UNL     1      33.519 -13.843 -25.778  0.00  0.00    +0.065 C 
ATOM     11  C   UNL     1      33.518 -15.159 -26.252  0.00  0.00    +0.012 C 
ATOM     12  H   UNL     1      33.700 -18.482 -23.686  0.00  0.00    +0.154 HD
ENDROOT
BRANCH   3  13
ATOM     13  C   UNL     1      34.052 -19.028 -21.761  0.00  0.00    +0.049 C 
ATOM     14  C   UNL     1      35.348 -19.353 -21.361  0.00  0.00    +0.018 C 
ATOM     15  C   UNL     1      35.549 -20.285 -20.342  0.00  0.00    +0.073 C 
ATOM     16  C   UNL     1      32.958 -19.634 -21.143  0.00  0.00    +0.015 C 
ATOM     17  C   UNL     1      34.456 -20.891 -19.724  0.00  0.00    +0.004 C 
ATOM     18  C   UNL     1      33.159 -20.565 -20.125  0.00  0.00    +0.001 C 
BRANCH  15  22
ATOM     19  F   UNL     1      37.319 -21.894 -20.276  0.00  0.00    -0.166 F 
ATOM     20  F   UNL     1      37.892 -19.809 -20.432  0.00  0.00    -0.166 F 
ATOM     21  F   UNL     1      37.096 -20.577 -18.560  0.00  0.00    -0.166 F 
ATOM     22  C   UNL     1      36.935 -20.634 -19.914  0.00  0.00    +0.419 C 
ENDBRANCH  15  22
ENDBRANCH   3  13
BRANCH   8  25
ATOM     23  O   UNL     1      34.525 -11.422 -24.148  0.00  0.00    -0.270 OA
ATOM     24  N   UNL     1      32.558 -11.924 -22.999  0.00  0.00    -0.278 N 
ATOM     25  C   UNL     1      33.617 -12.215 -23.868  0.00  0.00    +0.253 C 
ATOM     26  H   UNL     1      31.902 -12.645 -22.864  0.00  0.00    +0.155 HD
BRANCH  24  29
ATOM     27  N   UNL     1      31.609  -9.595 -20.280  0.00  0.00    -0.221 NA
ATOM     28  N   UNL     1      32.277  -8.317 -22.210  0.00  0.00    -0.221 NA
ATOM     29  C   UNL     1      32.309 -10.721 -22.289  0.00  0.00    +0.089 C 
ATOM     30  C   UNL     1      31.855 -10.719 -20.986  0.00  0.00    +0.117 C 
ATOM     31  C   UNL     1      32.503  -9.479 -22.857  0.00  0.00    +0.117 C 
ATOM     32  C   UNL     1      31.837  -8.446 -20.944  0.00  0.00    +0.199 C 
ENDBRANCH  24  29
ENDBRANCH   8  25
TORSDOF 4
ENDMDL
