MODEL 1
REMARK VINA RESULT:      -7.6      0.000      0.000
REMARK  Name = 5245
REMARK  9 active torsions:
REMARK  status: ('A' for Active; 'I' for Inactive)
REMARK    1  A    between atoms: C_1  and  P_2
REMARK    2  A    between atoms: C_1  and  P_8
REMARK    3  A    between atoms: C_1  and  O_14
REMARK    4  A    between atoms: C_1  and  C_16
REMARK    5  A    between atoms: P_2  and  O_4
REMARK    6  A    between atoms: P_2  and  O_6
REMARK    7  A    between atoms: P_8  and  O_10
REMARK    8  A    between atoms: P_8  and  O_12
REMARK    9  A    between atoms: C_16  and  C_18
REMARK                            x       y       z     vdW  Elec       q    Type
REMARK                         _______ _______ _______ _____ _____    ______ ____
ROOT
ATOM      1  C   UNL     1      36.572 -24.544 -13.799  0.00  0.00    +0.279 C 
ENDROOT
BRANCH   1   2
ATOM      2  P   UNL     1      36.407 -24.957 -12.028  0.00  0.00    +0.372 P 
ATOM      3  O   UNL     1      37.161 -24.068 -11.085  0.00  0.00    -0.255 OA
BRANCH   2   4
ATOM      4  O   UNL     1      36.809 -26.521 -11.973  0.00  0.00    -0.322 OA
ATOM      5  H   UNL     1      36.349 -26.948 -11.232  0.00  0.00    +0.220 HD
ENDBRANCH   2   4
BRANCH   2   6
ATOM      6  O   UNL     1      34.809 -24.984 -11.788  0.00  0.00    -0.322 OA
ATOM      7  H   UNL     1      34.617 -24.759 -10.864  0.00  0.00    +0.220 HD
ENDBRANCH   2   6
ENDBRANCH   1   2
BRANCH   1   8
ATOM      8  P   UNL     1      38.214 -24.638 -14.647  0.00  0.00    +0.372 P 
ATOM      9  O   UNL     1      38.523 -23.473 -15.541  0.00  0.00    -0.255 OA
BRANCH   8  10
ATOM     10  O   UNL     1      39.243 -24.857 -13.420  0.00  0.00    -0.322 OA
ATOM     11  H   UNL     1      39.475 -25.797 -13.357  0.00  0.00    +0.220 HD
ENDBRANCH   8  10
BRANCH   8  12
ATOM     12  O   UNL     1      38.194 -26.076 -15.381  0.00  0.00    -0.322 OA
ATOM     13  H   UNL     1      37.515 -26.637 -14.975  0.00  0.00    +0.220 HD
ENDBRANCH   8  12
ENDBRANCH   1   8
BRANCH   1  14
ATOM     14  O   UNL     1      35.867 -25.596 -14.458  0.00  0.00    -0.366 OA
ATOM     15  H   UNL     1      36.035 -26.434 -13.998  0.00  0.00    +0.212 HD
ENDBRANCH   1  14
BRANCH   1  16
ATOM     16  C   UNL     1      35.938 -23.181 -14.179  0.00  0.00    +0.079 C 
BRANCH  16  18
ATOM     17  N   UNL     1      34.254 -23.036 -17.546  0.00  0.00    -0.243 NA
ATOM     18  C   UNL     1      34.857 -23.204 -15.230  0.00  0.00    +0.001 C 
ATOM     19  C   UNL     1      33.539 -23.402 -14.869  0.00  0.00    -0.001 C 
ATOM     20  C   UNL     1      35.174 -23.026 -16.556  0.00  0.00    +0.095 C 
ATOM     21  C   UNL     1      32.565 -23.417 -15.860  0.00  0.00    +0.020 C 
ATOM     22  C   UNL     1      32.970 -23.231 -17.172  0.00  0.00    +0.099 C 
ENDBRANCH  16  18
ENDBRANCH   1  16
TORSDOF 9
ENDMDL
MODEL 2
REMARK VINA RESULT:      -7.6      0.193      1.507
REMARK  Name = 5245
REMARK  9 active torsions:
REMARK  status: ('A' for Active; 'I' for Inactive)
REMARK    1  A    between atoms: C_1  and  P_2
REMARK    2  A    between atoms: C_1  and  P_8
REMARK    3  A    between atoms: C_1  and  O_14
REMARK    4  A    between atoms: C_1  and  C_16
REMARK    5  A    between atoms: P_2  and  O_4
REMARK    6  A    between atoms: P_2  and  O_6
REMARK    7  A    between atoms: P_8  and  O_10
REMARK    8  A    between atoms: P_8  and  O_12
REMARK    9  A    between atoms: C_16  and  C_18
REMARK                            x       y       z     vdW  Elec       q    Type
REMARK                         _______ _______ _______ _____ _____    ______ ____
ROOT
ATOM      1  C   UNL     1      36.661 -24.638 -13.828  0.00  0.00    +0.279 C 
ENDROOT
BRANCH   1   2
ATOM      2  P   UNL     1      36.336 -25.032 -12.075  0.00  0.00    +0.372 P 
ATOM      3  O   UNL     1      34.931 -24.791 -11.609  0.00  0.00    -0.255 OA
BRANCH   2   4
ATOM      4  O   UNL     1      37.476 -24.197 -11.289  0.00  0.00    -0.322 OA
ATOM      5  H   UNL     1      37.822 -24.731 -10.557  0.00  0.00    +0.220 HD
ENDBRANCH   2   4
BRANCH   2   6
ATOM      6  O   UNL     1      36.838 -26.561 -11.925  0.00  0.00    -0.322 OA
ATOM      7  H   UNL     1      37.449 -26.774 -12.647  0.00  0.00    +0.220 HD
ENDBRANCH   2   6
ENDBRANCH   1   2
BRANCH   1   8
ATOM      8  P   UNL     1      38.362 -24.802 -14.538  0.00  0.00    +0.372 P 
ATOM      9  O   UNL     1      39.466 -24.805 -13.522  0.00  0.00    -0.255 OA
BRANCH   8  10
ATOM     10  O   UNL     1      38.250 -26.139 -15.439  0.00  0.00    -0.322 OA
ATOM     11  H   UNL     1      39.108 -26.321 -15.855  0.00  0.00    +0.220 HD
ENDBRANCH   8  10
BRANCH   8  12
ATOM     12  O   UNL     1      38.444 -23.618 -15.634  0.00  0.00    -0.322 OA
ATOM     13  H   UNL     1      38.681 -23.992 -16.497  0.00  0.00    +0.220 HD
ENDBRANCH   8  12
ENDBRANCH   1   8
BRANCH   1  14
ATOM     14  O   UNL     1      35.972 -25.668 -14.538  0.00  0.00    -0.366 OA
ATOM     15  H   UNL     1      35.337 -26.100 -13.944  0.00  0.00    +0.212 HD
ENDBRANCH   1  14
BRANCH   1  16
ATOM     16  C   UNL     1      36.114 -23.255 -14.263  0.00  0.00    +0.079 C 
BRANCH  16  18
ATOM     17  N   UNL     1      34.170 -23.054 -17.485  0.00  0.00    -0.243 NA
ATOM     18  C   UNL     1      34.952 -23.255 -15.226  0.00  0.00    +0.001 C 
ATOM     19  C   UNL     1      33.666 -23.447 -14.764  0.00  0.00    -0.001 C 
ATOM     20  C   UNL     1      35.165 -23.065 -16.571  0.00  0.00    +0.095 C 
ATOM     21  C   UNL     1      32.616 -23.442 -15.674  0.00  0.00    +0.020 C 
ATOM     22  C   UNL     1      32.917 -23.243 -17.012  0.00  0.00    +0.099 C 
ENDBRANCH  16  18
ENDBRANCH   1  16
TORSDOF 9
ENDMDL
MODEL 3
REMARK VINA RESULT:      -7.2      1.387      3.285
REMARK  Name = 5245
REMARK  9 active torsions:
REMARK  status: ('A' for Active; 'I' for Inactive)
REMARK    1  A    between atoms: C_1  and  P_2
REMARK    2  A    between atoms: C_1  and  P_8
REMARK    3  A    between atoms: C_1  and  O_14
REMARK    4  A    between atoms: C_1  and  C_16
REMARK    5  A    between atoms: P_2  and  O_4
REMARK    6  A    between atoms: P_2  and  O_6
REMARK    7  A    between atoms: P_8  and  O_10
REMARK    8  A    between atoms: P_8  and  O_12
REMARK    9  A    between atoms: C_16  and  C_18
REMARK                            x       y       z     vdW  Elec       q    Type
REMARK                         _______ _______ _______ _____ _____    ______ ____
ROOT
ATOM      1  C   UNL     1      36.822 -24.253 -13.842  0.00  0.00    +0.279 C 
ENDROOT
BRANCH   1   2
ATOM      2  P   UNL     1      36.844 -25.918 -14.591  0.00  0.00    +0.372 P 
ATOM      3  O   UNL     1      35.770 -26.185 -15.603  0.00  0.00    -0.255 OA
BRANCH   2   4
ATOM      4  O   UNL     1      36.846 -26.902 -13.310  0.00  0.00    -0.322 OA
ATOM      5  H   UNL     1      36.261 -26.542 -12.624  0.00  0.00    +0.220 HD
ENDBRANCH   2   4
BRANCH   2   6
ATOM      6  O   UNL     1      38.349 -26.062 -15.162  0.00  0.00    -0.322 OA
ATOM      7  H   UNL     1      38.320 -26.402 -16.071  0.00  0.00    +0.220 HD
ENDBRANCH   2   6
ENDBRANCH   1   2
BRANCH   1   8
ATOM      8  P   UNL     1      36.921 -24.036 -12.008  0.00  0.00    +0.372 P 
ATOM      9  O   UNL     1      37.025 -22.610 -11.552  0.00  0.00    -0.255 OA
BRANCH   8  10
ATOM     10  O   UNL     1      35.620 -24.835 -11.478  0.00  0.00    -0.322 OA
ATOM     11  H   UNL     1      35.726 -25.782 -11.661  0.00  0.00    +0.220 HD
ENDBRANCH   8  10
BRANCH   8  12
ATOM     12  O   UNL     1      38.150 -24.986 -11.566  0.00  0.00    -0.322 OA
ATOM     13  H   UNL     1      38.364 -24.825 -10.634  0.00  0.00    +0.220 HD
ENDBRANCH   8  12
ENDBRANCH   1   8
BRANCH   1  14
ATOM     14  O   UNL     1      38.067 -23.684 -14.249  0.00  0.00    -0.366 OA
ATOM     15  H   UNL     1      38.157 -23.759 -15.213  0.00  0.00    +0.212 HD
ENDBRANCH   1  14
BRANCH   1  16
ATOM     16  C   UNL     1      35.657 -23.363 -14.347  0.00  0.00    +0.079 C 
BRANCH  16  18
ATOM     17  N   UNL     1      34.807 -22.670 -17.952  0.00  0.00    -0.243 NA
ATOM     18  C   UNL     1      35.763 -22.840 -15.758  0.00  0.00    +0.001 C 
ATOM     19  C   UNL     1      36.856 -22.090 -16.142  0.00  0.00    -0.001 C 
ATOM     20  C   UNL     1      34.773 -23.108 -16.673  0.00  0.00    +0.095 C 
ATOM     21  C   UNL     1      36.926 -21.623 -17.450  0.00  0.00    +0.020 C 
ATOM     22  C   UNL     1      35.885 -21.937 -18.309  0.00  0.00    +0.099 C 
ENDBRANCH  16  18
ENDBRANCH   1  16
TORSDOF 9
ENDMDL
MODEL 4
REMARK VINA RESULT:      -6.9      1.302      2.412
REMARK  Name = 5245
REMARK  9 active torsions:
REMARK  status: ('A' for Active; 'I' for Inactive)
REMARK    1  A    between atoms: C_1  and  P_2
REMARK    2  A    between atoms: C_1  and  P_8
REMARK    3  A    between atoms: C_1  and  O_14
REMARK    4  A    between atoms: C_1  and  C_16
REMARK    5  A    between atoms: P_2  and  O_4
REMARK    6  A    between atoms: P_2  and  O_6
REMARK    7  A    between atoms: P_8  and  O_10
REMARK    8  A    between atoms: P_8  and  O_12
REMARK    9  A    between atoms: C_16  and  C_18
REMARK                            x       y       z     vdW  Elec       q    Type
REMARK                         _______ _______ _______ _____ _____    ______ ____
ROOT
ATOM      1  C   UNL     1      36.377 -24.211 -14.570  0.00  0.00    +0.279 C 
ENDROOT
BRANCH   1   2
ATOM      2  P   UNL     1      35.447 -24.321 -13.002  0.00  0.00    +0.372 P 
ATOM      3  O   UNL     1      33.954 -24.346 -13.138  0.00  0.00    -0.255 OA
BRANCH   2   4
ATOM      4  O   UNL     1      36.040 -23.095 -12.132  0.00  0.00    -0.322 OA
ATOM      5  H   UNL     1      35.653 -23.113 -11.242  0.00  0.00    +0.220 HD
ENDBRANCH   2   4
BRANCH   2   6
ATOM      6  O   UNL     1      36.073 -25.621 -12.274  0.00  0.00    -0.322 OA
ATOM      7  H   UNL     1      35.648 -26.421 -12.617  0.00  0.00    +0.220 HD
ENDBRANCH   2   6
ENDBRANCH   1   2
BRANCH   1   8
ATOM      8  P   UNL     1      38.129 -24.795 -14.677  0.00  0.00    +0.372 P 
ATOM      9  O   UNL     1      38.286 -26.236 -15.067  0.00  0.00    -0.255 OA
BRANCH   8  10
ATOM     10  O   UNL     1      38.805 -23.730 -15.687  0.00  0.00    -0.322 OA
ATOM     11  H   UNL     1      39.304 -23.073 -15.178  0.00  0.00    +0.220 HD
ENDBRANCH   8  10
BRANCH   8  12
ATOM     12  O   UNL     1      38.761 -24.403 -13.243  0.00  0.00    -0.322 OA
ATOM     13  H   UNL     1      38.726 -23.440 -13.127  0.00  0.00    +0.220 HD
ENDBRANCH   8  12
ENDBRANCH   1   8
BRANCH   1  14
ATOM     14  O   UNL     1      35.725 -25.158 -15.416  0.00  0.00    -0.366 OA
ATOM     15  H   UNL     1      34.794 -25.238 -15.153  0.00  0.00    +0.212 HD
ENDBRANCH   1  14
BRANCH   1  16
ATOM     16  C   UNL     1      36.321 -22.807 -15.225  0.00  0.00    +0.079 C 
BRANCH  16  18
ATOM     17  N   UNL     1      33.456 -23.051 -17.661  0.00  0.00    -0.243 NA
ATOM     18  C   UNL     1      35.523 -22.684 -16.500  0.00  0.00    +0.001 C 
ATOM     19  C   UNL     1      36.091 -22.121 -17.624  0.00  0.00    -0.001 C 
ATOM     20  C   UNL     1      34.225 -23.132 -16.551  0.00  0.00    +0.095 C 
ATOM     21  C   UNL     1      35.332 -22.021 -18.784  0.00  0.00    +0.020 C 
ATOM     22  C   UNL     1      34.030 -22.497 -18.751  0.00  0.00    +0.099 C 
ENDBRANCH  16  18
ENDBRANCH   1  16
TORSDOF 9
ENDMDL
MODEL 5
REMARK VINA RESULT:      -6.8      1.132      3.073
REMARK  Name = 5245
REMARK  9 active torsions:
REMARK  status: ('A' for Active; 'I' for Inactive)
REMARK    1  A    between atoms: C_1  and  P_2
REMARK    2  A    between atoms: C_1  and  P_8
REMARK    3  A    between atoms: C_1  and  O_14
REMARK    4  A    between atoms: C_1  and  C_16
REMARK    5  A    between atoms: P_2  and  O_4
REMARK    6  A    between atoms: P_2  and  O_6
REMARK    7  A    between atoms: P_8  and  O_10
REMARK    8  A    between atoms: P_8  and  O_12
REMARK    9  A    between atoms: C_16  and  C_18
REMARK                            x       y       z     vdW  Elec       q    Type
REMARK                         _______ _______ _______ _____ _____    ______ ____
ROOT
ATOM      1  C   UNL     1      36.210 -24.231 -13.703  0.00  0.00    +0.279 C 
ENDROOT
BRANCH   1   2
ATOM      2  P   UNL     1      37.714 -24.171 -14.737  0.00  0.00    +0.372 P 
ATOM      3  O   UNL     1      37.885 -22.926 -15.556  0.00  0.00    -0.255 OA
BRANCH   2   4
ATOM      4  O   UNL     1      37.640 -25.547 -15.580  0.00  0.00    -0.322 OA
ATOM      5  H   UNL     1      37.879 -25.374 -16.505  0.00  0.00    +0.220 HD
ENDBRANCH   2   4
BRANCH   2   6
ATOM      6  O   UNL     1      38.912 -24.450 -13.689  0.00  0.00    -0.322 OA
ATOM      7  H   UNL     1      39.236 -23.607 -13.335  0.00  0.00    +0.220 HD
ENDBRANCH   2   6
ENDBRANCH   1   2
BRANCH   1   8
ATOM      8  P   UNL     1      36.306 -24.689 -11.913  0.00  0.00    +0.372 P 
ATOM      9  O   UNL     1      37.018 -23.690 -11.049  0.00  0.00    -0.255 OA
BRANCH   8  10
ATOM     10  O   UNL     1      34.760 -24.959 -11.526  0.00  0.00    -0.322 OA
ATOM     11  H   UNL     1      34.193 -24.336 -12.007  0.00  0.00    +0.220 HD
ENDBRANCH   8  10
BRANCH   8  12
ATOM     12  O   UNL     1      36.954 -26.169 -11.922  0.00  0.00    -0.322 OA
ATOM     13  H   UNL     1      36.262 -26.825 -11.744  0.00  0.00    +0.220 HD
ENDBRANCH   8  12
ENDBRANCH   1   8
BRANCH   1  14
ATOM     14  O   UNL     1      35.810 -22.863 -13.611  0.00  0.00    -0.366 OA
ATOM     15  H   UNL     1      35.564 -22.660 -12.695  0.00  0.00    +0.212 HD
ENDBRANCH   1  14
BRANCH   1  16
ATOM     16  C   UNL     1      35.062 -25.064 -14.329  0.00  0.00    +0.079 C 
BRANCH  16  18
ATOM     17  N   UNL     1      33.158 -23.119 -16.934  0.00  0.00    -0.243 NA
ATOM     18  C   UNL     1      33.951 -24.295 -14.999  0.00  0.00    +0.001 C 
ATOM     19  C   UNL     1      32.763 -24.067 -14.335  0.00  0.00    -0.001 C 
ATOM     20  C   UNL     1      34.113 -23.815 -16.277  0.00  0.00    +0.095 C 
ATOM     21  C   UNL     1      31.758 -23.354 -14.978  0.00  0.00    +0.020 C 
ATOM     22  C   UNL     1      32.002 -22.906 -16.266  0.00  0.00    +0.099 C 
ENDBRANCH  16  18
ENDBRANCH   1  16
TORSDOF 9
ENDMDL
MODEL 6
REMARK VINA RESULT:      -6.7      1.315      3.119
REMARK  Name = 5245
REMARK  9 active torsions:
REMARK  status: ('A' for Active; 'I' for Inactive)
REMARK    1  A    between atoms: C_1  and  P_2
REMARK    2  A    between atoms: C_1  and  P_8
REMARK    3  A    between atoms: C_1  and  O_14
REMARK    4  A    between atoms: C_1  and  C_16
REMARK    5  A    between atoms: P_2  and  O_4
REMARK    6  A    between atoms: P_2  and  O_6
REMARK    7  A    between atoms: P_8  and  O_10
REMARK    8  A    between atoms: P_8  and  O_12
REMARK    9  A    between atoms: C_16  and  C_18
REMARK                            x       y       z     vdW  Elec       q    Type
REMARK                         _______ _______ _______ _____ _____    ______ ____
ROOT
ATOM      1  C   UNL     1      37.164 -24.196 -13.786  0.00  0.00    +0.279 C 
ENDROOT
BRANCH   1   2
ATOM      2  P   UNL     1      38.655 -24.929 -14.543  0.00  0.00    +0.372 P 
ATOM      3  O   UNL     1      38.516 -26.352 -14.996  0.00  0.00    -0.255 OA
BRANCH   2   4
ATOM      4  O   UNL     1      39.801 -24.666 -13.435  0.00  0.00    -0.322 OA
ATOM      5  H   UNL     1      39.765 -25.362 -12.759  0.00  0.00    +0.220 HD
ENDBRANCH   2   4
BRANCH   2   6
ATOM      6  O   UNL     1      39.040 -23.888 -15.718  0.00  0.00    -0.322 OA
ATOM      7  H   UNL     1      39.197 -24.374 -16.543  0.00  0.00    +0.220 HD
ENDBRANCH   2   6
ENDBRANCH   1   2
BRANCH   1   8
ATOM      8  P   UNL     1      37.153 -23.691 -12.006  0.00  0.00    +0.372 P 
ATOM      9  O   UNL     1      35.793 -23.372 -11.455  0.00  0.00    -0.255 OA
BRANCH   8  10
ATOM     10  O   UNL     1      37.923 -24.911 -11.279  0.00  0.00    -0.322 OA
ATOM     11  H   UNL     1      37.273 -25.515 -10.886  0.00  0.00    +0.220 HD
ENDBRANCH   8  10
BRANCH   8  12
ATOM     12  O   UNL     1      38.219 -22.480 -11.937  0.00  0.00    -0.322 OA
ATOM     13  H   UNL     1      37.917 -21.750 -12.500  0.00  0.00    +0.220 HD
ENDBRANCH   8  12
ENDBRANCH   1   8
BRANCH   1  14
ATOM     14  O   UNL     1      37.049 -22.926 -14.428  0.00  0.00    -0.366 OA
ATOM     15  H   UNL     1      37.828 -22.387 -14.219  0.00  0.00    +0.212 HD
ENDBRANCH   1  14
BRANCH   1  16
ATOM     16  C   UNL     1      35.874 -25.020 -14.036  0.00  0.00    +0.079 C 
BRANCH  16  18
ATOM     17  N   UNL     1      33.988 -23.527 -16.936  0.00  0.00    -0.243 NA
ATOM     18  C   UNL     1      34.779 -24.346 -14.825  0.00  0.00    +0.001 C 
ATOM     19  C   UNL     1      33.616 -23.945 -14.198  0.00  0.00    -0.001 C 
ATOM     20  C   UNL     1      34.930 -24.125 -16.173  0.00  0.00    +0.095 C 
ATOM     21  C   UNL     1      32.625 -23.325 -14.950  0.00  0.00    +0.020 C 
ATOM     22  C   UNL     1      32.857 -23.141 -16.304  0.00  0.00    +0.099 C 
ENDBRANCH  16  18
ENDBRANCH   1  16
TORSDOF 9
ENDMDL
MODEL 7
REMARK VINA RESULT:      -6.7      8.538     10.037
REMARK  Name = 5245
REMARK  9 active torsions:
REMARK  status: ('A' for Active; 'I' for Inactive)
REMARK    1  A    between atoms: C_1  and  P_2
REMARK    2  A    between atoms: C_1  and  P_8
REMARK    3  A    between atoms: C_1  and  O_14
REMARK    4  A    between atoms: C_1  and  C_16
REMARK    5  A    between atoms: P_2  and  O_4
REMARK    6  A    between atoms: P_2  and  O_6
REMARK    7  A    between atoms: P_8  and  O_10
REMARK    8  A    between atoms: P_8  and  O_12
REMARK    9  A    between atoms: C_16  and  C_18
REMARK                            x       y       z     vdW  Elec       q    Type
REMARK                         _______ _______ _______ _____ _____    ______ ____
ROOT
ATOM      1  C   UNL     1      34.596 -17.585 -21.579  0.00  0.00    +0.279 C 
ENDROOT
BRANCH   1   2
ATOM      2  P   UNL     1      33.894 -15.947 -21.184  0.00  0.00    +0.372 P 
ATOM      3  O   UNL     1      34.753 -15.065 -20.328  0.00  0.00    -0.255 OA
BRANCH   2   4
ATOM      4  O   UNL     1      32.443 -16.303 -20.569  0.00  0.00    -0.322 OA
ATOM      5  H   UNL     1      32.449 -17.213 -20.230  0.00  0.00    +0.220 HD
ENDBRANCH   2   4
BRANCH   2   6
ATOM      6  O   UNL     1      33.532 -15.325 -22.631  0.00  0.00    -0.322 OA
ATOM      7  H   UNL     1      34.207 -14.674 -22.882  0.00  0.00    +0.220 HD
ENDBRANCH   2   6
ENDBRANCH   1   2
BRANCH   1   8
ATOM      8  P   UNL     1      35.566 -17.854 -23.131  0.00  0.00    +0.372 P 
ATOM      9  O   UNL     1      34.933 -18.800 -24.108  0.00  0.00    -0.255 OA
BRANCH   8  10
ATOM     10  O   UNL     1      35.797 -16.350 -23.678  0.00  0.00    -0.322 OA
ATOM     11  H   UNL     1      36.442 -15.897 -23.114  0.00  0.00    +0.220 HD
ENDBRANCH   8  10
BRANCH   8  12
ATOM     12  O   UNL     1      37.031 -18.290 -22.607  0.00  0.00    -0.322 OA
ATOM     13  H   UNL     1      37.040 -18.292 -21.637  0.00  0.00    +0.220 HD
ENDBRANCH   8  12
ENDBRANCH   1   8
BRANCH   1  14
ATOM     14  O   UNL     1      35.612 -17.763 -20.591  0.00  0.00    -0.366 OA
ATOM     15  H   UNL     1      35.214 -18.114 -19.778  0.00  0.00    +0.212 HD
ENDBRANCH   1  14
BRANCH   1  16
ATOM     16  C   UNL     1      33.568 -18.741 -21.476  0.00  0.00    +0.079 C 
BRANCH  16  18
ATOM     17  N   UNL     1      35.708 -21.433 -19.938  0.00  0.00    -0.243 NA
ATOM     18  C   UNL     1      33.973 -19.941 -20.656  0.00  0.00    +0.001 C 
ATOM     19  C   UNL     1      33.035 -20.620 -19.906  0.00  0.00    -0.001 C 
ATOM     20  C   UNL     1      35.280 -20.367 -20.649  0.00  0.00    +0.095 C 
ATOM     21  C   UNL     1      33.438 -21.722 -19.161  0.00  0.00    +0.020 C 
ATOM     22  C   UNL     1      34.774 -22.086 -19.210  0.00  0.00    +0.099 C 
ENDBRANCH  16  18
ENDBRANCH   1  16
TORSDOF 9
ENDMDL
MODEL 8
REMARK VINA RESULT:      -6.4      1.683      3.450
REMARK  Name = 5245
REMARK  9 active torsions:
REMARK  status: ('A' for Active; 'I' for Inactive)
REMARK    1  A    between atoms: C_1  and  P_2
REMARK    2  A    between atoms: C_1  and  P_8
REMARK    3  A    between atoms: C_1  and  O_14
REMARK    4  A    between atoms: C_1  and  C_16
REMARK    5  A    between atoms: P_2  and  O_4
REMARK    6  A    between atoms: P_2  and  O_6
REMARK    7  A    between atoms: P_8  and  O_10
REMARK    8  A    between atoms: P_8  and  O_12
REMARK    9  A    between atoms: C_16  and  C_18
REMARK                            x       y       z     vdW  Elec       q    Type
REMARK                         _______ _______ _______ _____ _____    ______ ____
ROOT
ATOM      1  C   UNL     1      36.230 -24.017 -13.699  0.00  0.00    +0.279 C 
ENDROOT
BRANCH   1   2
ATOM      2  P   UNL     1      37.530 -24.335 -14.941  0.00  0.00    +0.372 P 
ATOM      3  O   UNL     1      38.940 -24.235 -14.439  0.00  0.00    -0.255 OA
BRANCH   2   4
ATOM      4  O   UNL     1      37.153 -23.322 -16.142  0.00  0.00    -0.322 OA
ATOM      5  H   UNL     1      37.471 -23.685 -16.984  0.00  0.00    +0.220 HD
ENDBRANCH   2   4
BRANCH   2   6
ATOM      6  O   UNL     1      37.138 -25.781 -15.547  0.00  0.00    -0.322 OA
ATOM      7  H   UNL     1      37.883 -26.392 -15.436  0.00  0.00    +0.220 HD
ENDBRANCH   2   6
ENDBRANCH   1   2
BRANCH   1   8
ATOM      8  P   UNL     1      36.617 -24.044 -11.890  0.00  0.00    +0.372 P 
ATOM      9  O   UNL     1      37.563 -25.131 -11.470  0.00  0.00    -0.255 OA
BRANCH   8  10
ATOM     10  O   UNL     1      37.127 -22.538 -11.606  0.00  0.00    -0.322 OA
ATOM     11  H   UNL     1      36.365 -21.939 -11.575  0.00  0.00    +0.220 HD
ENDBRANCH   8  10
BRANCH   8  12
ATOM     12  O   UNL     1      35.167 -24.088 -11.180  0.00  0.00    -0.322 OA
ATOM     13  H   UNL     1      34.657 -24.834 -11.533  0.00  0.00    +0.220 HD
ENDBRANCH   8  12
ENDBRANCH   1   8
BRANCH   1  14
ATOM     14  O   UNL     1      35.915 -22.637 -13.887  0.00  0.00    -0.366 OA
ATOM     15  H   UNL     1      35.341 -22.335 -13.165  0.00  0.00    +0.212 HD
ENDBRANCH   1  14
BRANCH   1  16
ATOM     16  C   UNL     1      34.953 -24.871 -13.908  0.00  0.00    +0.079 C 
BRANCH  16  18
ATOM     17  N   UNL     1      31.595 -23.190 -14.220  0.00  0.00    -0.243 NA
ATOM     18  C   UNL     1      33.762 -24.176 -14.519  0.00  0.00    +0.001 C 
ATOM     19  C   UNL     1      33.737 -23.896 -15.870  0.00  0.00    -0.001 C 
ATOM     20  C   UNL     1      32.692 -23.815 -13.735  0.00  0.00    +0.095 C 
ATOM     21  C   UNL     1      32.626 -23.255 -16.405  0.00  0.00    +0.020 C 
ATOM     22  C   UNL     1      31.590 -22.926 -15.546  0.00  0.00    +0.099 C 
ENDBRANCH  16  18
ENDBRANCH   1  16
TORSDOF 9
ENDMDL
MODEL 9
REMARK VINA RESULT:      -6.3      1.308      3.191
REMARK  Name = 5245
REMARK  9 active torsions:
REMARK  status: ('A' for Active; 'I' for Inactive)
REMARK    1  A    between atoms: C_1  and  P_2
REMARK    2  A    between atoms: C_1  and  P_8
REMARK    3  A    between atoms: C_1  and  O_14
REMARK    4  A    between atoms: C_1  and  C_16
REMARK    5  A    between atoms: P_2  and  O_4
REMARK    6  A    between atoms: P_2  and  O_6
REMARK    7  A    between atoms: P_8  and  O_10
REMARK    8  A    between atoms: P_8  and  O_12
REMARK    9  A    between atoms: C_16  and  C_18
REMARK                            x       y       z     vdW  Elec       q    Type
REMARK                         _______ _______ _______ _____ _____    ______ ____
ROOT
ATOM      1  C   UNL     1      37.047 -24.450 -13.813  0.00  0.00    +0.279 C 
ENDROOT
BRANCH   1   2
ATOM      2  P   UNL     1      36.854 -26.047 -14.676  0.00  0.00    +0.372 P 
ATOM      3  O   UNL     1      35.729 -26.115 -15.665  0.00  0.00    -0.255 OA
BRANCH   2   4
ATOM      4  O   UNL     1      36.774 -27.116 -13.466  0.00  0.00    -0.322 OA
ATOM      5  H   UNL     1      36.528 -26.659 -12.646  0.00  0.00    +0.220 HD
ENDBRANCH   2   4
BRANCH   2   6
ATOM      6  O   UNL     1      38.316 -26.323 -15.308  0.00  0.00    -0.322 OA
ATOM      7  H   UNL     1      38.232 -26.481 -16.261  0.00  0.00    +0.220 HD
ENDBRANCH   2   6
ENDBRANCH   1   2
BRANCH   1   8
ATOM      8  P   UNL     1      36.518 -24.252 -12.052  0.00  0.00    +0.372 P 
ATOM      9  O   UNL     1      35.286 -25.024 -11.679  0.00  0.00    -0.255 OA
BRANCH   8  10
ATOM     10  O   UNL     1      37.852 -24.642 -11.227  0.00  0.00    -0.322 OA
ATOM     11  H   UNL     1      37.960 -24.031 -10.481  0.00  0.00    +0.220 HD
ENDBRANCH   8  10
BRANCH   8  12
ATOM     12  O   UNL     1      36.408 -22.653 -11.853  0.00  0.00    -0.322 OA
ATOM     13  H   UNL     1      37.099 -22.355 -11.241  0.00  0.00    +0.220 HD
ENDBRANCH   8  12
ENDBRANCH   1   8
BRANCH   1  14
ATOM     14  O   UNL     1      38.462 -24.304 -13.688  0.00  0.00    -0.366 OA
ATOM     15  H   UNL     1      38.806 -24.986 -13.089  0.00  0.00    +0.212 HD
ENDBRANCH   1  14
BRANCH   1  16
ATOM     16  C   UNL     1      36.472 -23.246 -14.603  0.00  0.00    +0.079 C 
BRANCH  16  18
ATOM     17  N   UNL     1      32.742 -23.781 -14.527  0.00  0.00    -0.243 NA
ATOM     18  C   UNL     1      35.041 -23.361 -15.069  0.00  0.00    +0.001 C 
ATOM     19  C   UNL     1      34.725 -23.163 -16.398  0.00  0.00    -0.001 C 
ATOM     20  C   UNL     1      34.042 -23.664 -14.175  0.00  0.00    +0.095 C 
ATOM     21  C   UNL     1      33.399 -23.276 -16.798  0.00  0.00    +0.020 C 
ATOM     22  C   UNL     1      32.453 -23.584 -15.833  0.00  0.00    +0.099 C 
ENDBRANCH  16  18
ENDBRANCH   1  16
TORSDOF 9
ENDMDL
