MODEL 1
REMARK VINA RESULT:     -10.2      0.000      0.000
REMARK  Name = 25254071
REMARK  5 active torsions:
REMARK  status: ('A' for Active; 'I' for Inactive)
REMARK    1  A    between atoms: C_6  and  C_26
REMARK    2  A    between atoms: C_16  and  C_20
REMARK    3  A    between atoms: C_26  and  N_28
REMARK    4  A    between atoms: C_34  and  C_36
REMARK    5  A    between atoms: C_36  and  O_38
REMARK                            x       y       z     vdW  Elec       q    Type
REMARK                         _______ _______ _______ _____ _____    ______ ____
ROOT
ATOM      1  S   UNL     1      36.356 -21.670 -18.714  0.00  0.00    -0.106 S 
ATOM      2  O   UNL     1      38.622 -24.071 -14.565  0.00  0.00    -0.350 OA
ATOM      3  N   UNL     1      36.316 -23.453 -16.050  0.00  0.00    -0.280 N 
ATOM      4  N   UNL     1      32.658 -22.512 -17.879  0.00  0.00    -0.343 NA
ATOM      5  N   UNL     1      33.949 -23.579 -16.132  0.00  0.00    -0.328 NA
ATOM      6  C   UNL     1      35.290 -20.986 -19.860  0.00  0.00    -0.019 C 
ATOM      7  C   UNL     1      33.974 -21.273 -19.581  0.00  0.00    +0.005 C 
ATOM      8  C   UNL     1      35.064 -22.363 -17.824  0.00  0.00    +0.171 C 
ATOM      9  C   UNL     1      33.831 -22.069 -18.405  0.00  0.00    +0.136 C 
ATOM     10  C   UNL     1      35.103 -23.133 -16.667  0.00  0.00    +0.190 C 
ATOM     11  C   UNL     1      36.407 -24.719 -15.311  0.00  0.00    +0.125 C 
ATOM     12  C   UNL     1      37.194 -22.382 -15.563  0.00  0.00    +0.125 C 
ATOM     13  C   UNL     1      37.868 -25.126 -15.163  0.00  0.00    +0.164 C 
ATOM     14  C   UNL     1      38.613 -22.913 -15.400  0.00  0.00    +0.164 C 
ATOM     15  C   UNL     1      32.830 -20.810 -20.405  0.00  0.00    +0.034 C 
ATOM     16  C   UNL     1      32.809 -23.244 -16.763  0.00  0.00    +0.138 C 
ENDROOT
BRANCH  16  20
ATOM     17  N   UNL     1      30.482 -25.176 -14.588  0.00  0.00    -0.180 NA
ATOM     18  N   UNL     1      29.191 -23.729 -16.017  0.00  0.00    -0.202 NA
ATOM     19  N   UNL     1      28.139 -25.143 -14.469  0.00  0.00    -0.303 N 
ATOM     20  C   UNL     1      31.593 -23.737 -16.166  0.00  0.00    +0.108 C 
ATOM     21  C   UNL     1      31.599 -24.692 -15.169  0.00  0.00    +0.120 C 
ATOM     22  C   UNL     1      30.349 -23.288 -16.554  0.00  0.00    +0.177 C 
ATOM     23  C   UNL     1      29.330 -24.658 -15.054  0.00  0.00    +0.084 C 
ATOM     24  H   UNL     1      28.181 -25.823 -13.759  0.00  0.00    +0.154 HD
ATOM     25  H   UNL     1      27.267 -24.799 -14.771  0.00  0.00    +0.154 HD
ENDBRANCH  16  20
BRANCH   6  26
ATOM     26  C   UNL     1      35.858 -20.181 -20.999  0.00  0.00    -0.044 C 
BRANCH  26  28
ATOM     27  O   UNL     1      33.978 -15.532 -24.761  0.00  0.00    -0.272 OA
ATOM     28  N   UNL     1      34.890 -19.221 -21.524  0.00  0.00    +0.392 N 
ATOM     29  N   UNL     1      34.061 -16.802 -22.818  0.00  0.00    -0.282 N 
ATOM     30  C   UNL     1      35.062 -19.054 -22.975  0.00  0.00    -0.055 C 
ATOM     31  C   UNL     1      35.022 -17.926 -20.839  0.00  0.00    -0.055 C 
ATOM     32  C   UNL     1      34.029 -18.077 -23.534  0.00  0.00    +0.071 C 
ATOM     33  C   UNL     1      33.992 -16.922 -21.360  0.00  0.00    +0.071 C 
ATOM     34  C   UNL     1      34.032 -15.604 -23.531  0.00  0.00    +0.252 C 
ATOM     35  H   UNL     1      33.952 -19.582 -21.351  0.00  0.00    -0.079 HD
BRANCH  34  36
ATOM     36  C   UNL     1      34.075 -14.335 -22.718  0.00  0.00    +0.187 C 
ATOM     37  C   UNL     1      32.710 -14.012 -22.153  0.00  0.00    +0.042 C 
BRANCH  36  38
ATOM     38  O   UNL     1      34.509 -13.319 -23.599  0.00  0.00    -0.376 OA
ATOM     39  H   UNL     1      35.398 -13.027 -23.341  0.00  0.00    +0.211 HD
ENDBRANCH  36  38
ENDBRANCH  34  36
ENDBRANCH  26  28
ENDBRANCH   6  26
TORSDOF 5
ENDMDL
MODEL 2
REMARK VINA RESULT:     -10.0      2.394      5.061
REMARK  Name = 25254071
REMARK  5 active torsions:
REMARK  status: ('A' for Active; 'I' for Inactive)
REMARK    1  A    between atoms: C_6  and  C_26
REMARK    2  A    between atoms: C_16  and  C_20
REMARK    3  A    between atoms: C_26  and  N_28
REMARK    4  A    between atoms: C_34  and  C_36
REMARK    5  A    between atoms: C_36  and  O_38
REMARK                            x       y       z     vdW  Elec       q    Type
REMARK                         _______ _______ _______ _____ _____    ______ ____
ROOT
ATOM      1  S   UNL     1      32.549 -21.574 -18.836  0.00  0.00    -0.106 S 
ATOM      2  O   UNL     1      29.177 -23.512 -15.231  0.00  0.00    -0.350 OA
ATOM      3  N   UNL     1      31.815 -23.093 -16.109  0.00  0.00    -0.280 N 
ATOM      4  N   UNL     1      35.848 -22.863 -17.244  0.00  0.00    -0.343 NA
ATOM      5  N   UNL     1      34.105 -23.568 -15.720  0.00  0.00    -0.328 NA
ATOM      6  C   UNL     1      33.902 -21.160 -19.793  0.00  0.00    -0.019 C 
ATOM      7  C   UNL     1      35.082 -21.608 -19.244  0.00  0.00    +0.005 C 
ATOM      8  C   UNL     1      33.528 -22.364 -17.670  0.00  0.00    +0.171 C 
ATOM      9  C   UNL     1      34.877 -22.307 -18.016  0.00  0.00    +0.136 C 
ATOM     10  C   UNL     1      33.155 -23.011 -16.497  0.00  0.00    +0.190 C 
ATOM     11  C   UNL     1      31.509 -23.148 -14.673  0.00  0.00    +0.125 C 
ATOM     12  C   UNL     1      30.840 -23.760 -16.980  0.00  0.00    +0.125 C 
ATOM     13  C   UNL     1      30.064 -22.725 -14.437  0.00  0.00    +0.164 C 
ATOM     14  C   UNL     1      29.431 -23.306 -16.621  0.00  0.00    +0.164 C 
ATOM     15  C   UNL     1      36.417 -21.394 -19.857  0.00  0.00    +0.034 C 
ATOM     16  C   UNL     1      35.380 -23.463 -16.137  0.00  0.00    +0.138 C 
ENDROOT
BRANCH  16  20
ATOM     17  N   UNL     1      38.656 -24.249 -14.547  0.00  0.00    -0.180 NA
ATOM     18  N   UNL     1      36.957 -25.640 -13.558  0.00  0.00    -0.202 NA
ATOM     19  N   UNL     1      39.192 -25.791 -12.861  0.00  0.00    -0.303 N 
ATOM     20  C   UNL     1      36.372 -24.068 -15.284  0.00  0.00    +0.108 C 
ATOM     21  C   UNL     1      37.702 -23.703 -15.329  0.00  0.00    +0.120 C 
ATOM     22  C   UNL     1      36.054 -25.052 -14.371  0.00  0.00    +0.177 C 
ATOM     23  C   UNL     1      38.220 -25.197 -13.696  0.00  0.00    +0.084 C 
ATOM     24  H   UNL     1      40.132 -25.504 -12.920  0.00  0.00    +0.154 HD
ATOM     25  H   UNL     1      38.929 -26.490 -12.220  0.00  0.00    +0.154 HD
ENDBRANCH  16  20
BRANCH   6  26
ATOM     26  C   UNL     1      33.688 -20.390 -21.068  0.00  0.00    -0.044 C 
BRANCH  26  28
ATOM     27  O   UNL     1      32.098 -14.400 -22.017  0.00  0.00    -0.272 OA
ATOM     28  N   UNL     1      33.800 -18.947 -20.859  0.00  0.00    +0.392 N 
ATOM     29  N   UNL     1      33.514 -16.185 -21.565  0.00  0.00    -0.282 N 
ATOM     30  C   UNL     1      32.472 -18.317 -20.883  0.00  0.00    -0.055 C 
ATOM     31  C   UNL     1      34.673 -18.344 -21.878  0.00  0.00    -0.055 C 
ATOM     32  C   UNL     1      32.581 -16.814 -20.631  0.00  0.00    +0.071 C 
ATOM     33  C   UNL     1      34.822 -16.839 -21.650  0.00  0.00    +0.071 C 
ATOM     34  C   UNL     1      33.167 -14.990 -22.194  0.00  0.00    +0.252 C 
ATOM     35  H   UNL     1      34.216 -18.787 -19.942  0.00  0.00    -0.079 HD
BRANCH  34  36
ATOM     36  C   UNL     1      34.182 -14.410 -23.146  0.00  0.00    +0.187 C 
ATOM     37  C   UNL     1      33.832 -12.983 -23.500  0.00  0.00    +0.042 C 
BRANCH  36  38
ATOM     38  O   UNL     1      34.159 -15.235 -24.294  0.00  0.00    -0.376 OA
ATOM     39  H   UNL     1      33.847 -16.121 -24.048  0.00  0.00    +0.211 HD
ENDBRANCH  36  38
ENDBRANCH  34  36
ENDBRANCH  26  28
ENDBRANCH   6  26
TORSDOF 5
ENDMDL
MODEL 3
REMARK VINA RESULT:      -9.4      6.333     11.283
REMARK  Name = 25254071
REMARK  5 active torsions:
REMARK  status: ('A' for Active; 'I' for Inactive)
REMARK    1  A    between atoms: C_6  and  C_26
REMARK    2  A    between atoms: C_16  and  C_20
REMARK    3  A    between atoms: C_26  and  N_28
REMARK    4  A    between atoms: C_34  and  C_36
REMARK    5  A    between atoms: C_36  and  O_38
REMARK                            x       y       z     vdW  Elec       q    Type
REMARK                         _______ _______ _______ _____ _____    ______ ____
ROOT
ATOM      1  S   UNL     1      32.148 -11.689 -23.080  0.00  0.00    -0.106 S 
ATOM      2  O   UNL     1      33.698 -13.516 -27.811  0.00  0.00    -0.350 OA
ATOM      3  N   UNL     1      33.296 -13.935 -25.060  0.00  0.00    -0.280 N 
ATOM      4  N   UNL     1      33.058 -14.816 -20.964  0.00  0.00    -0.343 NA
ATOM      5  N   UNL     1      33.614 -15.422 -23.241  0.00  0.00    -0.328 NA
ATOM      6  C   UNL     1      31.816 -11.435 -21.424  0.00  0.00    -0.019 C 
ATOM      7  C   UNL     1      32.132 -12.533 -20.657  0.00  0.00    +0.005 C 
ATOM      8  C   UNL     1      32.723 -13.280 -22.792  0.00  0.00    +0.171 C 
ATOM      9  C   UNL     1      32.658 -13.606 -21.438  0.00  0.00    +0.136 C 
ATOM     10  C   UNL     1      33.212 -14.218 -23.694  0.00  0.00    +0.190 C 
ATOM     11  C   UNL     1      33.160 -15.048 -26.010  0.00  0.00    +0.125 C 
ATOM     12  C   UNL     1      34.120 -12.814 -25.527  0.00  0.00    +0.125 C 
ATOM     13  C   UNL     1      32.769 -14.511 -27.381  0.00  0.00    +0.164 C 
ATOM     14  C   UNL     1      33.679 -12.397 -26.925  0.00  0.00    +0.164 C 
ATOM     15  C   UNL     1      31.950 -12.598 -19.185  0.00  0.00    +0.034 C 
ATOM     16  C   UNL     1      33.514 -15.645 -21.917  0.00  0.00    +0.138 C 
ENDROOT
BRANCH  16  20
ATOM     17  N   UNL     1      35.721 -18.420 -20.774  0.00  0.00    -0.180 NA
ATOM     18  N   UNL     1      33.448 -19.214 -20.851  0.00  0.00    -0.202 NA
ATOM     19  N   UNL     1      35.195 -20.629 -20.182  0.00  0.00    -0.303 N 
ATOM     20  C   UNL     1      33.951 -16.942 -21.465  0.00  0.00    +0.108 C 
ATOM     21  C   UNL     1      35.277 -17.219 -21.198  0.00  0.00    +0.120 C 
ATOM     22  C   UNL     1      33.073 -17.987 -21.272  0.00  0.00    +0.177 C 
ATOM     23  C   UNL     1      34.766 -19.358 -20.624  0.00  0.00    +0.084 C 
ATOM     24  H   UNL     1      36.149 -20.790 -20.000  0.00  0.00    +0.154 HD
ATOM     25  H   UNL     1      34.539 -21.352 -20.055  0.00  0.00    +0.154 HD
ENDBRANCH  16  20
BRANCH   6  26
ATOM     26  C   UNL     1      31.244 -10.113 -20.987  0.00  0.00    -0.044 C 
BRANCH  26  28
ATOM     27  O   UNL     1      31.819  -4.098 -22.659  0.00  0.00    -0.272 OA
ATOM     28  N   UNL     1      31.887  -8.989 -21.665  0.00  0.00    +0.392 N 
ATOM     29  N   UNL     1      31.988  -6.403 -22.894  0.00  0.00    -0.282 N 
ATOM     30  C   UNL     1      31.795  -7.771 -20.848  0.00  0.00    -0.055 C 
ATOM     31  C   UNL     1      31.281  -8.769 -22.987  0.00  0.00    -0.055 C 
ATOM     32  C   UNL     1      32.496  -6.602 -21.537  0.00  0.00    +0.071 C 
ATOM     33  C   UNL     1      31.968  -7.614 -23.719  0.00  0.00    +0.071 C 
ATOM     34  C   UNL     1      31.686  -5.117 -23.341  0.00  0.00    +0.252 C 
ATOM     35  H   UNL     1      32.873  -9.215 -21.796  0.00  0.00    -0.079 HD
BRANCH  34  36
ATOM     36  C   UNL     1      31.161  -5.000 -24.750  0.00  0.00    +0.187 C 
ATOM     37  C   UNL     1      32.291  -4.755 -25.725  0.00  0.00    +0.042 C 
BRANCH  36  38
ATOM     38  O   UNL     1      30.257  -3.915 -24.743  0.00  0.00    -0.376 OA
ATOM     39  H   UNL     1      29.800  -3.881 -23.887  0.00  0.00    +0.211 HD
ENDBRANCH  36  38
ENDBRANCH  34  36
ENDBRANCH  26  28
ENDBRANCH   6  26
TORSDOF 5
ENDMDL
MODEL 4
REMARK VINA RESULT:      -8.3      6.403     13.787
REMARK  Name = 25254071
REMARK  5 active torsions:
REMARK  status: ('A' for Active; 'I' for Inactive)
REMARK    1  A    between atoms: C_6  and  C_26
REMARK    2  A    between atoms: C_16  and  C_20
REMARK    3  A    between atoms: C_26  and  N_28
REMARK    4  A    between atoms: C_34  and  C_36
REMARK    5  A    between atoms: C_36  and  O_38
REMARK                            x       y       z     vdW  Elec       q    Type
REMARK                         _______ _______ _______ _____ _____    ______ ____
ROOT
ATOM      1  S   UNL     1      33.086 -12.587 -22.508  0.00  0.00    -0.106 S 
ATOM      2  O   UNL     1      35.218 -11.346 -27.202  0.00  0.00    -0.350 OA
ATOM      3  N   UNL     1      33.862 -10.560 -24.868  0.00  0.00    -0.280 N 
ATOM      4  N   UNL     1      31.615  -9.099 -21.639  0.00  0.00    -0.343 NA
ATOM      5  N   UNL     1      32.736  -8.790 -23.761  0.00  0.00    -0.328 NA
ATOM      6  C   UNL     1      32.248 -12.620 -21.020  0.00  0.00    -0.019 C 
ATOM      7  C   UNL     1      31.719 -11.393 -20.694  0.00  0.00    +0.005 C 
ATOM      8  C   UNL     1      32.750 -10.920 -22.738  0.00  0.00    +0.171 C 
ATOM      9  C   UNL     1      32.003 -10.402 -21.681  0.00  0.00    +0.136 C 
ATOM     10  C   UNL     1      33.114 -10.083 -23.788  0.00  0.00    +0.190 C 
ATOM     11  C   UNL     1      34.759  -9.623 -25.558  0.00  0.00    +0.125 C 
ATOM     12  C   UNL     1      33.336 -11.647 -25.701  0.00  0.00    +0.125 C 
ATOM     13  C   UNL     1      35.825 -10.398 -26.324  0.00  0.00    +0.164 C 
ATOM     14  C   UNL     1      34.477 -12.314 -26.460  0.00  0.00    +0.164 C 
ATOM     15  C   UNL     1      30.941 -11.125 -19.459  0.00  0.00    +0.034 C 
ATOM     16  C   UNL     1      32.017  -8.381 -22.700  0.00  0.00    +0.138 C 
ENDROOT
BRANCH  16  20
ATOM     17  N   UNL     1      31.030  -4.995 -21.499  0.00  0.00    -0.180 NA
ATOM     18  N   UNL     1      31.108  -4.975 -23.906  0.00  0.00    -0.202 NA
ATOM     19  N   UNL     1      30.528  -3.046 -22.705  0.00  0.00    -0.303 N 
ATOM     20  C   UNL     1      31.630  -6.992 -22.702  0.00  0.00    +0.108 C 
ATOM     21  C   UNL     1      31.394  -6.294 -21.535  0.00  0.00    +0.120 C 
ATOM     22  C   UNL     1      31.470  -6.275 -23.869  0.00  0.00    +0.177 C 
ATOM     23  C   UNL     1      30.908  -4.406 -22.703  0.00  0.00    +0.084 C 
ATOM     24  H   UNL     1      30.369  -2.579 -21.852  0.00  0.00    +0.154 HD
ATOM     25  H   UNL     1      30.424  -2.565 -23.557  0.00  0.00    +0.154 HD
ENDBRANCH  16  20
BRANCH   6  26
ATOM     26  C   UNL     1      32.173 -13.913 -20.252  0.00  0.00    -0.044 C 
BRANCH  26  28
ATOM     27  O   UNL     1      34.175 -19.814 -20.947  0.00  0.00    -0.272 OA
ATOM     28  N   UNL     1      32.784 -15.020 -20.986  0.00  0.00    +0.392 N 
ATOM     29  N   UNL     1      34.172 -17.511 -21.257  0.00  0.00    -0.282 N 
ATOM     30  C   UNL     1      32.112 -16.287 -20.663  0.00  0.00    -0.055 C 
ATOM     31  C   UNL     1      34.221 -15.108 -20.685  0.00  0.00    -0.055 C 
ATOM     32  C   UNL     1      32.725 -17.441 -21.454  0.00  0.00    +0.071 C 
ATOM     33  C   UNL     1      34.877 -16.245 -21.472  0.00  0.00    +0.071 C 
ATOM     34  C   UNL     1      34.782 -18.741 -21.013  0.00  0.00    +0.252 C 
ATOM     35  H   UNL     1      32.674 -14.842 -21.984  0.00  0.00    -0.079 HD
BRANCH  34  36
ATOM     36  C   UNL     1      36.276 -18.726 -20.815  0.00  0.00    +0.187 C 
ATOM     37  C   UNL     1      36.995 -18.777 -22.144  0.00  0.00    +0.042 C 
BRANCH  36  38
ATOM     38  O   UNL     1      36.581 -19.862 -20.033  0.00  0.00    -0.376 OA
ATOM     39  H   UNL     1      37.369 -19.682 -19.495  0.00  0.00    +0.211 HD
ENDBRANCH  36  38
ENDBRANCH  34  36
ENDBRANCH  26  28
ENDBRANCH   6  26
TORSDOF 5
ENDMDL
MODEL 5
REMARK VINA RESULT:      -7.5      9.343     13.380
REMARK  Name = 25254071
REMARK  5 active torsions:
REMARK  status: ('A' for Active; 'I' for Inactive)
REMARK    1  A    between atoms: C_6  and  C_26
REMARK    2  A    between atoms: C_16  and  C_20
REMARK    3  A    between atoms: C_26  and  N_28
REMARK    4  A    between atoms: C_34  and  C_36
REMARK    5  A    between atoms: C_36  and  O_38
REMARK                            x       y       z     vdW  Elec       q    Type
REMARK                         _______ _______ _______ _____ _____    ______ ____
ROOT
ATOM      1  S   UNL     1      33.511  -8.975 -23.090  0.00  0.00    -0.106 S 
ATOM      2  O   UNL     1      30.365 -10.847 -19.254  0.00  0.00    -0.350 OA
ATOM      3  N   UNL     1      32.087 -11.317 -21.426  0.00  0.00    -0.280 N 
ATOM      4  N   UNL     1      34.396 -12.363 -24.770  0.00  0.00    -0.343 NA
ATOM      5  N   UNL     1      32.986 -12.949 -22.892  0.00  0.00    -0.328 NA
ATOM      6  C   UNL     1      34.514  -8.748 -24.454  0.00  0.00    -0.019 C 
ATOM      7  C   UNL     1      34.840  -9.938 -25.063  0.00  0.00    +0.005 C 
ATOM      8  C   UNL     1      33.497 -10.678 -23.298  0.00  0.00    +0.171 C 
ATOM      9  C   UNL     1      34.256 -11.061 -24.404  0.00  0.00    +0.136 C 
ATOM     10  C   UNL     1      32.858 -11.654 -22.542  0.00  0.00    +0.190 C 
ATOM     11  C   UNL     1      31.999 -12.284 -20.324  0.00  0.00    +0.125 C 
ATOM     12  C   UNL     1      30.919 -10.441 -21.581  0.00  0.00    +0.125 C 
ATOM     13  C   UNL     1      31.577 -11.572 -19.045  0.00  0.00    +0.164 C 
ATOM     14  C   UNL     1      30.553  -9.827 -20.235  0.00  0.00    +0.164 C 
ATOM     15  C   UNL     1      35.698 -10.046 -26.269  0.00  0.00    +0.034 C 
ATOM     16  C   UNL     1      33.738 -13.222 -23.974  0.00  0.00    +0.138 C 
ENDROOT
BRANCH  16  20
ATOM     17  N   UNL     1      33.563 -16.398 -25.913  0.00  0.00    -0.180 NA
ATOM     18  N   UNL     1      34.485 -16.864 -23.737  0.00  0.00    -0.202 NA
ATOM     19  N   UNL     1      34.187 -18.578 -25.310  0.00  0.00    -0.303 N 
ATOM     20  C   UNL     1      33.856 -14.616 -24.322  0.00  0.00    +0.108 C 
ATOM     21  C   UNL     1      33.467 -15.101 -25.554  0.00  0.00    +0.120 C 
ATOM     22  C   UNL     1      34.362 -15.552 -23.444  0.00  0.00    +0.177 C 
ATOM     23  C   UNL     1      34.073 -17.213 -24.970  0.00  0.00    +0.084 C 
ATOM     24  H   UNL     1      33.901 -18.889 -26.200  0.00  0.00    +0.154 HD
ATOM     25  H   UNL     1      34.553 -19.219 -24.659  0.00  0.00    +0.154 HD
ENDBRANCH  16  20
BRANCH   6  26
ATOM     26  C   UNL     1      34.924  -7.350 -24.836  0.00  0.00    -0.044 C 
BRANCH  26  28
ATOM     27  O   UNL     1      32.039  -2.138 -26.788  0.00  0.00    -0.272 OA
ATOM     28  N   UNL     1      33.815  -6.597 -25.417  0.00  0.00    +0.392 N 
ATOM     29  N   UNL     1      32.209  -4.270 -25.882  0.00  0.00    -0.282 N 
ATOM     30  C   UNL     1      34.318  -5.498 -26.253  0.00  0.00    -0.055 C 
ATOM     31  C   UNL     1      32.933  -6.077 -24.361  0.00  0.00    -0.055 C 
ATOM     32  C   UNL     1      33.163  -4.728 -26.891  0.00  0.00    +0.071 C 
ATOM     33  C   UNL     1      31.751  -5.313 -24.960  0.00  0.00    +0.071 C 
ATOM     34  C   UNL     1      31.720  -2.965 -25.930  0.00  0.00    +0.252 C 
ATOM     35  H   UNL     1      33.273  -7.228 -26.008  0.00  0.00    -0.079 HD
BRANCH  34  36
ATOM     36  C   UNL     1      30.745  -2.570 -24.849  0.00  0.00    +0.187 C 
ATOM     37  C   UNL     1      29.590  -1.786 -25.428  0.00  0.00    +0.042 C 
BRANCH  36  38
ATOM     38  O   UNL     1      31.476  -1.787 -23.928  0.00  0.00    -0.376 OA
ATOM     39  H   UNL     1      30.868  -1.202 -23.448  0.00  0.00    +0.211 HD
ENDBRANCH  36  38
ENDBRANCH  34  36
ENDBRANCH  26  28
ENDBRANCH   6  26
TORSDOF 5
ENDMDL
