MODEL 1
REMARK VINA RESULT:     -10.1      0.000      0.000
REMARK  Name = 3323368
REMARK  1 active torsions:
REMARK  status: ('A' for Active; 'I' for Inactive)
REMARK    1  A    between atoms: C_4  and  C_17
REMARK                            x       y       z     vdW  Elec       q    Type
REMARK                         _______ _______ _______ _____ _____    ______ ____
ROOT
ATOM      1  O   UNL     1      33.438 -22.770 -19.161  0.00  0.00    -0.242 OA
ATOM      2  N   UNL     1      32.826 -21.677 -19.749  0.00  0.00    -0.048 NA
ATOM      3  N   UNL     1      34.816 -22.643 -19.146  0.00  0.00    -0.048 NA
ATOM      4  C   UNL     1      35.001 -19.000 -20.975  0.00  0.00    +0.055 C 
ATOM      5  C   UNL     1      33.750 -19.599 -20.744  0.00  0.00    +0.029 C 
ATOM      6  C   UNL     1      36.233 -19.596 -20.602  0.00  0.00    +0.006 C 
ATOM      7  C   UNL     1      33.817 -20.851 -20.108  0.00  0.00    +0.143 A 
ATOM      8  C   UNL     1      35.082 -21.465 -19.725  0.00  0.00    +0.143 A 
ATOM      9  C   UNL     1      36.323 -20.847 -19.966  0.00  0.00    +0.024 C 
ENDROOT
BRANCH   4  17
ATOM     10  O   UNL     1      34.388 -17.413 -25.747  0.00  0.00    -0.350 OA
ATOM     11  O   UNL     1      35.009 -16.705 -20.898  0.00  0.00    -0.270 OA
ATOM     12  N   UNL     1      35.094 -17.656 -23.031  0.00  0.00    -0.271 N 
ATOM     13  C   UNL     1      35.124 -18.827 -23.915  0.00  0.00    +0.126 C 
ATOM     14  C   UNL     1      35.212 -16.374 -23.722  0.00  0.00    +0.126 C 
ATOM     15  C   UNL     1      34.139 -18.645 -25.064  0.00  0.00    +0.164 C 
ATOM     16  C   UNL     1      34.215 -16.297 -24.871  0.00  0.00    +0.164 C 
ATOM     17  C   UNL     1      35.033 -17.688 -21.636  0.00  0.00    +0.249 C 
ENDBRANCH   4  17
TORSDOF 1
ENDMDL
MODEL 2
REMARK VINA RESULT:      -8.7      1.403      2.392
REMARK  Name = 3323368
REMARK  1 active torsions:
REMARK  status: ('A' for Active; 'I' for Inactive)
REMARK    1  A    between atoms: C_4  and  C_17
REMARK                            x       y       z     vdW  Elec       q    Type
REMARK                         _______ _______ _______ _____ _____    ______ ____
ROOT
ATOM      1  O   UNL     1      33.463 -22.526 -18.256  0.00  0.00    -0.242 OA
ATOM      2  N   UNL     1      32.769 -21.750 -19.170  0.00  0.00    -0.048 NA
ATOM      3  N   UNL     1      34.831 -22.339 -18.355  0.00  0.00    -0.048 NA
ATOM      4  C   UNL     1      34.744 -19.607 -21.385  0.00  0.00    +0.055 C 
ATOM      5  C   UNL     1      33.539 -20.137 -20.893  0.00  0.00    +0.029 C 
ATOM      6  C   UNL     1      36.020 -19.969 -20.882  0.00  0.00    +0.006 C 
ATOM      7  C   UNL     1      33.698 -21.068 -19.851  0.00  0.00    +0.143 A 
ATOM      8  C   UNL     1      35.008 -21.442 -19.333  0.00  0.00    +0.143 A 
ATOM      9  C   UNL     1      36.202 -20.897 -19.841  0.00  0.00    +0.024 C 
ENDROOT
BRANCH   4  17
ATOM     10  O   UNL     1      34.227 -14.572 -21.612  0.00  0.00    -0.350 OA
ATOM     11  O   UNL     1      35.004 -19.030 -23.592  0.00  0.00    -0.270 OA
ATOM     12  N   UNL     1      34.250 -17.332 -22.174  0.00  0.00    -0.271 N 
ATOM     13  C   UNL     1      33.860 -16.846 -20.845  0.00  0.00    +0.126 C 
ATOM     14  C   UNL     1      34.091 -16.351 -23.247  0.00  0.00    +0.126 C 
ATOM     15  C   UNL     1      34.516 -15.500 -20.563  0.00  0.00    +0.164 C 
ATOM     16  C   UNL     1      34.746 -15.032 -22.862  0.00  0.00    +0.164 C 
ATOM     17  C   UNL     1      34.678 -18.626 -22.477  0.00  0.00    +0.249 C 
ENDBRANCH   4  17
TORSDOF 1
ENDMDL
MODEL 3
REMARK VINA RESULT:      -8.6      1.662      2.907
REMARK  Name = 3323368
REMARK  1 active torsions:
REMARK  status: ('A' for Active; 'I' for Inactive)
REMARK    1  A    between atoms: C_4  and  C_17
REMARK                            x       y       z     vdW  Elec       q    Type
REMARK                         _______ _______ _______ _____ _____    ______ ____
ROOT
ATOM      1  O   UNL     1      36.064 -22.316 -18.192  0.00  0.00    -0.242 OA
ATOM      2  N   UNL     1      36.697 -21.481 -19.097  0.00  0.00    -0.048 NA
ATOM      3  N   UNL     1      34.688 -22.293 -18.344  0.00  0.00    -0.048 NA
ATOM      4  C   UNL     1      34.572 -19.626 -21.431  0.00  0.00    +0.055 C 
ATOM      5  C   UNL     1      35.811 -20.003 -20.884  0.00  0.00    +0.029 C 
ATOM      6  C   UNL     1      33.329 -20.128 -20.967  0.00  0.00    +0.006 C 
ATOM      7  C   UNL     1      35.721 -20.926 -19.827  0.00  0.00    +0.143 A 
ATOM      8  C   UNL     1      34.445 -21.441 -19.349  0.00  0.00    +0.143 A 
ATOM      9  C   UNL     1      33.216 -21.051 -19.912  0.00  0.00    +0.024 C 
ENDROOT
BRANCH   4  17
ATOM     10  O   UNL     1      34.307 -14.577 -21.751  0.00  0.00    -0.350 OA
ATOM     11  O   UNL     1      34.881 -19.102 -23.645  0.00  0.00    -0.270 OA
ATOM     12  N   UNL     1      34.199 -17.344 -22.265  0.00  0.00    -0.271 N 
ATOM     13  C   UNL     1      33.820 -16.816 -20.948  0.00  0.00    +0.126 C 
ATOM     14  C   UNL     1      34.099 -16.376 -23.356  0.00  0.00    +0.126 C 
ATOM     15  C   UNL     1      34.540 -15.499 -20.682  0.00  0.00    +0.164 C 
ATOM     16  C   UNL     1      34.815 -15.085 -22.986  0.00  0.00    +0.164 C 
ATOM     17  C   UNL     1      34.565 -18.663 -22.541  0.00  0.00    +0.249 C 
ENDBRANCH   4  17
TORSDOF 1
ENDMDL
MODEL 4
REMARK VINA RESULT:      -8.6      1.837      6.014
REMARK  Name = 3323368
REMARK  1 active torsions:
REMARK  status: ('A' for Active; 'I' for Inactive)
REMARK    1  A    between atoms: C_4  and  C_17
REMARK                            x       y       z     vdW  Elec       q    Type
REMARK                         _______ _______ _______ _____ _____    ______ ____
ROOT
ATOM      1  O   UNL     1      34.940 -14.934 -22.702  0.00  0.00    -0.242 OA
ATOM      2  N   UNL     1      34.332 -15.488 -21.589  0.00  0.00    -0.048 NA
ATOM      3  N   UNL     1      35.362 -15.903 -23.596  0.00  0.00    -0.048 NA
ATOM      4  C   UNL     1      34.091 -19.139 -21.459  0.00  0.00    +0.055 C 
ATOM      5  C   UNL     1      33.885 -17.845 -20.949  0.00  0.00    +0.029 C 
ATOM      6  C   UNL     1      34.727 -19.397 -22.700  0.00  0.00    +0.006 C 
ATOM      7  C   UNL     1      34.367 -16.814 -21.775  0.00  0.00    +0.143 A 
ATOM      8  C   UNL     1      35.021 -17.078 -23.051  0.00  0.00    +0.143 A 
ATOM      9  C   UNL     1      35.216 -18.382 -23.542  0.00  0.00    +0.024 C 
ENDROOT
BRANCH   4  17
ATOM     10  O   UNL     1      36.266 -22.284 -18.135  0.00  0.00    -0.350 OA
ATOM     11  O   UNL     1      32.405 -20.442 -20.604  0.00  0.00    -0.270 OA
ATOM     12  N   UNL     1      34.580 -21.095 -20.053  0.00  0.00    -0.271 N 
ATOM     13  C   UNL     1      36.034 -20.909 -20.123  0.00  0.00    +0.126 C 
ATOM     14  C   UNL     1      34.158 -22.289 -19.324  0.00  0.00    +0.126 C 
ATOM     15  C   UNL     1      36.650 -21.044 -18.736  0.00  0.00    +0.164 C 
ATOM     16  C   UNL     1      34.848 -22.355 -17.969  0.00  0.00    +0.164 C 
ATOM     17  C   UNL     1      33.623 -20.282 -20.665  0.00  0.00    +0.249 C 
ENDBRANCH   4  17
TORSDOF 1
ENDMDL
MODEL 5
REMARK VINA RESULT:      -8.3      1.887      6.007
REMARK  Name = 3323368
REMARK  1 active torsions:
REMARK  status: ('A' for Active; 'I' for Inactive)
REMARK    1  A    between atoms: C_4  and  C_17
REMARK                            x       y       z     vdW  Elec       q    Type
REMARK                         _______ _______ _______ _____ _____    ______ ____
ROOT
ATOM      1  O   UNL     1      33.555 -15.664 -26.049  0.00  0.00    -0.242 OA
ATOM      2  N   UNL     1      34.161 -16.895 -25.863  0.00  0.00    -0.048 NA
ATOM      3  N   UNL     1      33.524 -14.924 -24.880  0.00  0.00    -0.048 NA
ATOM      4  C   UNL     1      35.389 -17.666 -22.501  0.00  0.00    +0.055 C 
ATOM      5  C   UNL     1      35.168 -17.959 -23.859  0.00  0.00    +0.029 C 
ATOM      6  C   UNL     1      34.996 -16.447 -21.892  0.00  0.00    +0.006 C 
ATOM      7  C   UNL     1      34.517 -16.937 -24.573  0.00  0.00    +0.143 A 
ATOM      8  C   UNL     1      34.113 -15.685 -23.948  0.00  0.00    +0.143 A 
ATOM      9  C   UNL     1      34.345 -15.412 -22.587  0.00  0.00    +0.024 C 
ENDROOT
BRANCH   4  17
ATOM     10  O   UNL     1      33.810 -21.519 -19.615  0.00  0.00    -0.350 OA
ATOM     11  O   UNL     1      37.278 -18.780 -21.821  0.00  0.00    -0.270 OA
ATOM     12  N   UNL     1      35.284 -19.424 -20.787  0.00  0.00    -0.271 N 
ATOM     13  C   UNL     1      33.833 -19.302 -20.605  0.00  0.00    +0.126 C 
ATOM     14  C   UNL     1      35.928 -20.378 -19.886  0.00  0.00    +0.126 C 
ATOM     15  C   UNL     1      33.186 -20.682 -20.592  0.00  0.00    +0.164 C 
ATOM     16  C   UNL     1      35.194 -21.712 -19.914  0.00  0.00    +0.164 C 
ATOM     17  C   UNL     1      36.062 -18.675 -21.673  0.00  0.00    +0.249 C 
ENDBRANCH   4  17
TORSDOF 1
ENDMDL
MODEL 6
REMARK VINA RESULT:      -8.2      5.144      7.638
REMARK  Name = 3323368
REMARK  1 active torsions:
REMARK  status: ('A' for Active; 'I' for Inactive)
REMARK    1  A    between atoms: C_4  and  C_17
REMARK                            x       y       z     vdW  Elec       q    Type
REMARK                         _______ _______ _______ _____ _____    ______ ____
ROOT
ATOM      1  O   UNL     1      33.827 -17.109 -25.874  0.00  0.00    -0.242 OA
ATOM      2  N   UNL     1      33.360 -15.874 -26.288  0.00  0.00    -0.048 NA
ATOM      3  N   UNL     1      34.332 -17.065 -24.586  0.00  0.00    -0.048 NA
ATOM      4  C   UNL     1      33.634 -13.101 -23.913  0.00  0.00    +0.055 C 
ATOM      5  C   UNL     1      33.278 -13.669 -25.149  0.00  0.00    +0.029 C 
ATOM      6  C   UNL     1      34.235 -13.836 -22.860  0.00  0.00    +0.006 C 
ATOM      7  C   UNL     1      33.568 -15.041 -25.260  0.00  0.00    +0.143 A 
ATOM      8  C   UNL     1      34.185 -15.797 -24.179  0.00  0.00    +0.143 A 
ATOM      9  C   UNL     1      34.534 -15.208 -22.949  0.00  0.00    +0.024 C 
ENDROOT
BRANCH   4  17
ATOM     10  O   UNL     1      31.133 -10.425 -20.413  0.00  0.00    -0.350 OA
ATOM     11  O   UNL     1      34.033 -10.889 -24.384  0.00  0.00    -0.270 OA
ATOM     12  N   UNL     1      32.398 -11.311 -22.768  0.00  0.00    -0.271 N 
ATOM     13  C   UNL     1      31.605 -12.240 -21.955  0.00  0.00    +0.126 C 
ATOM     14  C   UNL     1      32.048  -9.903 -22.592  0.00  0.00    +0.126 C 
ATOM     15  C   UNL     1      31.581 -11.780 -20.502  0.00  0.00    +0.164 C 
ATOM     16  C   UNL     1      32.016  -9.545 -21.112  0.00  0.00    +0.164 C 
ATOM     17  C   UNL     1      33.371 -11.671 -23.704  0.00  0.00    +0.249 C 
ENDBRANCH   4  17
TORSDOF 1
ENDMDL
MODEL 7
REMARK VINA RESULT:      -8.1      7.118      9.446
REMARK  Name = 3323368
REMARK  1 active torsions:
REMARK  status: ('A' for Active; 'I' for Inactive)
REMARK    1  A    between atoms: C_4  and  C_17
REMARK                            x       y       z     vdW  Elec       q    Type
REMARK                         _______ _______ _______ _____ _____    ______ ____
ROOT
ATOM      1  O   UNL     1      39.493 -26.707 -14.619  0.00  0.00    -0.242 OA
ATOM      2  N   UNL     1      38.180 -26.918 -15.003  0.00  0.00    -0.048 NA
ATOM      3  N   UNL     1      39.619 -25.597 -13.802  0.00  0.00    -0.048 NA
ATOM      4  C   UNL     1      35.673 -24.559 -13.757  0.00  0.00    +0.055 C 
ATOM      5  C   UNL     1      36.087 -25.685 -14.490  0.00  0.00    +0.029 C 
ATOM      6  C   UNL     1      36.561 -23.741 -13.013  0.00  0.00    +0.006 C 
ATOM      7  C   UNL     1      37.469 -25.940 -14.428  0.00  0.00    +0.143 A 
ATOM      8  C   UNL     1      38.383 -25.100 -13.665  0.00  0.00    +0.143 A 
ATOM      9  C   UNL     1      37.946 -23.977 -12.938  0.00  0.00    +0.024 C 
ENDROOT
BRANCH   4  17
ATOM     10  O   UNL     1      32.440 -22.875 -17.276  0.00  0.00    -0.350 OA
ATOM     11  O   UNL     1      33.594 -24.567 -12.781  0.00  0.00    -0.270 OA
ATOM     12  N   UNL     1      33.742 -23.511 -14.861  0.00  0.00    -0.271 N 
ATOM     13  C   UNL     1      34.516 -23.086 -16.034  0.00  0.00    +0.126 C 
ATOM     14  C   UNL     1      32.348 -23.075 -14.866  0.00  0.00    +0.126 C 
ATOM     15  C   UNL     1      33.760 -23.424 -17.313  0.00  0.00    +0.164 C 
ATOM     16  C   UNL     1      31.687 -23.424 -16.192  0.00  0.00    +0.164 C 
ATOM     17  C   UNL     1      34.245 -24.212 -13.763  0.00  0.00    +0.249 C 
ENDBRANCH   4  17
TORSDOF 1
ENDMDL
MODEL 8
REMARK VINA RESULT:      -8.0      8.155     10.087
REMARK  Name = 3323368
REMARK  1 active torsions:
REMARK  status: ('A' for Active; 'I' for Inactive)
REMARK    1  A    between atoms: C_4  and  C_17
REMARK                            x       y       z     vdW  Elec       q    Type
REMARK                         _______ _______ _______ _____ _____    ______ ____
ROOT
ATOM      1  O   UNL     1      30.426 -23.205 -13.853  0.00  0.00    -0.242 OA
ATOM      2  N   UNL     1      31.425 -23.920 -13.215  0.00  0.00    -0.048 NA
ATOM      3  N   UNL     1      30.813 -22.794 -15.117  0.00  0.00    -0.048 NA
ATOM      4  C   UNL     1      34.556 -24.417 -15.045  0.00  0.00    +0.055 C 
ATOM      5  C   UNL     1      33.713 -24.566 -13.931  0.00  0.00    +0.029 C 
ATOM      6  C   UNL     1      34.179 -23.721 -16.222  0.00  0.00    +0.006 C 
ATOM      7  C   UNL     1      32.450 -23.964 -14.075  0.00  0.00    +0.143 A 
ATOM      8  C   UNL     1      32.061 -23.248 -15.283  0.00  0.00    +0.143 A 
ATOM      9  C   UNL     1      32.922 -23.111 -16.388  0.00  0.00    +0.024 C 
ENDROOT
BRANCH   4  17
ATOM     10  O   UNL     1      38.655 -23.660 -12.166  0.00  0.00    -0.350 OA
ATOM     11  O   UNL     1      36.060 -26.054 -15.620  0.00  0.00    -0.270 OA
ATOM     12  N   UNL     1      36.876 -24.358 -14.235  0.00  0.00    -0.271 N 
ATOM     13  C   UNL     1      36.687 -23.114 -13.479  0.00  0.00    +0.126 C 
ATOM     14  C   UNL     1      38.244 -24.872 -14.220  0.00  0.00    +0.126 C 
ATOM     15  C   UNL     1      37.288 -23.249 -12.084  0.00  0.00    +0.164 C 
ATOM     16  C   UNL     1      38.770 -24.939 -12.793  0.00  0.00    +0.164 C 
ATOM     17  C   UNL     1      35.898 -25.012 -14.987  0.00  0.00    +0.249 C 
ENDBRANCH   4  17
TORSDOF 1
ENDMDL
MODEL 9
REMARK VINA RESULT:      -7.9      5.073      8.928
REMARK  Name = 3323368
REMARK  1 active torsions:
REMARK  status: ('A' for Active; 'I' for Inactive)
REMARK    1  A    between atoms: C_4  and  C_17
REMARK                            x       y       z     vdW  Elec       q    Type
REMARK                         _______ _______ _______ _____ _____    ______ ____
ROOT
ATOM      1  O   UNL     1      32.998 -22.398 -19.333  0.00  0.00    -0.242 OA
ATOM      2  N   UNL     1      33.012 -22.957 -18.066  0.00  0.00    -0.048 NA
ATOM      3  N   UNL     1      34.222 -21.843 -19.665  0.00  0.00    -0.048 NA
ATOM      4  C   UNL     1      36.146 -22.754 -16.184  0.00  0.00    +0.055 C 
ATOM      5  C   UNL     1      34.801 -23.127 -16.352  0.00  0.00    +0.029 C 
ATOM      6  C   UNL     1      36.895 -22.065 -17.172  0.00  0.00    +0.006 C 
ATOM      7  C   UNL     1      34.248 -22.757 -17.592  0.00  0.00    +0.143 A 
ATOM      8  C   UNL     1      35.017 -22.049 -18.608  0.00  0.00    +0.143 A 
ATOM      9  C   UNL     1      36.363 -21.687 -18.418  0.00  0.00    +0.024 C 
ENDROOT
BRANCH   4  17
ATOM     10  O   UNL     1      37.393 -27.094 -13.887  0.00  0.00    -0.350 OA
ATOM     11  O   UNL     1      37.378 -22.175 -14.335  0.00  0.00    -0.270 OA
ATOM     12  N   UNL     1      36.738 -24.418 -14.475  0.00  0.00    -0.271 N 
ATOM     13  C   UNL     1      36.059 -25.520 -15.167  0.00  0.00    +0.126 C 
ATOM     14  C   UNL     1      37.313 -24.781 -13.180  0.00  0.00    +0.126 C 
ATOM     15  C   UNL     1      36.957 -26.751 -15.205  0.00  0.00    +0.164 C 
ATOM     16  C   UNL     1      38.163 -26.037 -13.310  0.00  0.00    +0.164 C 
ATOM     17  C   UNL     1      36.809 -23.096 -14.918  0.00  0.00    +0.249 C 
ENDBRANCH   4  17
TORSDOF 1
ENDMDL
