MODEL 1
REMARK VINA RESULT:      -7.5      0.000      0.000
REMARK  Name = 62529
REMARK  2 active torsions:
REMARK  status: ('A' for Active; 'I' for Inactive)
REMARK    1  A    between atoms: C_1  and  N_7
REMARK    2  A    between atoms: C_1  and  C_15
REMARK                            x       y       z     vdW  Elec       q    Type
REMARK                         _______ _______ _______ _____ _____    ______ ____
ROOT
ATOM      1  C   UNL     1      34.889 -18.524 -21.781  0.00  0.00    +0.040 C 
ATOM      2  C   UNL     1      33.557 -18.827 -21.066  0.00  0.00    -0.005 C 
ATOM      3  C   UNL     1      36.077 -19.066 -20.963  0.00  0.00    -0.005 C 
ATOM      4  C   UNL     1      33.406 -20.304 -20.692  0.00  0.00    -0.001 C 
ATOM      5  C   UNL     1      35.918 -20.542 -20.588  0.00  0.00    -0.001 C 
ATOM      6  C   UNL     1      34.594 -20.803 -19.877  0.00  0.00    -0.000 C 
ENDROOT
BRANCH   1   7
ATOM      7  N   UNL     1      35.030 -17.073 -21.897  0.00  0.00    +0.398 N 
ATOM      8  C   UNL     1      34.435 -16.598 -23.154  0.00  0.00    -0.076 C 
ATOM      9  C   UNL     1      34.427 -16.402 -20.737  0.00  0.00    -0.076 C 
ATOM     10  C   UNL     1      34.617 -15.088 -23.316  0.00  0.00    -0.023 C 
ATOM     11  C   UNL     1      34.609 -14.886 -20.819  0.00  0.00    -0.023 C 
ATOM     12  C   UNL     1      34.047 -14.329 -22.122  0.00  0.00    -0.004 C 
ATOM     13  H   UNL     1      36.023 -16.842 -21.913  0.00  0.00    -0.078 HD
ENDBRANCH   1   7
BRANCH   1  15
ATOM     14  N   UNL     1      34.888 -19.574 -24.203  0.00  0.00    -0.198 NA
ATOM     15  C   UNL     1      34.888 -19.112 -23.138  0.00  0.00    +0.052 C 
ENDBRANCH   1  15
TORSDOF 2
ENDMDL
MODEL 2
REMARK VINA RESULT:      -7.5      1.694      4.723
REMARK  Name = 62529
REMARK  2 active torsions:
REMARK  status: ('A' for Active; 'I' for Inactive)
REMARK    1  A    between atoms: C_1  and  N_7
REMARK    2  A    between atoms: C_1  and  C_15
REMARK                            x       y       z     vdW  Elec       q    Type
REMARK                         _______ _______ _______ _____ _____    ______ ____
ROOT
ATOM      1  C   UNL     1      35.306 -18.683 -21.698  0.00  0.00    +0.040 C 
ATOM      2  C   UNL     1      34.835 -17.235 -21.456  0.00  0.00    -0.005 C 
ATOM      3  C   UNL     1      34.734 -19.224 -23.022  0.00  0.00    -0.005 C 
ATOM      4  C   UNL     1      35.108 -16.315 -22.649  0.00  0.00    -0.001 C 
ATOM      5  C   UNL     1      35.006 -18.297 -24.210  0.00  0.00    -0.001 C 
ATOM      6  C   UNL     1      34.521 -16.877 -23.939  0.00  0.00    -0.000 C 
ENDROOT
BRANCH   1   7
ATOM      7  N   UNL     1      34.810 -19.518 -20.604  0.00  0.00    +0.398 N 
ATOM      8  C   UNL     1      33.417 -19.913 -20.852  0.00  0.00    -0.076 C 
ATOM      9  C   UNL     1      35.672 -20.695 -20.423  0.00  0.00    -0.076 C 
ATOM     10  C   UNL     1      32.865 -20.747 -19.693  0.00  0.00    -0.023 C 
ATOM     11  C   UNL     1      35.195 -21.554 -19.251  0.00  0.00    -0.023 C 
ATOM     12  C   UNL     1      33.738 -21.968 -19.424  0.00  0.00    -0.004 C 
ATOM     13  H   UNL     1      34.834 -18.975 -19.741  0.00  0.00    -0.078 HD
ENDBRANCH   1   7
BRANCH   1  15
ATOM     14  N   UNL     1      37.944 -18.797 -21.724  0.00  0.00    -0.198 NA
ATOM     15  C   UNL     1      36.784 -18.747 -21.712  0.00  0.00    +0.052 C 
ENDBRANCH   1  15
TORSDOF 2
ENDMDL
MODEL 3
REMARK VINA RESULT:      -7.4      7.989     10.931
REMARK  Name = 62529
REMARK  2 active torsions:
REMARK  status: ('A' for Active; 'I' for Inactive)
REMARK    1  A    between atoms: C_1  and  N_7
REMARK    2  A    between atoms: C_1  and  C_15
REMARK                            x       y       z     vdW  Elec       q    Type
REMARK                         _______ _______ _______ _____ _____    ______ ____
ROOT
ATOM      1  C   UNL     1      32.466  -7.983 -22.339  0.00  0.00    +0.040 C 
ATOM      2  C   UNL     1      32.080  -6.782 -21.452  0.00  0.00    -0.005 C 
ATOM      3  C   UNL     1      31.477  -8.128 -23.512  0.00  0.00    -0.005 C 
ATOM      4  C   UNL     1      31.899  -5.488 -22.250  0.00  0.00    -0.001 C 
ATOM      5  C   UNL     1      31.296  -6.830 -24.303  0.00  0.00    -0.001 C 
ATOM      6  C   UNL     1      30.908  -5.667 -23.395  0.00  0.00    -0.000 C 
ENDROOT
BRANCH   1   7
ATOM      7  N   UNL     1      32.402  -9.197 -21.526  0.00  0.00    +0.398 N 
ATOM      8  C   UNL     1      32.068  -8.865 -20.134  0.00  0.00    -0.076 C 
ATOM      9  C   UNL     1      31.433 -10.146 -22.093  0.00  0.00    -0.076 C 
ATOM     10  C   UNL     1      32.045 -10.119 -19.257  0.00  0.00    -0.023 C 
ATOM     11  C   UNL     1      31.389 -11.441 -21.281  0.00  0.00    -0.023 C 
ATOM     12  C   UNL     1      31.085 -11.166 -19.813  0.00  0.00    -0.004 C 
ATOM     13  H   UNL     1      33.319  -9.643 -21.531  0.00  0.00    -0.078 HD
ENDBRANCH   1   7
BRANCH   1  15
ATOM     14  N   UNL     1      34.929  -7.698 -23.247  0.00  0.00    -0.198 NA
ATOM     15  C   UNL     1      33.846  -7.823 -22.848  0.00  0.00    +0.052 C 
ENDBRANCH   1  15
TORSDOF 2
ENDMDL
MODEL 4
REMARK VINA RESULT:      -7.2      1.454      2.963
REMARK  Name = 62529
REMARK  2 active torsions:
REMARK  status: ('A' for Active; 'I' for Inactive)
REMARK    1  A    between atoms: C_1  and  N_7
REMARK    2  A    between atoms: C_1  and  C_15
REMARK                            x       y       z     vdW  Elec       q    Type
REMARK                         _______ _______ _______ _____ _____    ______ ____
ROOT
ATOM      1  C   UNL     1      35.124 -17.755 -21.916  0.00  0.00    +0.040 C 
ATOM      2  C   UNL     1      36.497 -18.454 -21.854  0.00  0.00    -0.005 C 
ATOM      3  C   UNL     1      33.986 -18.792 -21.847  0.00  0.00    -0.005 C 
ATOM      4  C   UNL     1      36.624 -19.409 -20.665  0.00  0.00    -0.001 C 
ATOM      5  C   UNL     1      34.122 -19.747 -20.659  0.00  0.00    -0.001 C 
ATOM      6  C   UNL     1      35.487 -20.425 -20.634  0.00  0.00    -0.000 C 
ENDROOT
BRANCH   1   7
ATOM      7  N   UNL     1      35.026 -17.043 -23.189  0.00  0.00    +0.398 N 
ATOM      8  C   UNL     1      34.688 -17.976 -24.274  0.00  0.00    -0.076 C 
ATOM      9  C   UNL     1      34.040 -15.957 -23.098  0.00  0.00    -0.076 C 
ATOM     10  C   UNL     1      34.629 -17.256 -25.623  0.00  0.00    -0.023 C 
ATOM     11  C   UNL     1      33.960 -15.171 -24.407  0.00  0.00    -0.023 C 
ATOM     12  C   UNL     1      33.651 -16.087 -25.586  0.00  0.00    -0.004 C 
ATOM     13  H   UNL     1      35.932 -16.628 -23.403  0.00  0.00    -0.078 HD
ENDBRANCH   1   7
BRANCH   1  15
ATOM     14  N   UNL     1      34.895 -16.011 -19.948  0.00  0.00    -0.198 NA
ATOM     15  C   UNL     1      34.995 -16.778 -20.813  0.00  0.00    +0.052 C 
ENDBRANCH   1  15
TORSDOF 2
ENDMDL
MODEL 5
REMARK VINA RESULT:      -6.9      7.545     10.592
REMARK  Name = 62529
REMARK  2 active torsions:
REMARK  status: ('A' for Active; 'I' for Inactive)
REMARK    1  A    between atoms: C_1  and  N_7
REMARK    2  A    between atoms: C_1  and  C_15
REMARK                            x       y       z     vdW  Elec       q    Type
REMARK                         _______ _______ _______ _____ _____    ______ ____
ROOT
ATOM      1  C   UNL     1      32.286  -8.124 -21.788  0.00  0.00    +0.040 C 
ATOM      2  C   UNL     1      31.266  -7.351 -22.647  0.00  0.00    -0.005 C 
ATOM      3  C   UNL     1      33.526  -8.495 -22.625  0.00  0.00    -0.005 C 
ATOM      4  C   UNL     1      31.886  -6.151 -23.369  0.00  0.00    -0.001 C 
ATOM      5  C   UNL     1      34.138  -7.292 -23.347  0.00  0.00    -0.001 C 
ATOM      6  C   UNL     1      33.104  -6.556 -24.192  0.00  0.00    -0.000 C 
ENDROOT
BRANCH   1   7
ATOM      7  N   UNL     1      31.656  -9.359 -21.323  0.00  0.00    +0.398 N 
ATOM      8  C   UNL     1      32.038 -10.487 -22.185  0.00  0.00    -0.076 C 
ATOM      9  C   UNL     1      32.007  -9.620 -19.920  0.00  0.00    -0.076 C 
ATOM     10  C   UNL     1      31.348 -11.779 -21.743  0.00  0.00    -0.023 C 
ATOM     11  C   UNL     1      31.316 -10.883 -19.404  0.00  0.00    -0.023 C 
ATOM     12  C   UNL     1      31.639 -12.089 -20.278  0.00  0.00    -0.004 C 
ATOM     13  H   UNL     1      30.643  -9.251 -21.379  0.00  0.00    -0.078 HD
ENDBRANCH   1   7
BRANCH   1  15
ATOM     14  N   UNL     1      32.992  -6.689 -19.688  0.00  0.00    -0.198 NA
ATOM     15  C   UNL     1      32.682  -7.320 -20.612  0.00  0.00    +0.052 C 
ENDBRANCH   1  15
TORSDOF 2
ENDMDL
MODEL 6
REMARK VINA RESULT:      -6.8      8.259      9.876
REMARK  Name = 62529
REMARK  2 active torsions:
REMARK  status: ('A' for Active; 'I' for Inactive)
REMARK    1  A    between atoms: C_1  and  N_7
REMARK    2  A    between atoms: C_1  and  C_15
REMARK                            x       y       z     vdW  Elec       q    Type
REMARK                         _______ _______ _______ _____ _____    ______ ____
ROOT
ATOM      1  C   UNL     1      32.435  -8.850 -22.773  0.00  0.00    +0.040 C 
ATOM      2  C   UNL     1      33.026 -10.054 -23.534  0.00  0.00    -0.005 C 
ATOM      3  C   UNL     1      33.560  -7.922 -22.274  0.00  0.00    -0.005 C 
ATOM      4  C   UNL     1      33.998  -9.638 -24.641  0.00  0.00    -0.001 C 
ATOM      5  C   UNL     1      34.531  -7.513 -23.385  0.00  0.00    -0.001 C 
ATOM      6  C   UNL     1      35.100  -8.728 -24.110  0.00  0.00    -0.000 C 
ENDROOT
BRANCH   1   7
ATOM      7  N   UNL     1      31.701  -9.353 -21.613  0.00  0.00    +0.398 N 
ATOM      8  C   UNL     1      31.565 -10.814 -21.685  0.00  0.00    -0.076 C 
ATOM      9  C   UNL     1      32.364  -8.943 -20.367  0.00  0.00    -0.076 C 
ATOM     10  C   UNL     1      30.757 -11.353 -20.503  0.00  0.00    -0.023 C 
ATOM     11  C   UNL     1      31.581  -9.420 -19.142  0.00  0.00    -0.023 C 
ATOM     12  C   UNL     1      31.369 -10.929 -19.173  0.00  0.00    -0.004 C 
ATOM     13  H   UNL     1      30.764  -8.950 -21.618  0.00  0.00    -0.078 HD
ENDBRANCH   1   7
BRANCH   1  15
ATOM     14  N   UNL     1      30.765  -7.516 -24.322  0.00  0.00    -0.198 NA
ATOM     15  C   UNL     1      31.499  -8.103 -23.641  0.00  0.00    +0.052 C 
ENDBRANCH   1  15
TORSDOF 2
ENDMDL
MODEL 7
REMARK VINA RESULT:      -6.7      8.726     10.462
REMARK  Name = 62529
REMARK  2 active torsions:
REMARK  status: ('A' for Active; 'I' for Inactive)
REMARK    1  A    between atoms: C_1  and  N_7
REMARK    2  A    between atoms: C_1  and  C_15
REMARK                            x       y       z     vdW  Elec       q    Type
REMARK                         _______ _______ _______ _____ _____    ______ ____
ROOT
ATOM      1  C   UNL     1      36.245 -25.304 -14.571  0.00  0.00    +0.040 C 
ATOM      2  C   UNL     1      36.459 -25.655 -13.085  0.00  0.00    -0.005 C 
ATOM      3  C   UNL     1      37.159 -24.136 -14.987  0.00  0.00    -0.005 C 
ATOM      4  C   UNL     1      37.931 -25.889 -12.736  0.00  0.00    -0.001 C 
ATOM      5  C   UNL     1      38.629 -24.374 -14.631  0.00  0.00    -0.001 C 
ATOM      6  C   UNL     1      38.803 -24.710 -13.154  0.00  0.00    -0.000 C 
ENDROOT
BRANCH   1   7
ATOM      7  N   UNL     1      34.854 -24.891 -14.752  0.00  0.00    +0.398 N 
ATOM      8  C   UNL     1      34.290 -24.417 -13.480  0.00  0.00    -0.076 C 
ATOM      9  C   UNL     1      34.755 -23.860 -15.794  0.00  0.00    -0.076 C 
ATOM     10  C   UNL     1      32.819 -24.026 -13.640  0.00  0.00    -0.023 C 
ATOM     11  C   UNL     1      33.300 -23.451 -16.030  0.00  0.00    -0.023 C 
ATOM     12  C   UNL     1      32.638 -22.984 -14.738  0.00  0.00    -0.004 C 
ATOM     13  H   UNL     1      34.310 -25.698 -15.055  0.00  0.00    -0.078 HD
ENDBRANCH   1   7
BRANCH   1  15
ATOM     14  N   UNL     1      36.707 -27.416 -16.086  0.00  0.00    -0.198 NA
ATOM     15  C   UNL     1      36.504 -26.487 -15.420  0.00  0.00    +0.052 C 
ENDBRANCH   1  15
TORSDOF 2
ENDMDL
MODEL 8
REMARK VINA RESULT:      -6.7      6.495     10.074
REMARK  Name = 62529
REMARK  2 active torsions:
REMARK  status: ('A' for Active; 'I' for Inactive)
REMARK    1  A    between atoms: C_1  and  N_7
REMARK    2  A    between atoms: C_1  and  C_15
REMARK                            x       y       z     vdW  Elec       q    Type
REMARK                         _______ _______ _______ _____ _____    ______ ____
ROOT
ATOM      1  C   UNL     1      32.607  -8.852 -22.490  0.00  0.00    +0.040 C 
ATOM      2  C   UNL     1      31.258  -8.619 -23.198  0.00  0.00    -0.005 C 
ATOM      3  C   UNL     1      33.755  -8.206 -23.289  0.00  0.00    -0.005 C 
ATOM      4  C   UNL     1      31.006  -7.146 -23.527  0.00  0.00    -0.001 C 
ATOM      5  C   UNL     1      33.496  -6.734 -23.620  0.00  0.00    -0.001 C 
ATOM      6  C   UNL     1      32.157  -6.543 -24.325  0.00  0.00    -0.000 C 
ENDROOT
BRANCH   1   7
ATOM      7  N   UNL     1      32.847 -10.292 -22.417  0.00  0.00    +0.398 N 
ATOM      8  C   UNL     1      31.655 -10.987 -21.910  0.00  0.00    -0.076 C 
ATOM      9  C   UNL     1      33.248 -10.815 -23.731  0.00  0.00    -0.076 C 
ATOM     10  C   UNL     1      31.905 -12.491 -21.781  0.00  0.00    -0.023 C 
ATOM     11  C   UNL     1      33.550 -12.313 -23.661  0.00  0.00    -0.023 C 
ATOM     12  C   UNL     1      32.364 -13.093 -23.104  0.00  0.00    -0.004 C 
ATOM     13  H   UNL     1      33.612 -10.464 -21.764  0.00  0.00    -0.078 HD
ENDBRANCH   1   7
BRANCH   1  15
ATOM     14  N   UNL     1      32.535  -7.878 -20.037  0.00  0.00    -0.198 NA
ATOM     15  C   UNL     1      32.567  -8.306 -21.116  0.00  0.00    +0.052 C 
ENDBRANCH   1  15
TORSDOF 2
ENDMDL
MODEL 9
REMARK VINA RESULT:      -6.6      1.443      3.128
REMARK  Name = 62529
REMARK  2 active torsions:
REMARK  status: ('A' for Active; 'I' for Inactive)
REMARK    1  A    between atoms: C_1  and  N_7
REMARK    2  A    between atoms: C_1  and  C_15
REMARK                            x       y       z     vdW  Elec       q    Type
REMARK                         _______ _______ _______ _____ _____    ______ ____
ROOT
ATOM      1  C   UNL     1      34.848 -17.960 -21.848  0.00  0.00    +0.040 C 
ATOM      2  C   UNL     1      36.281 -18.419 -22.185  0.00  0.00    -0.005 C 
ATOM      3  C   UNL     1      33.995 -19.153 -21.376  0.00  0.00    -0.005 C 
ATOM      4  C   UNL     1      36.933 -19.213 -21.050  0.00  0.00    -0.001 C 
ATOM      5  C   UNL     1      34.655 -19.946 -20.244  0.00  0.00    -0.001 C 
ATOM      6  C   UNL     1      36.065 -20.389 -20.615  0.00  0.00    -0.000 C 
ENDROOT
BRANCH   1   7
ATOM      7  N   UNL     1      34.244 -17.408 -23.059  0.00  0.00    +0.398 N 
ATOM      8  C   UNL     1      34.449 -15.954 -23.120  0.00  0.00    -0.076 C 
ATOM      9  C   UNL     1      34.786 -18.072 -24.254  0.00  0.00    -0.076 C 
ATOM     10  C   UNL     1      33.780 -15.353 -24.358  0.00  0.00    -0.023 C 
ATOM     11  C   UNL     1      34.128 -17.540 -25.528  0.00  0.00    -0.023 C 
ATOM     12  C   UNL     1      34.270 -16.026 -25.636  0.00  0.00    -0.004 C 
ATOM     13  H   UNL     1      33.239 -17.582 -23.032  0.00  0.00    -0.078 HD
ENDBRANCH   1   7
BRANCH   1  15
ATOM     14  N   UNL     1      34.901 -16.080 -19.994  0.00  0.00    -0.198 NA
ATOM     15  C   UNL     1      34.878 -16.907 -20.809  0.00  0.00    +0.052 C 
ENDBRANCH   1  15
TORSDOF 2
ENDMDL
