MODEL 1
REMARK VINA RESULT:      -9.9      0.000      0.000
REMARK  Name = 97538
REMARK  16 active torsions:
REMARK  status: ('A' for Active; 'I' for Inactive)
REMARK    1  A    between atoms: CA_1  and  N_3
REMARK    2  A    between atoms: CA_1  and  C_19
REMARK    3  A    between atoms: CA_1  and  CB_26
REMARK    4  A    between atoms: C_4  and  C_6
REMARK    5  A    between atoms: C_6  and  C_7
REMARK    6  A    between atoms: C_7  and  CA_8
REMARK    7  A    between atoms: CA_8  and  N_9
REMARK    8  A    between atoms: CA_8  and  C_14
REMARK    9  A    between atoms: C_14  and  O_15
REMARK   10  A    between atoms: N_18  and  CA_21
REMARK   11  A    between atoms: CA_21  and  C_23
REMARK   12  A    between atoms: C_23  and  O_24
REMARK   13  A    between atoms: CB_26  and  SG_27
REMARK   14  A    between atoms: SG_27  and  C_28
REMARK   15  A    between atoms: C_28  and  C_29
REMARK   16  A    between atoms: C_34  and  N_37
REMARK                            x       y       z     vdW  Elec       q    Type
REMARK                         _______ _______ _______ _____ _____    ______ ____
ROOT
ATOM      1  CA  UNL     1      35.621 -24.115 -15.100  0.00  0.00    +0.159 C 
ENDROOT
BRANCH   1   3
ATOM      2  O   UNL     1      37.688 -22.159 -15.581  0.00  0.00    -0.275 OA
ATOM      3  N   UNL     1      35.799 -23.312 -16.288  0.00  0.00    -0.298 N 
ATOM      4  C   UNL     1      36.829 -22.393 -16.426  0.00  0.00    +0.223 C 
ATOM      5  H   UNL     1      35.162 -23.421 -17.030  0.00  0.00    +0.150 HD
BRANCH   4   6
ATOM      6  C   UNL     1      36.768 -21.685 -17.770  0.00  0.00    +0.083 C 
BRANCH   6   7
ATOM      7  C   UNL     1      35.478 -21.993 -18.533  0.00  0.00    -0.001 C 
BRANCH   7   8
ATOM      8  CA  UNL     1      35.395 -21.266 -19.879  0.00  0.00    +0.036 C 
BRANCH   8   9
ATOM      9  N   UNL     1      36.351 -20.157 -19.897  0.00  0.00    +0.389 N 
ATOM     10  H1  UNL     1      36.133 -19.507 -19.142  0.00  0.00    -0.088 HD
ATOM     11  H2  UNL     1      36.290 -19.670 -20.791  0.00  0.00    -0.088 HD
ATOM     12  H3  UNL     1      37.296 -20.520 -19.771  0.00  0.00    -0.088 HD
ENDBRANCH   8   9
BRANCH   8  14
ATOM     13  OXT UNL     1      33.778 -19.706 -20.824  0.00  0.00    -0.253 OA
ATOM     14  C   UNL     1      34.020 -20.659 -20.094  0.00  0.00    +0.293 C 
BRANCH  14  15
ATOM     15  O   UNL     1      33.062 -21.280 -19.358  0.00  0.00    -0.482 OA
ATOM     16  H   UNL     1      33.151 -21.336 -18.426  0.00  0.00    +0.295 HD
ENDBRANCH  14  15
ENDBRANCH   8  14
ENDBRANCH   7   8
ENDBRANCH   6   7
ENDBRANCH   4   6
ENDBRANCH   1   3
BRANCH   1  19
ATOM     17  O   UNL     1      36.468 -26.310 -15.692  0.00  0.00    -0.273 OA
ATOM     18  N   UNL     1      37.778 -24.931 -14.363  0.00  0.00    -0.294 N 
ATOM     19  C   ACE A   1      36.649 -25.244 -15.107  0.00  0.00    +0.242 C 
ATOM     20  H   UNL     1      37.829 -24.049 -13.930  0.00  0.00    +0.150 HD
BRANCH  18  21
ATOM     21  CA  UNL     1      38.881 -25.849 -14.197  0.00  0.00    +0.200 C 
BRANCH  21  23
ATOM     22  OXT UNL     1      40.972 -24.661 -14.294  0.00  0.00    -0.248 OA
ATOM     23  C   UNL     1      40.148 -25.370 -14.858  0.00  0.00    +0.334 C 
BRANCH  23  24
ATOM     24  O   UNL     1      40.287 -25.798 -16.134  0.00  0.00    -0.479 OA
ATOM     25  H   UNL     1      39.610 -26.306 -16.535  0.00  0.00    +0.295 HD
ENDBRANCH  23  24
ENDBRANCH  21  23
ENDBRANCH  18  21
ENDBRANCH   1  19
BRANCH   1  26
ATOM     26  CB  UNL     1      34.180 -24.606 -14.938  0.00  0.00    +0.087 C 
BRANCH  26  27
ATOM     27  SG  UNL     1      33.370 -24.011 -13.417  0.00  0.00    -0.133 S 
BRANCH  27  28
ATOM     28  C   UNL     1      31.882 -25.033 -13.506  0.00  0.00    +0.084 C 
BRANCH  28  29
ATOM     29  C   UNL     1      30.837 -24.436 -14.408  0.00  0.00    -0.011 C 
ATOM     30  C   UNL     1      30.774 -23.054 -14.585  0.00  0.00    -0.002 C 
ATOM     31  C   UNL     1      29.933 -25.266 -15.071  0.00  0.00    -0.002 C 
ATOM     32  C   UNL     1      29.806 -22.501 -15.424  0.00  0.00    +0.024 C 
ATOM     33  C   UNL     1      28.965 -24.713 -15.910  0.00  0.00    +0.024 C 
ATOM     34  C   UNL     1      28.902 -23.331 -16.087  0.00  0.00    +0.143 C 
BRANCH  34  37
ATOM     35  O   UNL     1      27.445 -23.470 -17.868  0.00  0.00    -0.126 OA
ATOM     36  O   UNL     1      27.548 -21.585 -16.747  0.00  0.00    -0.126 OA
ATOM     37  N   UNL     1      27.918 -22.769 -16.941  0.00  0.00    +0.058 N 
ENDBRANCH  34  37
ENDBRANCH  28  29
ENDBRANCH  27  28
ENDBRANCH  26  27
ENDBRANCH   1  26
TORSDOF 16
ENDMDL
MODEL 2
REMARK VINA RESULT:      -9.7      2.120      6.385
REMARK  Name = 97538
REMARK  16 active torsions:
REMARK  status: ('A' for Active; 'I' for Inactive)
REMARK    1  A    between atoms: CA_1  and  N_3
REMARK    2  A    between atoms: CA_1  and  C_19
REMARK    3  A    between atoms: CA_1  and  CB_26
REMARK    4  A    between atoms: C_4  and  C_6
REMARK    5  A    between atoms: C_6  and  C_7
REMARK    6  A    between atoms: C_7  and  CA_8
REMARK    7  A    between atoms: CA_8  and  N_9
REMARK    8  A    between atoms: CA_8  and  C_14
REMARK    9  A    between atoms: C_14  and  O_15
REMARK   10  A    between atoms: N_18  and  CA_21
REMARK   11  A    between atoms: CA_21  and  C_23
REMARK   12  A    between atoms: C_23  and  O_24
REMARK   13  A    between atoms: CB_26  and  SG_27
REMARK   14  A    between atoms: SG_27  and  C_28
REMARK   15  A    between atoms: C_28  and  C_29
REMARK   16  A    between atoms: C_34  and  N_37
REMARK                            x       y       z     vdW  Elec       q    Type
REMARK                         _______ _______ _______ _____ _____    ______ ____
ROOT
ATOM      1  CA  UNL     1      34.782 -23.997 -15.612  0.00  0.00    +0.159 C 
ENDROOT
BRANCH   1   3
ATOM      2  O   UNL     1      32.170 -23.226 -16.567  0.00  0.00    -0.275 OA
ATOM      3  N   UNL     1      33.544 -24.008 -14.865  0.00  0.00    -0.298 N 
ATOM      4  C   UNL     1      32.332 -23.616 -15.414  0.00  0.00    +0.223 C 
ATOM      5  H   UNL     1      33.563 -24.305 -13.927  0.00  0.00    +0.150 HD
BRANCH   4   6
ATOM      6  C   UNL     1      31.202 -23.719 -14.403  0.00  0.00    +0.083 C 
BRANCH   6   7
ATOM      7  C   UNL     1      30.014 -22.826 -14.763  0.00  0.00    -0.001 C 
BRANCH   7   8
ATOM      8  CA  UNL     1      28.800 -23.620 -15.255  0.00  0.00    +0.036 C 
BRANCH   8   9
ATOM      9  N   UNL     1      29.040 -25.052 -15.061  0.00  0.00    +0.389 N 
ATOM     10  H1  UNL     1      28.365 -25.587 -15.607  0.00  0.00    -0.088 HD
ATOM     11  H2  UNL     1      28.937 -25.283 -14.073  0.00  0.00    -0.088 HD
ATOM     12  H3  UNL     1      29.985 -25.283 -15.368  0.00  0.00    -0.088 HD
ENDBRANCH   8   9
BRANCH   8  14
ATOM     13  OXT UNL     1      27.829 -24.093 -17.441  0.00  0.00    -0.253 OA
ATOM     14  C   UNL     1      28.572 -23.415 -16.742  0.00  0.00    +0.293 C 
BRANCH  14  15
ATOM     15  O   UNL     1      29.314 -22.391 -17.240  0.00  0.00    -0.482 OA
ATOM     16  H   UNL     1      29.098 -22.018 -18.072  0.00  0.00    +0.295 HD
ENDBRANCH  14  15
ENDBRANCH   8  14
ENDBRANCH   7   8
ENDBRANCH   6   7
ENDBRANCH   4   6
ENDBRANCH   1   3
BRANCH   1  19
ATOM     17  O   UNL     1      35.840 -26.178 -15.710  0.00  0.00    -0.273 OA
ATOM     18  N   UNL     1      36.250 -24.823 -13.872  0.00  0.00    -0.294 N 
ATOM     19  C   ACE A   1      35.677 -25.123 -15.101  0.00  0.00    +0.242 C 
ATOM     20  H   UNL     1      36.058 -23.949 -13.463  0.00  0.00    +0.150 HD
BRANCH  18  21
ATOM     21  CA  UNL     1      37.117 -25.741 -13.172  0.00  0.00    +0.200 C 
BRANCH  21  23
ATOM     22  OXT UNL     1      39.369 -24.930 -13.432  0.00  0.00    -0.248 OA
ATOM     23  C   UNL     1      38.519 -25.763 -13.725  0.00  0.00    +0.334 C 
BRANCH  23  24
ATOM     24  O   UNL     1      38.749 -26.790 -14.575  0.00  0.00    -0.479 OA
ATOM     25  H   UNL     1      38.033 -27.300 -14.899  0.00  0.00    +0.295 HD
ENDBRANCH  23  24
ENDBRANCH  21  23
ENDBRANCH  18  21
ENDBRANCH   1  19
BRANCH   1  26
ATOM     26  CB  UNL     1      35.461 -22.625 -15.595  0.00  0.00    +0.087 C 
BRANCH  26  27
ATOM     27  SG  UNL     1      36.280 -22.194 -17.166  0.00  0.00    -0.133 S 
BRANCH  27  28
ATOM     28  C   UNL     1      34.877 -22.478 -18.270  0.00  0.00    +0.084 C 
BRANCH  28  29
ATOM     29  C   UNL     1      34.776 -21.426 -19.340  0.00  0.00    -0.011 C 
ATOM     30  C   UNL     1      35.933 -20.845 -19.860  0.00  0.00    -0.002 C 
ATOM     31  C   UNL     1      33.524 -21.033 -19.814  0.00  0.00    -0.002 C 
ATOM     32  C   UNL     1      35.838 -19.871 -20.854  0.00  0.00    +0.024 C 
ATOM     33  C   UNL     1      33.430 -20.058 -20.808  0.00  0.00    +0.024 C 
ATOM     34  C   UNL     1      34.586 -19.478 -21.328  0.00  0.00    +0.143 C 
BRANCH  34  37
ATOM     35  O   UNL     1      34.282 -17.296 -22.007  0.00  0.00    -0.126 OA
ATOM     36  O   UNL     1      34.616 -18.830 -23.541  0.00  0.00    -0.126 OA
ATOM     37  N   UNL     1      34.490 -18.487 -22.340  0.00  0.00    +0.058 N 
ENDBRANCH  34  37
ENDBRANCH  28  29
ENDBRANCH  27  28
ENDBRANCH  26  27
ENDBRANCH   1  26
TORSDOF 16
ENDMDL
MODEL 3
REMARK VINA RESULT:      -9.6      2.564      6.381
REMARK  Name = 97538
REMARK  16 active torsions:
REMARK  status: ('A' for Active; 'I' for Inactive)
REMARK    1  A    between atoms: CA_1  and  N_3
REMARK    2  A    between atoms: CA_1  and  C_19
REMARK    3  A    between atoms: CA_1  and  CB_26
REMARK    4  A    between atoms: C_4  and  C_6
REMARK    5  A    between atoms: C_6  and  C_7
REMARK    6  A    between atoms: C_7  and  CA_8
REMARK    7  A    between atoms: CA_8  and  N_9
REMARK    8  A    between atoms: CA_8  and  C_14
REMARK    9  A    between atoms: C_14  and  O_15
REMARK   10  A    between atoms: N_18  and  CA_21
REMARK   11  A    between atoms: CA_21  and  C_23
REMARK   12  A    between atoms: C_23  and  O_24
REMARK   13  A    between atoms: CB_26  and  SG_27
REMARK   14  A    between atoms: SG_27  and  C_28
REMARK   15  A    between atoms: C_28  and  C_29
REMARK   16  A    between atoms: C_34  and  N_37
REMARK                            x       y       z     vdW  Elec       q    Type
REMARK                         _______ _______ _______ _____ _____    ______ ____
ROOT
ATOM      1  CA  UNL     1      34.496 -24.698 -14.364  0.00  0.00    +0.159 C 
ENDROOT
BRANCH   1   3
ATOM      2  O   UNL     1      31.702 -25.391 -14.150  0.00  0.00    -0.275 OA
ATOM      3  N   UNL     1      33.373 -23.789 -14.344  0.00  0.00    -0.298 N 
ATOM      4  C   UNL     1      32.059 -24.220 -14.238  0.00  0.00    +0.223 C 
ATOM      5  H   UNL     1      33.548 -22.822 -14.408  0.00  0.00    +0.150 HD
BRANCH   4   6
ATOM      6  C   UNL     1      31.086 -23.052 -14.251  0.00  0.00    +0.083 C 
BRANCH   6   7
ATOM      7  C   UNL     1      30.340 -22.930 -15.581  0.00  0.00    -0.001 C 
BRANCH   7   8
ATOM      8  CA  UNL     1      28.866 -23.338 -15.477  0.00  0.00    +0.036 C 
BRANCH   8   9
ATOM      9  N   UNL     1      28.774 -24.777 -15.219  0.00  0.00    +0.389 N 
ATOM     10  H1  UNL     1      27.801 -25.032 -15.053  0.00  0.00    -0.088 HD
ATOM     11  H2  UNL     1      29.331 -25.012 -14.398  0.00  0.00    -0.088 HD
ATOM     12  H3  UNL     1      29.126 -25.291 -16.027  0.00  0.00    -0.088 HD
ENDBRANCH   8   9
BRANCH   8  14
ATOM     13  OXT UNL     1      27.786 -23.944 -17.576  0.00  0.00    -0.253 OA
ATOM     14  C   UNL     1      28.129 -23.081 -16.778  0.00  0.00    +0.293 C 
BRANCH  14  15
ATOM     15  O   UNL     1      27.902 -21.758 -16.988  0.00  0.00    -0.482 OA
ATOM     16  H   UNL     1      28.048 -21.386 -17.835  0.00  0.00    +0.295 HD
ENDBRANCH  14  15
ENDBRANCH   8  14
ENDBRANCH   7   8
ENDBRANCH   6   7
ENDBRANCH   4   6
ENDBRANCH   1   3
BRANCH   1  19
ATOM     17  O   UNL     1      34.679 -24.419 -11.960  0.00  0.00    -0.273 OA
ATOM     18  N   UNL     1      36.621 -24.671 -13.204  0.00  0.00    -0.294 N 
ATOM     19  C   ACE A   1      35.245 -24.587 -13.038  0.00  0.00    +0.242 C 
ATOM     20  H   UNL     1      36.980 -24.806 -14.111  0.00  0.00    +0.150 HD
BRANCH  18  21
ATOM     21  CA  UNL     1      37.547 -24.568 -12.101  0.00  0.00    +0.200 C 
BRANCH  21  23
ATOM     22  OXT UNL     1      38.269 -22.272 -12.054  0.00  0.00    -0.248 OA
ATOM     23  C   UNL     1      37.628 -23.175 -11.531  0.00  0.00    +0.334 C 
BRANCH  23  24
ATOM     24  O   UNL     1      36.925 -23.018 -10.385  0.00  0.00    -0.479 OA
ATOM     25  H   UNL     1      36.878 -23.717  -9.764  0.00  0.00    +0.295 HD
ENDBRANCH  23  24
ENDBRANCH  21  23
ENDBRANCH  18  21
ENDBRANCH   1  19
BRANCH   1  26
ATOM     26  CB  UNL     1      35.391 -24.492 -15.588  0.00  0.00    +0.087 C 
BRANCH  26  27
ATOM     27  SG  UNL     1      35.338 -22.798 -16.259  0.00  0.00    -0.133 S 
BRANCH  27  28
ATOM     28  C   UNL     1      34.181 -23.097 -17.614  0.00  0.00    +0.084 C 
BRANCH  28  29
ATOM     29  C   UNL     1      34.296 -22.061 -18.698  0.00  0.00    -0.011 C 
ATOM     30  C   UNL     1      35.553 -21.651 -19.141  0.00  0.00    -0.002 C 
ATOM     31  C   UNL     1      33.144 -21.511 -19.261  0.00  0.00    -0.002 C 
ATOM     32  C   UNL     1      35.660 -20.691 -20.147  0.00  0.00    +0.024 C 
ATOM     33  C   UNL     1      33.250 -20.550 -20.267  0.00  0.00    +0.024 C 
ATOM     34  C   UNL     1      34.508 -20.141 -20.711  0.00  0.00    +0.143 C 
BRANCH  34  37
ATOM     35  O   UNL     1      34.779 -19.543 -22.921  0.00  0.00    -0.126 OA
ATOM     36  O   UNL     1      34.546 -17.950 -21.429  0.00  0.00    -0.126 OA
ATOM     37  N   UNL     1      34.616 -19.165 -21.736  0.00  0.00    +0.058 N 
ENDBRANCH  34  37
ENDBRANCH  28  29
ENDBRANCH  27  28
ENDBRANCH  26  27
ENDBRANCH   1  26
TORSDOF 16
ENDMDL
MODEL 4
REMARK VINA RESULT:      -9.6      6.814     11.449
REMARK  Name = 97538
REMARK  16 active torsions:
REMARK  status: ('A' for Active; 'I' for Inactive)
REMARK    1  A    between atoms: CA_1  and  N_3
REMARK    2  A    between atoms: CA_1  and  C_19
REMARK    3  A    between atoms: CA_1  and  CB_26
REMARK    4  A    between atoms: C_4  and  C_6
REMARK    5  A    between atoms: C_6  and  C_7
REMARK    6  A    between atoms: C_7  and  CA_8
REMARK    7  A    between atoms: CA_8  and  N_9
REMARK    8  A    between atoms: CA_8  and  C_14
REMARK    9  A    between atoms: C_14  and  O_15
REMARK   10  A    between atoms: N_18  and  CA_21
REMARK   11  A    between atoms: CA_21  and  C_23
REMARK   12  A    between atoms: C_23  and  O_24
REMARK   13  A    between atoms: CB_26  and  SG_27
REMARK   14  A    between atoms: SG_27  and  C_28
REMARK   15  A    between atoms: C_28  and  C_29
REMARK   16  A    between atoms: C_34  and  N_37
REMARK                            x       y       z     vdW  Elec       q    Type
REMARK                         _______ _______ _______ _____ _____    ______ ____
ROOT
ATOM      1  CA  UNL     1      34.396 -16.155 -23.498  0.00  0.00    +0.159 C 
ENDROOT
BRANCH   1   3
ATOM      2  O   UNL     1      34.955 -15.299 -20.799  0.00  0.00    -0.275 OA
ATOM      3  N   UNL     1      33.583 -15.290 -22.675  0.00  0.00    -0.298 N 
ATOM      4  C   UNL     1      33.937 -14.934 -21.382  0.00  0.00    +0.223 C 
ATOM      5  H   UNL     1      32.742 -14.939 -23.047  0.00  0.00    +0.150 HD
BRANCH   4   6
ATOM      6  C   UNL     1      32.896 -14.026 -20.749  0.00  0.00    +0.083 C 
BRANCH   6   7
ATOM      7  C   UNL     1      31.956 -13.405 -21.784  0.00  0.00    -0.001 C 
BRANCH   7   8
ATOM      8  CA  UNL     1      31.980 -11.873 -21.767  0.00  0.00    +0.036 C 
BRANCH   8   9
ATOM      9  N   UNL     1      30.608 -11.362 -21.816  0.00  0.00    +0.389 N 
ATOM     10  H1  UNL     1      30.045 -11.955 -22.425  0.00  0.00    -0.088 HD
ATOM     11  H2  UNL     1      30.613 -10.409 -22.180  0.00  0.00    -0.088 HD
ATOM     12  H3  UNL     1      30.210 -11.364 -20.876  0.00  0.00    -0.088 HD
ENDBRANCH   8   9
BRANCH   8  14
ATOM     13  OXT UNL     1      32.537 -10.193 -23.442  0.00  0.00    -0.253 OA
ATOM     14  C   UNL     1      32.694 -11.318 -22.986  0.00  0.00    +0.293 C 
BRANCH  14  15
ATOM     15  O   UNL     1      33.530 -12.228 -23.550  0.00  0.00    -0.482 OA
ATOM     16  H   UNL     1      33.228 -12.769 -24.253  0.00  0.00    +0.295 HD
ENDBRANCH  14  15
ENDBRANCH   8  14
ENDBRANCH   7   8
ENDBRANCH   6   7
ENDBRANCH   4   6
ENDBRANCH   1   3
BRANCH   1  19
ATOM     17  O   UNL     1      34.618 -16.484 -25.892  0.00  0.00    -0.273 OA
ATOM     18  N   UNL     1      33.162 -14.850 -25.122  0.00  0.00    -0.294 N 
ATOM     19  C   ACE A   1      34.085 -15.876 -24.967  0.00  0.00    +0.242 C 
ATOM     20  H   UNL     1      32.791 -14.423 -24.317  0.00  0.00    +0.150 HD
BRANCH  18  21
ATOM     21  CA  UNL     1      32.725 -14.385 -26.418  0.00  0.00    +0.200 C 
BRANCH  21  23
ATOM     22  OXT UNL     1      33.592 -12.140 -26.356  0.00  0.00    -0.248 OA
ATOM     23  C   UNL     1      33.536 -13.221 -26.928  0.00  0.00    +0.334 C 
BRANCH  23  24
ATOM     24  O   UNL     1      34.198 -13.487 -28.079  0.00  0.00    -0.479 OA
ATOM     25  H   UNL     1      35.098 -13.244 -28.169  0.00  0.00    +0.295 HD
ENDBRANCH  23  24
ENDBRANCH  21  23
ENDBRANCH  18  21
ENDBRANCH   1  19
BRANCH   1  26
ATOM     26  CB  UNL     1      34.251 -17.630 -23.116  0.00  0.00    +0.087 C 
BRANCH  26  27
ATOM     27  SG  UNL     1      35.812 -18.568 -23.206  0.00  0.00    -0.133 S 
BRANCH  27  28
ATOM     28  C   UNL     1      36.188 -18.605 -21.439  0.00  0.00    +0.084 C 
BRANCH  28  29
ATOM     29  C   UNL     1      35.450 -19.704 -20.724  0.00  0.00    -0.011 C 
ATOM     30  C   UNL     1      34.056 -19.721 -20.721  0.00  0.00    -0.002 C 
ATOM     31  C   UNL     1      36.163 -20.708 -20.068  0.00  0.00    -0.002 C 
ATOM     32  C   UNL     1      33.372 -20.742 -20.060  0.00  0.00    +0.024 C 
ATOM     33  C   UNL     1      35.479 -21.729 -19.406  0.00  0.00    +0.024 C 
ATOM     34  C   UNL     1      34.084 -21.746 -19.403  0.00  0.00    +0.143 C 
BRANCH  34  37
ATOM     35  O   UNL     1      32.366 -22.500 -18.063  0.00  0.00    -0.126 OA
ATOM     36  O   UNL     1      33.816 -23.962 -18.823  0.00  0.00    -0.126 OA
ATOM     37  N   UNL     1      33.389 -22.785 -18.731  0.00  0.00    +0.058 N 
ENDBRANCH  34  37
ENDBRANCH  28  29
ENDBRANCH  27  28
ENDBRANCH  26  27
ENDBRANCH   1  26
TORSDOF 16
ENDMDL
MODEL 5
REMARK VINA RESULT:      -9.5      2.402      6.638
REMARK  Name = 97538
REMARK  16 active torsions:
REMARK  status: ('A' for Active; 'I' for Inactive)
REMARK    1  A    between atoms: CA_1  and  N_3
REMARK    2  A    between atoms: CA_1  and  C_19
REMARK    3  A    between atoms: CA_1  and  CB_26
REMARK    4  A    between atoms: C_4  and  C_6
REMARK    5  A    between atoms: C_6  and  C_7
REMARK    6  A    between atoms: C_7  and  CA_8
REMARK    7  A    between atoms: CA_8  and  N_9
REMARK    8  A    between atoms: CA_8  and  C_14
REMARK    9  A    between atoms: C_14  and  O_15
REMARK   10  A    between atoms: N_18  and  CA_21
REMARK   11  A    between atoms: CA_21  and  C_23
REMARK   12  A    between atoms: C_23  and  O_24
REMARK   13  A    between atoms: CB_26  and  SG_27
REMARK   14  A    between atoms: SG_27  and  C_28
REMARK   15  A    between atoms: C_28  and  C_29
REMARK   16  A    between atoms: C_34  and  N_37
REMARK                            x       y       z     vdW  Elec       q    Type
REMARK                         _______ _______ _______ _____ _____    ______ ____
ROOT
ATOM      1  CA  UNL     1      35.151 -23.532 -15.776  0.00  0.00    +0.159 C 
ENDROOT
BRANCH   1   3
ATOM      2  O   UNL     1      32.477 -23.390 -16.850  0.00  0.00    -0.275 OA
ATOM      3  N   UNL     1      33.915 -23.509 -15.029  0.00  0.00    -0.298 N 
ATOM      4  C   UNL     1      32.670 -23.439 -15.639  0.00  0.00    +0.223 C 
ATOM      5  H   UNL     1      33.957 -23.544 -14.047  0.00  0.00    +0.150 HD
BRANCH   4   6
ATOM      6  C   UNL     1      31.548 -23.420 -14.614  0.00  0.00    +0.083 C 
BRANCH   6   7
ATOM      7  C   UNL     1      30.278 -22.758 -15.153  0.00  0.00    -0.001 C 
BRANCH   7   8
ATOM      8  CA  UNL     1      29.190 -23.772 -15.523  0.00  0.00    +0.036 C 
BRANCH   8   9
ATOM      9  N   UNL     1      29.808 -25.063 -15.832  0.00  0.00    +0.389 N 
ATOM     10  H1  UNL     1      29.094 -25.791 -15.832  0.00  0.00    -0.088 HD
ATOM     11  H2  UNL     1      30.514 -25.279 -15.128  0.00  0.00    -0.088 HD
ATOM     12  H3  UNL     1      30.248 -25.019 -16.752  0.00  0.00    -0.088 HD
ENDBRANCH   8   9
BRANCH   8  14
ATOM     13  OXT UNL     1      27.791 -24.088 -17.494  0.00  0.00    -0.253 OA
ATOM     14  C   UNL     1      28.436 -23.342 -16.768  0.00  0.00    +0.293 C 
BRANCH  14  15
ATOM     15  O   UNL     1      28.572 -22.013 -17.019  0.00  0.00    -0.482 OA
ATOM     16  H   UNL     1      27.830 -21.445 -16.949  0.00  0.00    +0.295 HD
ENDBRANCH  14  15
ENDBRANCH   8  14
ENDBRANCH   7   8
ENDBRANCH   6   7
ENDBRANCH   4   6
ENDBRANCH   1   3
BRANCH   1  19
ATOM     17  O   UNL     1      36.185 -25.701 -15.434  0.00  0.00    -0.273 OA
ATOM     18  N   UNL     1      36.855 -23.925 -14.100  0.00  0.00    -0.294 N 
ATOM     19  C   ACE A   1      36.111 -24.517 -15.112  0.00  0.00    +0.242 C 
ATOM     20  H   UNL     1      36.723 -22.967 -13.916  0.00  0.00    +0.150 HD
BRANCH  18  21
ATOM     21  CA  UNL     1      37.814 -24.658 -13.307  0.00  0.00    +0.200 C 
BRANCH  21  23
ATOM     22  OXT UNL     1      37.177 -24.542 -10.988  0.00  0.00    -0.248 OA
ATOM     23  C   UNL     1      37.911 -24.154 -11.889  0.00  0.00    +0.334 C 
BRANCH  23  24
ATOM     24  O   UNL     1      38.885 -23.233 -11.709  0.00  0.00    -0.479 OA
ATOM     25  H   UNL     1      38.747 -22.511 -11.128  0.00  0.00    +0.295 HD
ENDBRANCH  23  24
ENDBRANCH  21  23
ENDBRANCH  18  21
ENDBRANCH   1  19
BRANCH   1  26
ATOM     26  CB  UNL     1      35.747 -22.134 -15.961  0.00  0.00    +0.087 C 
BRANCH  26  27
ATOM     27  SG  UNL     1      36.605 -21.909 -17.554  0.00  0.00    -0.133 S 
BRANCH  27  28
ATOM     28  C   UNL     1      35.191 -22.182 -18.645  0.00  0.00    +0.084 C 
BRANCH  28  29
ATOM     29  C   UNL     1      35.024 -21.072 -19.647  0.00  0.00    -0.011 C 
ATOM     30  C   UNL     1      33.748 -20.698 -20.068  0.00  0.00    -0.002 C 
ATOM     31  C   UNL     1      36.147 -20.416 -20.153  0.00  0.00    -0.002 C 
ATOM     32  C   UNL     1      33.594 -19.668 -20.995  0.00  0.00    +0.024 C 
ATOM     33  C   UNL     1      35.992 -19.386 -21.081  0.00  0.00    +0.024 C 
ATOM     34  C   UNL     1      34.716 -19.012 -21.501  0.00  0.00    +0.143 C 
BRANCH  34  37
ATOM     35  O   UNL     1      34.628 -18.229 -23.669  0.00  0.00    -0.126 OA
ATOM     36  O   UNL     1      34.357 -16.796 -22.029  0.00  0.00    -0.126 OA
ATOM     37  N   UNL     1      34.559 -17.962 -22.445  0.00  0.00    +0.058 N 
ENDBRANCH  34  37
ENDBRANCH  28  29
ENDBRANCH  27  28
ENDBRANCH  26  27
ENDBRANCH   1  26
TORSDOF 16
ENDMDL
MODEL 6
REMARK VINA RESULT:      -9.4      2.388      7.816
REMARK  Name = 97538
REMARK  16 active torsions:
REMARK  status: ('A' for Active; 'I' for Inactive)
REMARK    1  A    between atoms: CA_1  and  N_3
REMARK    2  A    between atoms: CA_1  and  C_19
REMARK    3  A    between atoms: CA_1  and  CB_26
REMARK    4  A    between atoms: C_4  and  C_6
REMARK    5  A    between atoms: C_6  and  C_7
REMARK    6  A    between atoms: C_7  and  CA_8
REMARK    7  A    between atoms: CA_8  and  N_9
REMARK    8  A    between atoms: CA_8  and  C_14
REMARK    9  A    between atoms: C_14  and  O_15
REMARK   10  A    between atoms: N_18  and  CA_21
REMARK   11  A    between atoms: CA_21  and  C_23
REMARK   12  A    between atoms: C_23  and  O_24
REMARK   13  A    between atoms: CB_26  and  SG_27
REMARK   14  A    between atoms: SG_27  and  C_28
REMARK   15  A    between atoms: C_28  and  C_29
REMARK   16  A    between atoms: C_34  and  N_37
REMARK                            x       y       z     vdW  Elec       q    Type
REMARK                         _______ _______ _______ _____ _____    ______ ____
ROOT
ATOM      1  CA  UNL     1      34.084 -23.968 -14.467  0.00  0.00    +0.159 C 
ENDROOT
BRANCH   1   3
ATOM      2  O   UNL     1      36.557 -23.167 -13.213  0.00  0.00    -0.275 OA
ATOM      3  N   UNL     1      34.984 -24.804 -13.706  0.00  0.00    -0.298 N 
ATOM      4  C   UNL     1      36.157 -24.325 -13.139  0.00  0.00    +0.223 C 
ATOM      5  H   UNL     1      34.757 -25.754 -13.585  0.00  0.00    +0.150 HD
BRANCH   4   6
ATOM      6  C   UNL     1      36.911 -25.422 -12.407  0.00  0.00    +0.083 C 
BRANCH   6   7
ATOM      7  C   UNL     1      38.383 -25.492 -12.817  0.00  0.00    -0.001 C 
BRANCH   7   8
ATOM      8  CA  UNL     1      38.573 -25.789 -14.308  0.00  0.00    +0.036 C 
BRANCH   8   9
ATOM      9  N   UNL     1      37.862 -27.022 -14.656  0.00  0.00    +0.389 N 
ATOM     10  H1  UNL     1      36.862 -26.833 -14.715  0.00  0.00    -0.088 HD
ATOM     11  H2  UNL     1      38.032 -27.726 -13.938  0.00  0.00    -0.088 HD
ATOM     12  H3  UNL     1      38.197 -27.365 -15.556  0.00  0.00    -0.088 HD
ENDBRANCH   8   9
BRANCH   8  14
ATOM     13  OXT UNL     1      40.908 -26.298 -13.830  0.00  0.00    -0.253 OA
ATOM     14  C   UNL     1      40.035 -26.020 -14.643  0.00  0.00    +0.293 C 
BRANCH  14  15
ATOM     15  O   UNL     1      40.291 -25.859 -15.967  0.00  0.00    -0.482 OA
ATOM     16  H   UNL     1      39.589 -25.681 -16.562  0.00  0.00    +0.295 HD
ENDBRANCH  14  15
ENDBRANCH   8  14
ENDBRANCH   7   8
ENDBRANCH   6   7
ENDBRANCH   4   6
ENDBRANCH   1   3
BRANCH   1  19
ATOM     17  O   UNL     1      32.386 -24.950 -13.039  0.00  0.00    -0.273 OA
ATOM     18  N   UNL     1      31.748 -23.344 -14.587  0.00  0.00    -0.294 N 
ATOM     19  C   ACE A   1      32.667 -24.153 -13.932  0.00  0.00    +0.242 C 
ATOM     20  H   UNL     1      32.071 -22.737 -15.291  0.00  0.00    +0.150 HD
BRANCH  18  21
ATOM     21  CA  UNL     1      30.338 -23.356 -14.276  0.00  0.00    +0.200 C 
BRANCH  21  23
ATOM     22  OXT UNL     1      29.012 -24.330 -16.034  0.00  0.00    -0.248 OA
ATOM     23  C   UNL     1      29.595 -24.472 -14.965  0.00  0.00    +0.334 C 
BRANCH  23  24
ATOM     24  O   UNL     1      29.633 -25.644 -14.291  0.00  0.00    -0.479 OA
ATOM     25  H   UNL     1      30.442 -26.109 -14.204  0.00  0.00    +0.295 HD
ENDBRANCH  23  24
ENDBRANCH  21  23
ENDBRANCH  18  21
ENDBRANCH   1  19
BRANCH   1  26
ATOM     26  CB  UNL     1      34.201 -24.207 -15.975  0.00  0.00    +0.087 C 
BRANCH  26  27
ATOM     27  SG  UNL     1      34.935 -22.807 -16.884  0.00  0.00    -0.133 S 
BRANCH  27  28
ATOM     28  C   UNL     1      33.762 -22.752 -18.257  0.00  0.00    +0.084 C 
BRANCH  28  29
ATOM     29  C   UNL     1      34.092 -21.663 -19.241  0.00  0.00    -0.011 C 
ATOM     30  C   UNL     1      35.419 -21.419 -19.593  0.00  0.00    -0.002 C 
ATOM     31  C   UNL     1      33.068 -20.900 -19.804  0.00  0.00    -0.002 C 
ATOM     32  C   UNL     1      35.724 -20.410 -20.507  0.00  0.00    +0.024 C 
ATOM     33  C   UNL     1      33.373 -19.892 -20.718  0.00  0.00    +0.024 C 
ATOM     34  C   UNL     1      34.700 -19.647 -21.070  0.00  0.00    +0.143 C 
BRANCH  34  37
ATOM     35  O   UNL     1      35.420 -17.515 -21.574  0.00  0.00    -0.126 OA
ATOM     36  O   UNL     1      34.866 -18.849 -23.227  0.00  0.00    -0.126 OA
ATOM     37  N   UNL     1      35.011 -18.622 -22.002  0.00  0.00    +0.058 N 
ENDBRANCH  34  37
ENDBRANCH  28  29
ENDBRANCH  27  28
ENDBRANCH  26  27
ENDBRANCH   1  26
TORSDOF 16
ENDMDL
MODEL 7
REMARK VINA RESULT:      -9.4      1.772      5.520
REMARK  Name = 97538
REMARK  16 active torsions:
REMARK  status: ('A' for Active; 'I' for Inactive)
REMARK    1  A    between atoms: CA_1  and  N_3
REMARK    2  A    between atoms: CA_1  and  C_19
REMARK    3  A    between atoms: CA_1  and  CB_26
REMARK    4  A    between atoms: C_4  and  C_6
REMARK    5  A    between atoms: C_6  and  C_7
REMARK    6  A    between atoms: C_7  and  CA_8
REMARK    7  A    between atoms: CA_8  and  N_9
REMARK    8  A    between atoms: CA_8  and  C_14
REMARK    9  A    between atoms: C_14  and  O_15
REMARK   10  A    between atoms: N_18  and  CA_21
REMARK   11  A    between atoms: CA_21  and  C_23
REMARK   12  A    between atoms: C_23  and  O_24
REMARK   13  A    between atoms: CB_26  and  SG_27
REMARK   14  A    between atoms: SG_27  and  C_28
REMARK   15  A    between atoms: C_28  and  C_29
REMARK   16  A    between atoms: C_34  and  N_37
REMARK                            x       y       z     vdW  Elec       q    Type
REMARK                         _______ _______ _______ _____ _____    ______ ____
ROOT
ATOM      1  CA  UNL     1      34.357 -24.400 -14.671  0.00  0.00    +0.159 C 
ENDROOT
BRANCH   1   3
ATOM      2  O   UNL     1      36.002 -26.501 -15.771  0.00  0.00    -0.275 OA
ATOM      3  N   UNL     1      35.465 -25.065 -14.025  0.00  0.00    -0.298 N 
ATOM      4  C   UNL     1      36.200 -26.070 -14.638  0.00  0.00    +0.223 C 
ATOM      5  H   UNL     1      35.709 -24.795 -13.111  0.00  0.00    +0.150 HD
BRANCH   4   6
ATOM      6  C   UNL     1      37.296 -26.595 -13.727  0.00  0.00    +0.083 C 
BRANCH   6   7
ATOM      7  C   UNL     1      38.193 -25.478 -13.189  0.00  0.00    -0.001 C 
BRANCH   7   8
ATOM      8  CA  UNL     1      39.135 -24.906 -14.253  0.00  0.00    +0.036 C 
BRANCH   8   9
ATOM      9  N   UNL     1      38.380 -24.630 -15.478  0.00  0.00    +0.389 N 
ATOM     10  H1  UNL     1      37.675 -25.354 -15.614  0.00  0.00    -0.088 HD
ATOM     11  H2  UNL     1      39.016 -24.622 -16.275  0.00  0.00    -0.088 HD
ATOM     12  H3  UNL     1      37.923 -23.721 -15.399  0.00  0.00    -0.088 HD
ENDBRANCH   8   9
BRANCH   8  14
ATOM     13  OXT UNL     1      40.811 -26.625 -13.834  0.00  0.00    -0.253 OA
ATOM     14  C   UNL     1      40.217 -25.903 -14.625  0.00  0.00    +0.293 C 
BRANCH  14  15
ATOM     15  O   UNL     1      40.487 -25.897 -15.957  0.00  0.00    -0.482 OA
ATOM     16  H   UNL     1      39.979 -25.363 -16.535  0.00  0.00    +0.295 HD
ENDBRANCH  14  15
ENDBRANCH   8  14
ENDBRANCH   7   8
ENDBRANCH   6   7
ENDBRANCH   4   6
ENDBRANCH   1   3
BRANCH   1  19
ATOM     17  O   UNL     1      35.854 -22.624 -15.373  0.00  0.00    -0.273 OA
ATOM     18  N   UNL     1      34.192 -23.323 -16.833  0.00  0.00    -0.294 N 
ATOM     19  C   ACE A   1      34.904 -23.357 -15.642  0.00  0.00    +0.242 C 
ATOM     20  H   UNL     1      33.444 -23.952 -16.954  0.00  0.00    +0.150 HD
BRANCH  18  21
ATOM     21  CA  UNL     1      34.502 -22.402 -17.901  0.00  0.00    +0.200 C 
BRANCH  21  23
ATOM     22  OXT UNL     1      32.896 -21.968 -19.641  0.00  0.00    -0.248 OA
ATOM     23  C   UNL     1      33.756 -22.705 -19.174  0.00  0.00    +0.334 C 
BRANCH  23  24
ATOM     24  O   UNL     1      34.127 -23.871 -19.753  0.00  0.00    -0.479 OA
ATOM     25  H   UNL     1      35.028 -24.129 -19.753  0.00  0.00    +0.295 HD
ENDBRANCH  23  24
ENDBRANCH  21  23
ENDBRANCH  18  21
ENDBRANCH   1  19
BRANCH   1  26
ATOM     26  CB  UNL     1      33.354 -23.828 -13.665  0.00  0.00    +0.087 C 
BRANCH  26  27
ATOM     27  SG  UNL     1      31.819 -24.801 -13.526  0.00  0.00    -0.133 S 
BRANCH  27  28
ATOM     28  C   UNL     1      31.397 -24.863 -15.281  0.00  0.00    +0.084 C 
BRANCH  28  29
ATOM     29  C   UNL     1      30.143 -24.091 -15.590  0.00  0.00    -0.011 C 
ATOM     30  C   UNL     1      29.952 -22.822 -15.043  0.00  0.00    -0.002 C 
ATOM     31  C   UNL     1      29.173 -24.644 -16.427  0.00  0.00    -0.002 C 
ATOM     32  C   UNL     1      28.790 -22.106 -15.331  0.00  0.00    +0.024 C 
ATOM     33  C   UNL     1      28.011 -23.927 -16.715  0.00  0.00    +0.024 C 
ATOM     34  C   UNL     1      27.820 -22.659 -16.168  0.00  0.00    +0.143 C 
BRANCH  34  37
ATOM     35  O   UNL     1      26.645 -21.122 -17.423  0.00  0.00    -0.126 OA
ATOM     36  O   UNL     1      25.619 -22.111 -15.753  0.00  0.00    -0.126 OA
ATOM     37  N   UNL     1      26.638 -21.929 -16.462  0.00  0.00    +0.058 N 
ENDBRANCH  34  37
ENDBRANCH  28  29
ENDBRANCH  27  28
ENDBRANCH  26  27
ENDBRANCH   1  26
TORSDOF 16
ENDMDL
MODEL 8
REMARK VINA RESULT:      -9.3      2.891      8.122
REMARK  Name = 97538
REMARK  16 active torsions:
REMARK  status: ('A' for Active; 'I' for Inactive)
REMARK    1  A    between atoms: CA_1  and  N_3
REMARK    2  A    between atoms: CA_1  and  C_19
REMARK    3  A    between atoms: CA_1  and  CB_26
REMARK    4  A    between atoms: C_4  and  C_6
REMARK    5  A    between atoms: C_6  and  C_7
REMARK    6  A    between atoms: C_7  and  CA_8
REMARK    7  A    between atoms: CA_8  and  N_9
REMARK    8  A    between atoms: CA_8  and  C_14
REMARK    9  A    between atoms: C_14  and  O_15
REMARK   10  A    between atoms: N_18  and  CA_21
REMARK   11  A    between atoms: CA_21  and  C_23
REMARK   12  A    between atoms: C_23  and  O_24
REMARK   13  A    between atoms: CB_26  and  SG_27
REMARK   14  A    between atoms: SG_27  and  C_28
REMARK   15  A    between atoms: C_28  and  C_29
REMARK   16  A    between atoms: C_34  and  N_37
REMARK                            x       y       z     vdW  Elec       q    Type
REMARK                         _______ _______ _______ _____ _____    ______ ____
ROOT
ATOM      1  CA  UNL     1      34.029 -23.523 -15.321  0.00  0.00    +0.159 C 
ENDROOT
BRANCH   1   3
ATOM      2  O   UNL     1      36.911 -23.574 -15.181  0.00  0.00    -0.275 OA
ATOM      3  N   UNL     1      34.859 -24.625 -14.892  0.00  0.00    -0.298 N 
ATOM      4  C   UNL     1      36.244 -24.554 -14.860  0.00  0.00    +0.223 C 
ATOM      5  H   UNL     1      34.424 -25.462 -14.611  0.00  0.00    +0.150 HD
BRANCH   4   6
ATOM      6  C   UNL     1      36.859 -25.858 -14.378  0.00  0.00    +0.083 C 
BRANCH   6   7
ATOM      7  C   UNL     1      37.082 -25.873 -12.865  0.00  0.00    -0.001 C 
BRANCH   7   8
ATOM      8  CA  UNL     1      36.926 -24.490 -12.226  0.00  0.00    +0.036 C 
BRANCH   8   9
ATOM      9  N   UNL     1      38.177 -24.111 -11.564  0.00  0.00    +0.389 N 
ATOM     10  H1  UNL     1      38.818 -23.714 -12.251  0.00  0.00    -0.088 HD
ATOM     11  H2  UNL     1      38.601 -24.937 -11.142  0.00  0.00    -0.088 HD
ATOM     12  H3  UNL     1      37.983 -23.420 -10.840  0.00  0.00    -0.088 HD
ENDBRANCH   8   9
BRANCH   8  14
ATOM     13  OXT UNL     1      36.020 -24.168  -9.986  0.00  0.00    -0.253 OA
ATOM     14  C   UNL     1      35.851 -24.496 -11.154  0.00  0.00    +0.293 C 
BRANCH  14  15
ATOM     15  O   UNL     1      34.656 -24.937 -11.625  0.00  0.00    -0.482 OA
ATOM     16  H   UNL     1      34.091 -25.440 -11.072  0.00  0.00    +0.295 HD
ENDBRANCH  14  15
ENDBRANCH   8  14
ENDBRANCH   7   8
ENDBRANCH   6   7
ENDBRANCH   4   6
ENDBRANCH   1   3
BRANCH   1  19
ATOM     17  O   UNL     1      32.682 -23.805 -13.322  0.00  0.00    -0.273 OA
ATOM     18  N   UNL     1      31.621 -23.269 -15.315  0.00  0.00    -0.294 N 
ATOM     19  C   ACE A   1      32.727 -23.545 -14.523  0.00  0.00    +0.242 C 
ATOM     20  H   UNL     1      31.761 -23.073 -16.270  0.00  0.00    +0.150 HD
BRANCH  18  21
ATOM     21  CA  UNL     1      30.274 -23.256 -14.795  0.00  0.00    +0.200 C 
BRANCH  21  23
ATOM     22  OXT UNL     1      28.324 -21.916 -15.237  0.00  0.00    -0.248 OA
ATOM     23  C   UNL     1      29.313 -22.493 -15.670  0.00  0.00    +0.334 C 
BRANCH  23  24
ATOM     24  O   UNL     1      29.649 -22.507 -16.981  0.00  0.00    -0.479 OA
ATOM     25  H   UNL     1      29.837 -21.704 -17.426  0.00  0.00    +0.295 HD
ENDBRANCH  23  24
ENDBRANCH  21  23
ENDBRANCH  18  21
ENDBRANCH   1  19
BRANCH   1  26
ATOM     26  CB  UNL     1      33.813 -23.510 -16.836  0.00  0.00    +0.087 C 
BRANCH  26  27
ATOM     27  SG  UNL     1      34.980 -22.434 -17.734  0.00  0.00    -0.133 S 
BRANCH  27  28
ATOM     28  C   UNL     1      34.104 -22.372 -19.313  0.00  0.00    +0.084 C 
BRANCH  28  29
ATOM     29  C   UNL     1      34.278 -21.048 -20.006  0.00  0.00    -0.011 C 
ATOM     30  C   UNL     1      35.557 -20.588 -20.320  0.00  0.00    -0.002 C 
ATOM     31  C   UNL     1      33.160 -20.282 -20.337  0.00  0.00    -0.002 C 
ATOM     32  C   UNL     1      35.718 -19.361 -20.965  0.00  0.00    +0.024 C 
ATOM     33  C   UNL     1      33.321 -19.056 -20.981  0.00  0.00    +0.024 C 
ATOM     34  C   UNL     1      34.599 -18.595 -21.296  0.00  0.00    +0.143 C 
BRANCH  34  37
ATOM     35  O   UNL     1      35.003 -16.325 -21.266  0.00  0.00    -0.126 OA
ATOM     36  O   UNL     1      34.662 -17.300 -23.203  0.00  0.00    -0.126 OA
ATOM     37  N   UNL     1      34.763 -17.348 -21.953  0.00  0.00    +0.058 N 
ENDBRANCH  34  37
ENDBRANCH  28  29
ENDBRANCH  27  28
ENDBRANCH  26  27
ENDBRANCH   1  26
TORSDOF 16
ENDMDL
MODEL 9
REMARK VINA RESULT:      -9.2      8.222     12.639
REMARK  Name = 97538
REMARK  16 active torsions:
REMARK  status: ('A' for Active; 'I' for Inactive)
REMARK    1  A    between atoms: CA_1  and  N_3
REMARK    2  A    between atoms: CA_1  and  C_19
REMARK    3  A    between atoms: CA_1  and  CB_26
REMARK    4  A    between atoms: C_4  and  C_6
REMARK    5  A    between atoms: C_6  and  C_7
REMARK    6  A    between atoms: C_7  and  CA_8
REMARK    7  A    between atoms: CA_8  and  N_9
REMARK    8  A    between atoms: CA_8  and  C_14
REMARK    9  A    between atoms: C_14  and  O_15
REMARK   10  A    between atoms: N_18  and  CA_21
REMARK   11  A    between atoms: CA_21  and  C_23
REMARK   12  A    between atoms: C_23  and  O_24
REMARK   13  A    between atoms: CB_26  and  SG_27
REMARK   14  A    between atoms: SG_27  and  C_28
REMARK   15  A    between atoms: C_28  and  C_29
REMARK   16  A    between atoms: C_34  and  N_37
REMARK                            x       y       z     vdW  Elec       q    Type
REMARK                         _______ _______ _______ _____ _____    ______ ____
ROOT
ATOM      1  CA  UNL     1      33.228 -13.656 -22.317  0.00  0.00    +0.159 C 
ENDROOT
BRANCH   1   3
ATOM      2  O   UNL     1      32.340 -12.892 -19.679  0.00  0.00    -0.275 OA
ATOM      3  N   UNL     1      32.190 -12.705 -21.990  0.00  0.00    -0.298 N 
ATOM      4  C   UNL     1      31.832 -12.403 -20.684  0.00  0.00    +0.223 C 
ATOM      5  H   UNL     1      31.717 -12.253 -22.725  0.00  0.00    +0.150 HD
BRANCH   4   6
ATOM      6  C   UNL     1      30.709 -11.380 -20.636  0.00  0.00    +0.083 C 
BRANCH   6   7
ATOM      7  C   UNL     1      31.090 -10.133 -19.836  0.00  0.00    -0.001 C 
BRANCH   7   8
ATOM      8  CA  UNL     1      32.338  -9.432 -20.383  0.00  0.00    +0.036 C 
BRANCH   8   9
ATOM      9  N   UNL     1      32.627  -8.246 -19.575  0.00  0.00    +0.389 N 
ATOM     10  H1  UNL     1      32.752  -7.439 -20.187  0.00  0.00    -0.088 HD
ATOM     11  H2  UNL     1      33.481  -8.400 -19.039  0.00  0.00    -0.088 HD
ATOM     12  H3  UNL     1      31.851  -8.071 -18.937  0.00  0.00    -0.088 HD
ENDBRANCH   8   9
BRANCH   8  14
ATOM     13  OXT UNL     1      31.403  -8.008 -22.127  0.00  0.00    -0.253 OA
ATOM     14  C   UNL     1      32.120  -8.948 -21.805  0.00  0.00    +0.293 C 
BRANCH  14  15
ATOM     15  O   UNL     1      32.798  -9.697 -22.714  0.00  0.00    -0.482 OA
ATOM     16  H   UNL     1      33.722  -9.821 -22.622  0.00  0.00    +0.295 HD
ENDBRANCH  14  15
ENDBRANCH   8  14
ENDBRANCH   7   8
ENDBRANCH   6   7
ENDBRANCH   4   6
ENDBRANCH   1   3
BRANCH   1  19
ATOM     17  O   UNL     1      33.868 -14.408 -24.533  0.00  0.00    -0.273 OA
ATOM     18  N   UNL     1      33.713 -12.129 -24.131  0.00  0.00    -0.294 N 
ATOM     19  C   ACE A   1      33.628 -13.468 -23.778  0.00  0.00    +0.242 C 
ATOM     20  H   UNL     1      33.502 -11.447 -23.454  0.00  0.00    +0.150 HD
BRANCH  18  21
ATOM     21  CA  UNL     1      34.100 -11.695 -25.454  0.00  0.00    +0.200 C 
BRANCH  21  23
ATOM     22  OXT UNL     1      35.731 -10.219 -26.432  0.00  0.00    -0.248 OA
ATOM     23  C   UNL     1      35.129 -10.594 -25.433  0.00  0.00    +0.334 C 
BRANCH  23  24
ATOM     24  O   UNL     1      35.324 -10.059 -24.206  0.00  0.00    -0.479 OA
ATOM     25  H   UNL     1      35.837  -9.281 -24.109  0.00  0.00    +0.295 HD
ENDBRANCH  23  24
ENDBRANCH  21  23
ENDBRANCH  18  21
ENDBRANCH   1  19
BRANCH   1  26
ATOM     26  CB  UNL     1      32.829 -15.094 -21.976  0.00  0.00    +0.087 C 
BRANCH  26  27
ATOM     27  SG  UNL     1      34.096 -16.001 -21.029  0.00  0.00    -0.133 S 
BRANCH  27  28
ATOM     28  C   UNL     1      34.228 -17.449 -22.102  0.00  0.00    +0.084 C 
BRANCH  28  29
ATOM     29  C   UNL     1      34.342 -18.728 -21.318  0.00  0.00    -0.011 C 
ATOM     30  C   UNL     1      33.191 -19.386 -20.887  0.00  0.00    -0.002 C 
ATOM     31  C   UNL     1      35.600 -19.256 -21.026  0.00  0.00    -0.002 C 
ATOM     32  C   UNL     1      33.296 -20.573 -20.161  0.00  0.00    +0.024 C 
ATOM     33  C   UNL     1      35.705 -20.443 -20.300  0.00  0.00    +0.024 C 
ATOM     34  C   UNL     1      34.554 -21.101 -19.869  0.00  0.00    +0.143 C 
BRANCH  34  37
ATOM     35  O   UNL     1      33.943 -23.286 -19.456  0.00  0.00    -0.126 OA
ATOM     36  O   UNL     1      35.473 -22.370 -18.177  0.00  0.00    -0.126 OA
ATOM     37  N   UNL     1      34.662 -22.310 -19.132  0.00  0.00    +0.058 N 
ENDBRANCH  34  37
ENDBRANCH  28  29
ENDBRANCH  27  28
ENDBRANCH  26  27
ENDBRANCH   1  26
TORSDOF 16
ENDMDL
