MODEL 1
REMARK VINA RESULT:      -7.7      0.000      0.000
REMARK  Name = 148140
REMARK  0 active torsions:
REMARK  status: ('A' for Active; 'I' for Inactive)
REMARK                            x       y       z     vdW  Elec       q    Type
REMARK                         _______ _______ _______ _____ _____    ______ ____
ROOT
ATOM      1  O   UNL     1      33.689 -15.529 -26.557  0.00  0.00    -0.270 OA
ATOM      2  N   UNL     1      33.378 -14.385 -24.586  0.00  0.00    -0.301 N 
ATOM      3  C   UNL     1      34.490 -16.557 -23.193  0.00  0.00    -0.020 C 
ATOM      4  C   UNL     1      34.390 -15.217 -22.516  0.00  0.00    +0.047 C 
ATOM      5  C   UNL     1      33.267 -14.406 -23.141  0.00  0.00    +0.094 C 
ATOM      6  C   UNL     1      34.179 -16.684 -24.557  0.00  0.00    +0.049 C 
ATOM      7  C   UNL     1      34.951 -17.676 -22.489  0.00  0.00    -0.026 C 
ATOM      8  C   UNL     1      33.727 -15.498 -25.330  0.00  0.00    +0.246 C 
ATOM      9  C   UNL     1      34.316 -17.918 -25.201  0.00  0.00    +0.004 C 
ATOM     10  C   UNL     1      35.081 -18.907 -23.131  0.00  0.00    -0.005 C 
ATOM     11  C   UNL     1      35.330 -17.596 -21.046  0.00  0.00    +0.031 C 
ATOM     12  C   UNL     1      34.762 -19.029 -24.484  0.00  0.00    -0.000 C 
ATOM     13  H   UNL     1      33.196 -13.542 -25.059  0.00  0.00    +0.150 HD
ENDROOT
TORSDOF 0
ENDMDL
MODEL 2
REMARK VINA RESULT:      -7.5      1.253      1.948
REMARK  Name = 148140
REMARK  0 active torsions:
REMARK  status: ('A' for Active; 'I' for Inactive)
REMARK                            x       y       z     vdW  Elec       q    Type
REMARK                         _______ _______ _______ _____ _____    ______ ____
ROOT
ATOM      1  O   UNL     1      34.804 -17.394 -25.978  0.00  0.00    -0.270 OA
ATOM      2  N   UNL     1      33.768 -15.398 -25.492  0.00  0.00    -0.301 N 
ATOM      3  C   UNL     1      34.432 -15.755 -22.786  0.00  0.00    -0.020 C 
ATOM      4  C   UNL     1      34.035 -14.390 -23.276  0.00  0.00    +0.047 C 
ATOM      5  C   UNL     1      33.162 -14.519 -24.512  0.00  0.00    +0.094 C 
ATOM      6  C   UNL     1      34.624 -16.806 -23.699  0.00  0.00    +0.049 C 
ATOM      7  C   UNL     1      34.675 -15.979 -21.425  0.00  0.00    -0.026 C 
ATOM      8  C   UNL     1      34.411 -16.576 -25.151  0.00  0.00    +0.246 C 
ATOM      9  C   UNL     1      35.039 -18.065 -23.251  0.00  0.00    +0.004 C 
ATOM     10  C   UNL     1      35.082 -17.237 -20.979  0.00  0.00    -0.005 C 
ATOM     11  C   UNL     1      34.522 -14.893 -20.410  0.00  0.00    +0.031 C 
ATOM     12  C   UNL     1      35.261 -18.278 -21.890  0.00  0.00    -0.000 C 
ATOM     13  H   UNL     1      33.720 -15.147 -26.442  0.00  0.00    +0.150 HD
ENDROOT
TORSDOF 0
ENDMDL
MODEL 3
REMARK VINA RESULT:      -7.4      1.498      2.013
REMARK  Name = 148140
REMARK  0 active torsions:
REMARK  status: ('A' for Active; 'I' for Inactive)
REMARK                            x       y       z     vdW  Elec       q    Type
REMARK                         _______ _______ _______ _____ _____    ______ ____
ROOT
ATOM      1  O   UNL     1      34.248 -13.846 -23.970  0.00  0.00    -0.270 OA
ATOM      2  N   UNL     1      34.145 -14.430 -21.747  0.00  0.00    -0.301 N 
ATOM      3  C   UNL     1      34.693 -17.091 -22.460  0.00  0.00    -0.020 C 
ATOM      4  C   UNL     1      34.879 -16.655 -21.032  0.00  0.00    +0.047 C 
ATOM      5  C   UNL     1      33.988 -15.459 -20.739  0.00  0.00    +0.094 C 
ATOM      6  C   UNL     1      34.403 -16.145 -23.456  0.00  0.00    +0.049 C 
ATOM      7  C   UNL     1      34.867 -18.433 -22.820  0.00  0.00    -0.026 C 
ATOM      8  C   UNL     1      34.255 -14.710 -23.098  0.00  0.00    +0.246 C 
ATOM      9  C   UNL     1      34.277 -16.541 -24.792  0.00  0.00    +0.004 C 
ATOM     10  C   UNL     1      34.733 -18.828 -24.152  0.00  0.00    -0.005 C 
ATOM     11  C   UNL     1      35.210 -19.481 -21.811  0.00  0.00    +0.031 C 
ATOM     12  C   UNL     1      34.437 -17.884 -25.135  0.00  0.00    -0.000 C 
ATOM     13  H   UNL     1      34.173 -13.490 -21.459  0.00  0.00    +0.150 HD
ENDROOT
TORSDOF 0
ENDMDL
MODEL 4
REMARK VINA RESULT:      -7.4      1.729      3.513
REMARK  Name = 148140
REMARK  0 active torsions:
REMARK  status: ('A' for Active; 'I' for Inactive)
REMARK                            x       y       z     vdW  Elec       q    Type
REMARK                         _______ _______ _______ _____ _____    ______ ____
ROOT
ATOM      1  O   UNL     1      34.656 -16.726 -25.894  0.00  0.00    -0.270 OA
ATOM      2  N   UNL     1      35.463 -17.606 -23.928  0.00  0.00    -0.301 N 
ATOM      3  C   UNL     1      33.839 -15.810 -22.502  0.00  0.00    -0.020 C 
ATOM      4  C   UNL     1      34.406 -17.014 -21.799  0.00  0.00    +0.047 C 
ATOM      5  C   UNL     1      35.674 -17.471 -22.501  0.00  0.00    +0.094 C 
ATOM      6  C   UNL     1      33.987 -15.670 -23.892  0.00  0.00    +0.049 C 
ATOM      7  C   UNL     1      33.107 -14.852 -21.791  0.00  0.00    -0.026 C 
ATOM      8  C   UNL     1      34.725 -16.698 -24.669  0.00  0.00    +0.246 C 
ATOM      9  C   UNL     1      33.420 -14.576 -24.556  0.00  0.00    +0.004 C 
ATOM     10  C   UNL     1      32.549 -13.758 -22.454  0.00  0.00    -0.005 C 
ATOM     11  C   UNL     1      32.887 -14.964 -20.318  0.00  0.00    +0.031 C 
ATOM     12  C   UNL     1      32.707 -13.620 -23.833  0.00  0.00    -0.000 C 
ATOM     13  H   UNL     1      35.861 -18.376 -24.392  0.00  0.00    +0.150 HD
ENDROOT
TORSDOF 0
ENDMDL
MODEL 5
REMARK VINA RESULT:      -7.2      2.561      3.640
REMARK  Name = 148140
REMARK  0 active torsions:
REMARK  status: ('A' for Active; 'I' for Inactive)
REMARK                            x       y       z     vdW  Elec       q    Type
REMARK                         _______ _______ _______ _____ _____    ______ ____
ROOT
ATOM      1  O   UNL     1      35.349 -18.494 -20.933  0.00  0.00    -0.270 OA
ATOM      2  N   UNL     1      34.865 -16.327 -20.332  0.00  0.00    -0.301 N 
ATOM      3  C   UNL     1      34.099 -15.802 -22.984  0.00  0.00    -0.020 C 
ATOM      4  C   UNL     1      33.666 -14.865 -21.889  0.00  0.00    +0.047 C 
ATOM      5  C   UNL     1      34.637 -14.950 -20.724  0.00  0.00    +0.094 C 
ATOM      6  C   UNL     1      34.742 -17.010 -22.666  0.00  0.00    +0.049 C 
ATOM      7  C   UNL     1      33.810 -15.511 -24.323  0.00  0.00    -0.026 C 
ATOM      8  C   UNL     1      35.018 -17.354 -21.247  0.00  0.00    +0.246 C 
ATOM      9  C   UNL     1      35.103 -17.906 -23.678  0.00  0.00    +0.004 C 
ATOM     10  C   UNL     1      34.178 -16.403 -25.331  0.00  0.00    -0.005 C 
ATOM     11  C   UNL     1      33.098 -14.260 -24.721  0.00  0.00    +0.031 C 
ATOM     12  C   UNL     1      34.824 -17.597 -25.010  0.00  0.00    -0.000 C 
ATOM     13  H   UNL     1      34.914 -16.541 -19.373  0.00  0.00    +0.150 HD
ENDROOT
TORSDOF 0
ENDMDL
MODEL 6
REMARK VINA RESULT:      -7.2      2.645      4.534
REMARK  Name = 148140
REMARK  0 active torsions:
REMARK  status: ('A' for Active; 'I' for Inactive)
REMARK                            x       y       z     vdW  Elec       q    Type
REMARK                         _______ _______ _______ _____ _____    ______ ____
ROOT
ATOM      1  O   UNL     1      35.687 -17.907 -20.631  0.00  0.00    -0.270 OA
ATOM      2  N   UNL     1      35.600 -18.301 -22.896  0.00  0.00    -0.301 N 
ATOM      3  C   UNL     1      34.174 -15.903 -23.221  0.00  0.00    -0.020 C 
ATOM      4  C   UNL     1      34.830 -16.541 -24.415  0.00  0.00    +0.047 C 
ATOM      5  C   UNL     1      34.987 -18.034 -24.181  0.00  0.00    +0.094 C 
ATOM      6  C   UNL     1      34.404 -16.413 -21.932  0.00  0.00    +0.049 C 
ATOM      7  C   UNL     1      33.378 -14.761 -23.374  0.00  0.00    -0.026 C 
ATOM      8  C   UNL     1      35.278 -17.599 -21.747  0.00  0.00    +0.246 C 
ATOM      9  C   UNL     1      33.832 -15.793 -20.815  0.00  0.00    +0.004 C 
ATOM     10  C   UNL     1      32.804 -14.149 -22.259  0.00  0.00    -0.005 C 
ATOM     11  C   UNL     1      33.125 -14.152 -24.714  0.00  0.00    +0.031 C 
ATOM     12  C   UNL     1      33.029 -14.665 -20.983  0.00  0.00    -0.000 C 
ATOM     13  H   UNL     1      36.276 -19.014 -22.837  0.00  0.00    +0.150 HD
ENDROOT
TORSDOF 0
ENDMDL
MODEL 7
REMARK VINA RESULT:      -7.2      1.374      2.989
REMARK  Name = 148140
REMARK  0 active torsions:
REMARK  status: ('A' for Active; 'I' for Inactive)
REMARK                            x       y       z     vdW  Elec       q    Type
REMARK                         _______ _______ _______ _____ _____    ______ ____
ROOT
ATOM      1  O   UNL     1      32.790 -14.033 -24.748  0.00  0.00    -0.270 OA
ATOM      2  N   UNL     1      33.903 -15.878 -25.552  0.00  0.00    -0.301 N 
ATOM      3  C   UNL     1      34.519 -16.610 -22.911  0.00  0.00    -0.020 C 
ATOM      4  C   UNL     1      34.635 -17.633 -24.007  0.00  0.00    +0.047 C 
ATOM      5  C   UNL     1      34.868 -16.938 -25.338  0.00  0.00    +0.094 C 
ATOM      6  C   UNL     1      33.958 -15.350 -23.176  0.00  0.00    +0.049 C 
ATOM      7  C   UNL     1      34.912 -16.923 -21.603  0.00  0.00    -0.026 C 
ATOM      8  C   UNL     1      33.497 -15.015 -24.548  0.00  0.00    +0.246 C 
ATOM      9  C   UNL     1      33.805 -14.413 -22.147  0.00  0.00    +0.004 C 
ATOM     10  C   UNL     1      34.766 -15.985 -20.581  0.00  0.00    -0.005 C 
ATOM     11  C   UNL     1      35.484 -18.258 -21.252  0.00  0.00    +0.031 C 
ATOM     12  C   UNL     1      34.215 -14.733 -20.853  0.00  0.00    -0.000 C 
ATOM     13  H   UNL     1      33.518 -15.767 -26.450  0.00  0.00    +0.150 HD
ENDROOT
TORSDOF 0
ENDMDL
MODEL 8
REMARK VINA RESULT:      -7.1      4.971      6.361
REMARK  Name = 148140
REMARK  0 active torsions:
REMARK  status: ('A' for Active; 'I' for Inactive)
REMARK                            x       y       z     vdW  Elec       q    Type
REMARK                         _______ _______ _______ _____ _____    ______ ____
ROOT
ATOM      1  O   UNL     1      34.582 -23.084 -19.018  0.00  0.00    -0.270 OA
ATOM      2  N   UNL     1      32.845 -21.676 -19.553  0.00  0.00    -0.301 N 
ATOM      3  C   UNL     1      34.689 -19.902 -20.712  0.00  0.00    -0.020 C 
ATOM      4  C   UNL     1      33.229 -19.775 -21.049  0.00  0.00    +0.047 C 
ATOM      5  C   UNL     1      32.388 -20.351 -19.923  0.00  0.00    +0.094 C 
ATOM      6  C   UNL     1      35.147 -20.993 -19.954  0.00  0.00    +0.049 C 
ATOM      7  C   UNL     1      35.615 -18.972 -21.201  0.00  0.00    -0.026 C 
ATOM      8  C   UNL     1      34.184 -22.012 -19.462  0.00  0.00    +0.246 C 
ATOM      9  C   UNL     1      36.511 -21.139 -19.679  0.00  0.00    +0.004 C 
ATOM     10  C   UNL     1      36.974 -19.116 -20.920  0.00  0.00    -0.005 C 
ATOM     11  C   UNL     1      35.194 -17.810 -22.042  0.00  0.00    +0.031 C 
ATOM     12  C   UNL     1      37.420 -20.197 -20.159  0.00  0.00    -0.000 C 
ATOM     13  H   UNL     1      32.173 -22.368 -19.359  0.00  0.00    +0.150 HD
ENDROOT
TORSDOF 0
ENDMDL
MODEL 9
REMARK VINA RESULT:      -7.0      3.792      5.064
REMARK  Name = 148140
REMARK  0 active torsions:
REMARK  status: ('A' for Active; 'I' for Inactive)
REMARK                            x       y       z     vdW  Elec       q    Type
REMARK                         _______ _______ _______ _____ _____    ______ ____
ROOT
ATOM      1  O   UNL     1      38.263 -18.708 -21.725  0.00  0.00    -0.270 OA
ATOM      2  N   UNL     1      36.346 -18.099 -22.841  0.00  0.00    -0.301 N 
ATOM      3  C   UNL     1      34.847 -19.633 -21.027  0.00  0.00    -0.020 C 
ATOM      4  C   UNL     1      34.154 -18.595 -21.868  0.00  0.00    +0.047 C 
ATOM      5  C   UNL     1      34.950 -18.346 -23.138  0.00  0.00    +0.094 C 
ATOM      6  C   UNL     1      36.249 -19.725 -21.032  0.00  0.00    +0.049 C 
ATOM      7  C   UNL     1      34.108 -20.474 -20.186  0.00  0.00    -0.026 C 
ATOM      8  C   UNL     1      37.051 -18.812 -21.887  0.00  0.00    +0.246 C 
ATOM      9  C   UNL     1      36.898 -20.657 -20.215  0.00  0.00    +0.004 C 
ATOM     10  C   UNL     1      34.758 -21.408 -19.378  0.00  0.00    -0.005 C 
ATOM     11  C   UNL     1      32.618 -20.400 -20.111  0.00  0.00    +0.031 C 
ATOM     12  C   UNL     1      36.149 -21.501 -19.394  0.00  0.00    -0.000 C 
ATOM     13  H   UNL     1      36.816 -17.393 -23.341  0.00  0.00    +0.150 HD
ENDROOT
TORSDOF 0
ENDMDL
