MODEL 1
REMARK VINA RESULT:      -7.9      0.000      0.000
REMARK  Name = 2472
REMARK  4 active torsions:
REMARK  status: ('A' for Active; 'I' for Inactive)
REMARK    1  A    between atoms: C_12  and  C_27
REMARK    2  A    between atoms: C_19  and  O_23
REMARK    3  A    between atoms: C_20  and  O_25
REMARK    4  A    between atoms: C_27  and  C_28
REMARK                            x       y       z     vdW  Elec       q    Type
REMARK                         _______ _______ _______ _____ _____    ______ ____
ROOT
ATOM      1  O   UNL     1      32.105  -8.437 -23.808  0.00  0.00    -0.275 OA
ATOM      2  N   UNL     1      31.655  -8.896 -21.577  0.00  0.00    -0.278 N 
ATOM      3  N   UNL     1      31.658 -11.805 -21.186  0.00  0.00    -0.232 N 
ATOM      4  N   UNL     1      32.383 -13.348 -22.838  0.00  0.00    -0.332 NA
ATOM      5  N   UNL     1      33.099 -13.577 -20.549  0.00  0.00    -0.313 NA
ATOM      6  N   UNL     1      34.528 -15.333 -19.908  0.00  0.00    -0.332 N 
ATOM      7  C   UNL     1      32.587 -10.132 -19.624  0.00  0.00    +0.044 C 
ATOM      8  C   UNL     1      32.005  -8.821 -20.154  0.00  0.00    +0.095 C 
ATOM      9  C   UNL     1      31.639 -11.322 -19.802  0.00  0.00    +0.105 C 
ATOM     10  C   UNL     1      30.472  -9.695 -21.899  0.00  0.00    +0.116 C 
ATOM     11  C   UNL     1      30.819 -11.156 -22.203  0.00  0.00    +0.125 C 
ATOM     12  C   UNL     1      32.417  -8.363 -22.618  0.00  0.00    +0.226 C 
ATOM     13  C   UNL     1      32.401 -12.941 -21.532  0.00  0.00    +0.204 C 
ATOM     14  C   UNL     1      33.093 -14.438 -23.178  0.00  0.00    +0.134 C 
ATOM     15  C   UNL     1      33.840 -15.152 -22.226  0.00  0.00    +0.074 C 
ATOM     16  C   UNL     1      33.799 -14.665 -20.923  0.00  0.00    +0.193 C 
ATOM     17  C   UNL     1      33.110 -14.895 -24.493  0.00  0.00    +0.127 C 
ATOM     18  C   UNL     1      34.579 -16.291 -22.592  0.00  0.00    +0.046 C 
ATOM     19  C   UNL     1      33.842 -16.027 -24.865  0.00  0.00    +0.157 C 
ATOM     20  C   UNL     1      34.577 -16.726 -23.914  0.00  0.00    +0.169 C 
ATOM     21  H   UNL     1      34.505 -14.997 -18.982  0.00  0.00    +0.145 HD
ATOM     22  H   UNL     1      35.057 -16.134 -20.127  0.00  0.00    +0.145 HD
ENDROOT
BRANCH  19  23
ATOM     23  O   UNL     1      33.826 -16.435 -26.165  0.00  0.00    -0.472 OA
ATOM     24  C   UNL     1      32.681 -16.084 -26.940  0.00  0.00    +0.252 C 
ENDBRANCH  19  23
BRANCH  20  25
ATOM     25  O   UNL     1      35.294 -17.829 -24.263  0.00  0.00    -0.469 OA
ATOM     26  C   UNL     1      34.955 -19.055 -23.615  0.00  0.00    +0.253 C 
ENDBRANCH  20  25
BRANCH  12  27
ATOM     27  C   UNL     1      33.694  -7.660 -22.230  0.00  0.00    +0.085 C 
BRANCH  27  28
ATOM     28  C   UNL     1      34.738  -7.818 -23.321  0.00  0.00    +0.010 C 
ATOM     29  C   UNL     1      34.595  -6.787 -24.432  0.00  0.00    +0.001 C 
ENDBRANCH  27  28
ENDBRANCH  12  27
TORSDOF 4
ENDMDL
MODEL 2
REMARK VINA RESULT:      -7.3      7.922     11.488
REMARK  Name = 2472
REMARK  4 active torsions:
REMARK  status: ('A' for Active; 'I' for Inactive)
REMARK    1  A    between atoms: C_12  and  C_27
REMARK    2  A    between atoms: C_19  and  O_23
REMARK    3  A    between atoms: C_20  and  O_25
REMARK    4  A    between atoms: C_27  and  C_28
REMARK                            x       y       z     vdW  Elec       q    Type
REMARK                         _______ _______ _______ _____ _____    ______ ____
ROOT
ATOM      1  O   UNL     1      36.947 -18.698 -20.663  0.00  0.00    -0.275 OA
ATOM      2  N   UNL     1      34.885 -19.592 -21.249  0.00  0.00    -0.278 N 
ATOM      3  N   UNL     1      34.362 -21.949 -19.579  0.00  0.00    -0.232 N 
ATOM      4  N   UNL     1      35.694 -22.551 -17.709  0.00  0.00    -0.332 NA
ATOM      5  N   UNL     1      33.289 -22.575 -17.559  0.00  0.00    -0.313 NA
ATOM      6  N   UNL     1      32.216 -23.195 -15.559  0.00  0.00    -0.332 N 
ATOM      7  C   UNL     1      32.700 -20.248 -20.248  0.00  0.00    +0.044 C 
ATOM      8  C   UNL     1      33.426 -19.491 -21.360  0.00  0.00    +0.095 C 
ATOM      9  C   UNL     1      33.054 -21.738 -20.208  0.00  0.00    +0.105 C 
ATOM     10  C   UNL     1      35.460 -20.894 -21.591  0.00  0.00    +0.116 C 
ATOM     11  C   UNL     1      35.591 -21.813 -20.373  0.00  0.00    +0.125 C 
ATOM     12  C   UNL     1      35.721 -18.592 -20.747  0.00  0.00    +0.226 C 
ATOM     13  C   UNL     1      34.449 -22.369 -18.246  0.00  0.00    +0.204 C 
ATOM     14  C   UNL     1      35.785 -22.956 -16.430  0.00  0.00    +0.134 C 
ATOM     15  C   UNL     1      34.640 -23.190 -15.651  0.00  0.00    +0.074 C 
ATOM     16  C   UNL     1      33.417 -22.979 -16.282  0.00  0.00    +0.193 C 
ATOM     17  C   UNL     1      37.028 -23.155 -15.833  0.00  0.00    +0.127 C 
ATOM     18  C   UNL     1      34.747 -23.613 -14.315  0.00  0.00    +0.046 C 
ATOM     19  C   UNL     1      37.143 -23.575 -14.505  0.00  0.00    +0.157 C 
ATOM     20  C   UNL     1      36.002 -23.805 -13.745  0.00  0.00    +0.169 C 
ATOM     21  H   UNL     1      31.346 -23.050 -15.996  0.00  0.00    +0.145 HD
ATOM     22  H   UNL     1      32.253 -23.492 -14.621  0.00  0.00    +0.145 HD
ENDROOT
BRANCH  19  23
ATOM     23  O   UNL     1      38.382 -23.758 -13.967  0.00  0.00    -0.472 OA
ATOM     24  C   UNL     1      38.980 -25.041 -14.140  0.00  0.00    +0.252 C 
ENDBRANCH  19  23
BRANCH  20  25
ATOM     25  O   UNL     1      36.099 -24.214 -12.450  0.00  0.00    -0.469 OA
ATOM     26  C   UNL     1      36.538 -23.247 -11.496  0.00  0.00    +0.253 C 
ENDBRANCH  20  25
BRANCH  12  27
ATOM     27  C   UNL     1      35.055 -17.320 -20.291  0.00  0.00    +0.085 C 
BRANCH  27  28
ATOM     28  C   UNL     1      34.948 -16.335 -21.442  0.00  0.00    +0.010 C 
ATOM     29  C   UNL     1      34.327 -15.007 -21.031  0.00  0.00    +0.001 C 
ENDBRANCH  27  28
ENDBRANCH  12  27
TORSDOF 4
ENDMDL
MODEL 3
REMARK VINA RESULT:      -5.5      9.378     13.143
REMARK  Name = 2472
REMARK  4 active torsions:
REMARK  status: ('A' for Active; 'I' for Inactive)
REMARK    1  A    between atoms: C_12  and  C_27
REMARK    2  A    between atoms: C_19  and  O_23
REMARK    3  A    between atoms: C_20  and  O_25
REMARK    4  A    between atoms: C_27  and  C_28
REMARK                            x       y       z     vdW  Elec       q    Type
REMARK                         _______ _______ _______ _____ _____    ______ ____
ROOT
ATOM      1  O   UNL     1      36.870 -21.743 -20.344  0.00  0.00    -0.275 OA
ATOM      2  N   UNL     1      34.553 -21.593 -20.289  0.00  0.00    -0.278 N 
ATOM      3  N   UNL     1      33.550 -23.190 -18.039  0.00  0.00    -0.232 N 
ATOM      4  N   UNL     1      34.955 -24.136 -16.376  0.00  0.00    -0.332 NA
ATOM      5  N   UNL     1      32.933 -22.979 -15.760  0.00  0.00    -0.313 NA
ATOM      6  N   UNL     1      32.313 -22.765 -13.500  0.00  0.00    -0.332 N 
ATOM      7  C   UNL     1      32.684 -20.991 -18.756  0.00  0.00    +0.044 C 
ATOM      8  C   UNL     1      33.319 -20.814 -20.134  0.00  0.00    +0.095 C 
ATOM      9  C   UNL     1      32.348 -22.450 -18.434  0.00  0.00    +0.105 C 
ATOM     10  C   UNL     1      34.378 -23.040 -20.418  0.00  0.00    +0.116 C 
ATOM     11  C   UNL     1      34.434 -23.758 -19.067  0.00  0.00    +0.125 C 
ATOM     12  C   UNL     1      35.845 -21.070 -20.211  0.00  0.00    +0.226 C 
ATOM     13  C   UNL     1      33.819 -23.441 -16.688  0.00  0.00    +0.204 C 
ATOM     14  C   UNL     1      35.219 -24.381 -15.081  0.00  0.00    +0.134 C 
ATOM     15  C   UNL     1      34.358 -23.941 -14.061  0.00  0.00    +0.074 C 
ATOM     16  C   UNL     1      33.227 -23.242 -14.473  0.00  0.00    +0.193 C 
ATOM     17  C   UNL     1      36.361 -25.084 -14.707  0.00  0.00    +0.127 C 
ATOM     18  C   UNL     1      34.644 -24.203 -12.709  0.00  0.00    +0.046 C 
ATOM     19  C   UNL     1      36.653 -25.349 -13.366  0.00  0.00    +0.157 C 
ATOM     20  C   UNL     1      35.794 -24.908 -12.366  0.00  0.00    +0.169 C 
ATOM     21  H   UNL     1      31.509 -22.270 -13.781  0.00  0.00    +0.145 HD
ATOM     22  H   UNL     1      32.480 -22.930 -12.544  0.00  0.00    +0.145 HD
ENDROOT
BRANCH  19  23
ATOM     23  O   UNL     1      37.783 -26.041 -13.051  0.00  0.00    -0.472 OA
ATOM     24  C   UNL     1      39.026 -25.470 -13.455  0.00  0.00    +0.252 C 
ENDBRANCH  19  23
BRANCH  20  25
ATOM     25  O   UNL     1      36.065 -25.158 -11.056  0.00  0.00    -0.469 OA
ATOM     26  C   UNL     1      35.747 -24.129 -10.119  0.00  0.00    +0.253 C 
ENDBRANCH  20  25
BRANCH  12  27
ATOM     27  C   UNL     1      35.961 -19.590 -19.948  0.00  0.00    +0.085 C 
BRANCH  27  28
ATOM     28  C   UNL     1      36.405 -18.862 -21.205  0.00  0.00    +0.010 C 
ATOM     29  C   UNL     1      35.237 -18.411 -22.072  0.00  0.00    +0.001 C 
ENDBRANCH  27  28
ENDBRANCH  12  27
TORSDOF 4
ENDMDL
MODEL 4
REMARK VINA RESULT:      -5.0     12.171     15.409
REMARK  Name = 2472
REMARK  4 active torsions:
REMARK  status: ('A' for Active; 'I' for Inactive)
REMARK    1  A    between atoms: C_12  and  C_27
REMARK    2  A    between atoms: C_19  and  O_23
REMARK    3  A    between atoms: C_20  and  O_25
REMARK    4  A    between atoms: C_27  and  C_28
REMARK                            x       y       z     vdW  Elec       q    Type
REMARK                         _______ _______ _______ _____ _____    ______ ____
ROOT
ATOM      1  O   UNL     1      36.640 -25.686 -11.041  0.00  0.00    -0.275 OA
ATOM      2  N   UNL     1      37.904 -25.621 -12.988  0.00  0.00    -0.278 N 
ATOM      3  N   UNL     1      36.095 -25.397 -15.288  0.00  0.00    -0.232 N 
ATOM      4  N   UNL     1      33.767 -24.974 -15.088  0.00  0.00    -0.332 NA
ATOM      5  N   UNL     1      35.098 -23.771 -16.697  0.00  0.00    -0.313 NA
ATOM      6  N   UNL     1      34.116 -22.157 -18.099  0.00  0.00    -0.332 N 
ATOM      7  C   UNL     1      38.258 -24.233 -15.026  0.00  0.00    +0.044 C 
ATOM      8  C   UNL     1      38.897 -24.976 -13.854  0.00  0.00    +0.095 C 
ATOM      9  C   UNL     1      37.397 -25.139 -15.912  0.00  0.00    +0.105 C 
ATOM     10  C   UNL     1      37.251 -26.807 -13.544  0.00  0.00    +0.116 C 
ATOM     11  C   UNL     1      35.957 -26.465 -14.289  0.00  0.00    +0.125 C 
ATOM     12  C   UNL     1      37.478 -25.127 -11.754  0.00  0.00    +0.226 C 
ATOM     13  C   UNL     1      34.957 -24.694 -15.703  0.00  0.00    +0.204 C 
ATOM     14  C   UNL     1      32.671 -24.304 -15.482  0.00  0.00    +0.134 C 
ATOM     15  C   UNL     1      32.728 -23.337 -16.499  0.00  0.00    +0.074 C 
ATOM     16  C   UNL     1      33.980 -23.118 -17.067  0.00  0.00    +0.193 C 
ATOM     17  C   UNL     1      31.435 -24.550 -14.888  0.00  0.00    +0.127 C 
ATOM     18  C   UNL     1      31.574 -22.642 -16.903  0.00  0.00    +0.046 C 
ATOM     19  C   UNL     1      30.283 -23.864 -15.284  0.00  0.00    +0.157 C 
ATOM     20  C   UNL     1      30.352 -22.908 -16.292  0.00  0.00    +0.169 C 
ATOM     21  H   UNL     1      34.997 -21.995 -18.508  0.00  0.00    +0.145 HD
ATOM     22  H   UNL     1      33.330 -21.651 -18.408  0.00  0.00    +0.145 HD
ENDROOT
BRANCH  19  23
ATOM     23  O   UNL     1      29.097 -24.141 -14.674  0.00  0.00    -0.472 OA
ATOM     24  C   UNL     1      28.717 -25.513 -14.589  0.00  0.00    +0.252 C 
ENDBRANCH  19  23
BRANCH  20  25
ATOM     25  O   UNL     1      29.239 -22.232 -16.687  0.00  0.00    -0.469 OA
ATOM     26  C   UNL     1      28.199 -22.995 -17.298  0.00  0.00    +0.253 C 
ENDBRANCH  20  25
BRANCH  12  27
ATOM     27  C   UNL     1      38.096 -23.832 -11.293  0.00  0.00    +0.085 C 
BRANCH  27  28
ATOM     28  C   UNL     1      37.212 -22.657 -11.675  0.00  0.00    +0.010 C 
ATOM     29  C   UNL     1      35.966 -23.079 -12.442  0.00  0.00    +0.001 C 
ENDBRANCH  27  28
ENDBRANCH  12  27
TORSDOF 4
ENDMDL
MODEL 5
REMARK VINA RESULT:      -4.9      6.502      9.849
REMARK  Name = 2472
REMARK  4 active torsions:
REMARK  status: ('A' for Active; 'I' for Inactive)
REMARK    1  A    between atoms: C_12  and  C_27
REMARK    2  A    between atoms: C_19  and  O_23
REMARK    3  A    between atoms: C_20  and  O_25
REMARK    4  A    between atoms: C_27  and  C_28
REMARK                            x       y       z     vdW  Elec       q    Type
REMARK                         _______ _______ _______ _____ _____    ______ ____
ROOT
ATOM      1  O   UNL     1      35.427 -15.813 -19.862  0.00  0.00    -0.275 OA
ATOM      2  N   UNL     1      34.807 -17.142 -21.663  0.00  0.00    -0.278 N 
ATOM      3  N   UNL     1      35.461 -19.937 -21.053  0.00  0.00    -0.232 N 
ATOM      4  N   UNL     1      36.155 -20.681 -18.908  0.00  0.00    -0.332 NA
ATOM      5  N   UNL     1      34.489 -21.903 -20.150  0.00  0.00    -0.313 NA
ATOM      6  N   UNL     1      33.520 -23.854 -19.262  0.00  0.00    -0.332 N 
ATOM      7  C   UNL     1      33.430 -19.144 -22.214  0.00  0.00    +0.044 C 
ATOM      8  C   UNL     1      33.785 -17.698 -22.558  0.00  0.00    +0.095 C 
ATOM      9  C   UNL     1      34.639 -20.084 -22.258  0.00  0.00    +0.105 C 
ATOM     10  C   UNL     1      36.165 -17.651 -21.856  0.00  0.00    +0.116 C 
ATOM     11  C   UNL     1      36.464 -18.866 -20.973  0.00  0.00    +0.125 C 
ATOM     12  C   UNL     1      34.553 -16.270 -20.603  0.00  0.00    +0.226 C 
ATOM     13  C   UNL     1      35.364 -20.866 -20.010  0.00  0.00    +0.204 C 
ATOM     14  C   UNL     1      36.067 -21.570 -17.903  0.00  0.00    +0.134 C 
ATOM     15  C   UNL     1      35.192 -22.667 -17.967  0.00  0.00    +0.074 C 
ATOM     16  C   UNL     1      34.427 -22.773 -19.125  0.00  0.00    +0.193 C 
ATOM     17  C   UNL     1      36.848 -21.429 -16.759  0.00  0.00    +0.127 C 
ATOM     18  C   UNL     1      35.109 -23.590 -16.910  0.00  0.00    +0.046 C 
ATOM     19  C   UNL     1      36.772 -22.342 -15.703  0.00  0.00    +0.157 C 
ATOM     20  C   UNL     1      35.902 -23.424 -15.778  0.00  0.00    +0.169 C 
ATOM     21  H   UNL     1      32.975 -23.940 -20.078  0.00  0.00    +0.145 HD
ATOM     22  H   UNL     1      33.435 -24.520 -18.542  0.00  0.00    +0.145 HD
ENDROOT
BRANCH  19  23
ATOM     23  O   UNL     1      37.558 -22.162 -14.604  0.00  0.00    -0.472 OA
ATOM     24  C   UNL     1      37.092 -22.718 -13.376  0.00  0.00    +0.252 C 
ENDBRANCH  19  23
BRANCH  20  25
ATOM     25  O   UNL     1      35.817 -24.321 -14.758  0.00  0.00    -0.469 OA
ATOM     26  C   UNL     1      36.044 -25.693 -15.079  0.00  0.00    +0.253 C 
ENDBRANCH  20  25
BRANCH  12  27
ATOM     27  C   UNL     1      33.113 -15.882 -20.376  0.00  0.00    +0.085 C 
BRANCH  27  28
ATOM     28  C   UNL     1      32.901 -14.416 -20.712  0.00  0.00    +0.010 C 
ATOM     29  C   UNL     1      32.575 -14.186 -22.182  0.00  0.00    +0.001 C 
ENDBRANCH  27  28
ENDBRANCH  12  27
TORSDOF 4
ENDMDL
