DA122_polarH
  PyMOL2.3          3D                             0

 27 30  0  0  0  0  0  0  0  0999 V2000
   -1.5180    0.1140   -8.6490 C   0  0  0  0  0  0  0  0  0  0  0  0
   -2.2140   -1.0960   -8.4460 C   0  0  0  0  0  0  0  0  0  0  0  0
   -1.5080   -2.3030   -8.2540 C   0  0  0  0  0  0  0  0  0  0  0  0
   -0.0990   -2.3150   -8.2750 C   0  0  0  0  0  0  0  0  0  0  0  0
    0.5840   -1.1010   -8.4850 C   0  0  0  0  0  0  0  0  0  0  0  0
   -0.1100    0.0980   -8.6660 C   0  0  0  0  0  0  0  0  0  0  0  0
    1.9450   -0.8220   -8.5520 C   0  0  0  0  0  0  0  0  0  0  0  0
    2.1240    0.5470   -8.7830 C   0  0  0  0  0  0  0  0  0  0  0  0
    0.8110    1.2300   -8.8640 C   0  0  0  0  0  0  0  0  0  0  0  0
    3.0400   -1.6900   -8.4030 C   0  0  0  0  0  0  0  0  0  0  0  0
    4.3550   -1.1750   -8.4870 C   0  0  0  0  0  0  0  0  0  0  0  0
    4.5330    0.2130   -8.7120 C   0  0  0  0  0  0  0  0  0  0  0  0
    3.4310    1.0960   -8.8750 C   0  0  0  0  0  0  0  0  0  0  0  0
    3.6520    2.4810   -9.1100 C   0  0  0  0  0  0  0  0  0  0  0  0
    3.1240    3.1190  -10.2590 C   0  0  0  0  0  0  0  0  0  0  0  0
    3.3360    4.4950  -10.4530 C   0  0  0  0  0  0  0  0  0  0  0  0
    4.0620    5.2030   -9.5520 N   0  0  0  0  0  0  0  0  0  0  0  0
    4.6080    4.6290   -8.4490 C   0  0  0  0  0  0  0  0  0  0  0  0
    4.2030    6.2010   -9.7080 H   0  0  0  0  0  0  0  0  0  0  0  0
    4.4180    3.2550   -8.2050 C   0  0  0  0  0  0  0  0  0  0  0  0
    5.4710   -1.9480   -8.3000 N   0  0  0  0  0  0  0  0  0  0  0  0
    5.6430   -3.2730   -8.5880 C   0  0  0  0  0  0  0  0  0  0  0  0
    4.8000   -3.9340   -9.2410 O   0  0  0  0  0  0  0  0  0  0  0  0
    6.2440   -1.4940   -7.9260 H   0  0  0  0  0  0  0  0  0  0  0  0
    6.8710   -3.9600   -8.1320 C   0  0  0  0  0  0  0  0  0  0  0  0
    6.7560   -4.3970   -6.6510 C   0  0  0  0  0  0  0  0  0  0  0  0
    8.2520   -5.1320   -6.0860 Cl  0  0  0  0  0  0  0  0  0  0  0  0
  1  2  4  0  0  0  0
  1  6  4  0  0  0  0
  2  3  4  0  0  0  0
  3  4  4  0  0  0  0
  4  5  4  0  0  0  0
  5  6  4  0  0  0  0
  5  7  4  0  0  0  0
  6  9  4  0  0  0  0
  7  8  4  0  0  0  0
  7 10  4  0  0  0  0
  8  9  4  0  0  0  0
  8 13  4  0  0  0  0
 10 11  4  0  0  0  0
 11 12  4  0  0  0  0
 11 21  1  0  0  0  0
 12 13  4  0  0  0  0
 13 14  1  0  0  0  0
 14 15  4  0  0  0  0
 14 20  4  0  0  0  0
 15 16  4  0  0  0  0
 16 17  4  0  0  0  0
 17 18  4  0  0  0  0
 17 19  1  0  0  0  0
 18 20  4  0  0  0  0
 21 22  1  0  0  0  0
 21 24  1  0  0  0  0
 22 23  2  0  0  0  0
 22 25  1  0  0  0  0
 25 26  1  0  0  0  0
 26 27  1  0  0  0  0
M  END
$$$$
