DA52_polarH
  PyMOL2.3          3D                             0

 25 28  0  0  0  0  0  0  0  0999 V2000
    2.5630    3.4920    6.3000 C   0  0  0  0  0  0  0  0  0  0  0  0
    3.4260    4.5600    6.6200 C   0  0  0  0  0  0  0  0  0  0  0  0
    4.2570    5.1260    5.6290 C   0  0  0  0  0  0  0  0  0  0  0  0
    4.2290    4.6350    4.3070 C   0  0  0  0  0  0  0  0  0  0  0  0
    3.3540    3.5750    3.9990 C   0  0  0  0  0  0  0  0  0  0  0  0
    2.5440    3.0040    4.9810 C   0  0  0  0  0  0  0  0  0  0  0  0
    3.0980    2.9230    2.8000 C   0  0  0  0  0  0  0  0  0  0  0  0
    2.1400    1.9210    3.0150 C   0  0  0  0  0  0  0  0  0  0  0  0
    1.7450    1.8970    4.4420 C   0  0  0  0  0  0  0  0  0  0  0  0
    3.6350    3.1710    1.5270 C   0  0  0  0  0  0  0  0  0  0  0  0
    3.2030    2.3890    0.4320 C   0  0  0  0  0  0  0  0  0  0  0  0
    2.2150    1.3980    0.6510 C   0  0  0  0  0  0  0  0  0  0  0  0
    1.6660    1.1310    1.9350 C   0  0  0  0  0  0  0  0  0  0  0  0
    0.6780    0.1110    2.0780 C   0  0  0  0  0  0  0  0  0  0  0  0
    0.4590   -0.7710    3.1510 C   0  0  0  0  0  0  0  0  0  0  0  0
   -0.5940   -1.6890    3.0020 C   0  0  0  0  0  0  0  0  0  0  0  0
   -1.2740   -1.6150    1.7880 C   0  0  0  0  0  0  0  0  0  0  0  0
   -0.5250   -0.3250    0.8710 S   0  0  0  0  0  0  0  0  0  0  0  0
    3.6590    2.5310   -0.8510 N   0  0  0  0  0  0  0  0  0  0  0  0
    4.8860    2.9470   -1.2830 C   0  0  0  0  0  0  0  0  0  0  0  0
    5.8200    3.2400   -0.4990 O   0  0  0  0  0  0  0  0  0  0  0  0
    3.0390    2.2630   -1.5480 H   0  0  0  0  0  0  0  0  0  0  0  0
    5.1590    3.0130   -2.7340 C   0  0  0  0  0  0  0  0  0  0  0  0
    4.8480    4.4100   -3.3160 C   0  0  0  0  0  0  0  0  0  0  0  0
    5.1560    4.4430   -5.0500 Cl  0  0  0  0  0  0  0  0  0  0  0  0
  1  2  4  0  0  0  0
  1  6  4  0  0  0  0
  2  3  4  0  0  0  0
  3  4  4  0  0  0  0
  4  5  4  0  0  0  0
  5  6  4  0  0  0  0
  5  7  4  0  0  0  0
  6  9  4  0  0  0  0
  7  8  4  0  0  0  0
  7 10  4  0  0  0  0
  8  9  4  0  0  0  0
  8 13  4  0  0  0  0
 10 11  4  0  0  0  0
 11 12  4  0  0  0  0
 11 19  1  0  0  0  0
 12 13  4  0  0  0  0
 13 14  1  0  0  0  0
 14 15  4  0  0  0  0
 14 18  4  0  0  0  0
 15 16  4  0  0  0  0
 16 17  4  0  0  0  0
 17 18  4  0  0  0  0
 19 20  1  0  0  0  0
 19 22  1  0  0  0  0
 20 21  2  0  0  0  0
 20 23  1  0  0  0  0
 23 24  1  0  0  0  0
 24 25  1  0  0  0  0
M  END
$$$$
