DOA122_polarH
  PyMOL2.3          3D                             0

 28 31  0  0  0  0  0  0  0  0999 V2000
   -3.0080   -0.0020   -4.2220 C   0  0  0  0  0  0  0  0  0  0  0  0
   -4.1100   -0.7670   -3.7840 C   0  0  0  0  0  0  0  0  0  0  0  0
   -4.0300   -2.1770   -3.7350 C   0  0  0  0  0  0  0  0  0  0  0  0
   -2.8440   -2.8420   -4.1140 C   0  0  0  0  0  0  0  0  0  0  0  0
   -1.7460   -2.0670   -4.5370 C   0  0  0  0  0  0  0  0  0  0  0  0
   -1.8300   -0.6740   -4.5990 C   0  0  0  0  0  0  0  0  0  0  0  0
   -0.4640   -2.4290   -4.9540 C   0  0  0  0  0  0  0  0  0  0  0  0
    0.2340   -1.2700   -5.3150 C   0  0  0  0  0  0  0  0  0  0  0  0
   -0.6140   -0.1740   -5.0680 C   0  0  0  0  0  0  0  0  0  0  0  0
    0.1350   -3.6960   -5.0210 C   0  0  0  0  0  0  0  0  0  0  0  0
    1.4670   -3.8110   -5.4860 C   0  0  0  0  0  0  0  0  0  0  0  0
    2.1570   -2.6350   -5.8710 C   0  0  0  0  0  0  0  0  0  0  0  0
    1.5610   -1.3470   -5.8060 C   0  0  0  0  0  0  0  0  0  0  0  0
   -0.3500    1.0420   -5.2090 O   0  0  0  0  0  0  0  0  0  0  0  0
    2.2870   -0.2020   -6.2380 C   0  0  0  0  0  0  0  0  0  0  0  0
    1.7840    0.6350   -7.2630 C   0  0  0  0  0  0  0  0  0  0  0  0
    2.5310    1.7520   -7.6780 C   0  0  0  0  0  0  0  0  0  0  0  0
    3.7320    2.0130   -7.1020 N   0  0  0  0  0  0  0  0  0  0  0  0
    4.2530    1.2360   -6.1190 C   0  0  0  0  0  0  0  0  0  0  0  0
    4.2630    2.8240   -7.4200 H   0  0  0  0  0  0  0  0  0  0  0  0
    3.5400    0.1130   -5.6610 C   0  0  0  0  0  0  0  0  0  0  0  0
    2.1460   -4.9970   -5.5620 N   0  0  0  0  0  0  0  0  0  0  0  0
    1.6380   -6.2460   -5.7890 C   0  0  0  0  0  0  0  0  0  0  0  0
    0.4280   -6.4440   -6.0510 O   0  0  0  0  0  0  0  0  0  0  0  0
    3.1100   -4.9400   -5.4660 H   0  0  0  0  0  0  0  0  0  0  0  0
    2.5410   -7.4160   -5.7690 C   0  0  0  0  0  0  0  0  0  0  0  0
    2.7120   -7.9950   -4.3440 C   0  0  0  0  0  0  0  0  0  0  0  0
    3.8680   -9.3230   -4.3320 Cl  0  0  0  0  0  0  0  0  0  0  0  0
  1  2  4  0  0  0  0
  1  6  4  0  0  0  0
  2  3  4  0  0  0  0
  3  4  4  0  0  0  0
  4  5  4  0  0  0  0
  5  6  4  0  0  0  0
  5  7  4  0  0  0  0
  6  9  4  0  0  0  0
  7  8  4  0  0  0  0
  7 10  4  0  0  0  0
  8  9  4  0  0  0  0
  8 13  4  0  0  0  0
  9 14  2  0  0  0  0
 10 11  4  0  0  0  0
 11 12  4  0  0  0  0
 11 22  1  0  0  0  0
 12 13  4  0  0  0  0
 13 15  1  0  0  0  0
 15 16  4  0  0  0  0
 15 21  4  0  0  0  0
 16 17  4  0  0  0  0
 17 18  4  0  0  0  0
 18 19  4  0  0  0  0
 18 20  1  0  0  0  0
 19 21  4  0  0  0  0
 22 23  1  0  0  0  0
 22 25  1  0  0  0  0
 23 24  2  0  0  0  0
 23 26  1  0  0  0  0
 26 27  1  0  0  0  0
 27 28  1  0  0  0  0
M  END
$$$$
