MODEL 1
REMARK VINA RESULT:      -6.9      0.000      0.000
REMARK  4 active torsions:
REMARK  status: ('A' for Active; 'I' for Inactive)
REMARK    1  A    between atoms: C_9  and  N_13 
REMARK       I    between atoms: N_13  and  C_14 
REMARK    2  A    between atoms: C_14  and  C_17 
REMARK    3  A    between atoms: C_17  and  N_18 
REMARK    4  A    between atoms: C_20  and  C_23 
ROOT
HETATM    1  C   UNK     0      -7.355   7.328   1.438  0.00  0.00     0.003 A 
HETATM    2  C   UNK     0      -7.048   8.699   1.447  0.00  0.00     0.000 A 
HETATM    3  C   UNK     0      -7.589   9.545   0.467  0.00  0.00     0.000 A 
HETATM    4  C   UNK     0      -8.438   9.023  -0.524  0.00  0.00     0.003 A 
HETATM    5  C   UNK     0      -8.748   7.642  -0.557  0.00  0.00     0.044 A 
HETATM    6  C   UNK     0      -8.202   6.786   0.441  0.00  0.00     0.044 A 
HETATM    7  C   UNK     0      -9.588   7.068  -1.564  0.00  0.00     0.217 C 
HETATM    8  C   UNK     0      -9.754   5.677  -1.640  0.00  0.00     0.162 C 
HETATM    9  C   UNK     0      -9.206   4.860  -0.710  0.00  0.00     0.146 C 
HETATM   10  C   UNK     0      -8.528   5.399   0.394  0.00  0.00     0.215 C 
HETATM   11  O   UNK     0      -8.246   4.660   1.369  0.00  0.00    -0.285 OA
HETATM   12  O   UNK     0     -10.174   7.813  -2.387  0.00  0.00    -0.285 OA
HETATM   13  N   UNK     0     -10.444   5.168  -2.655  0.00  0.00    -0.143 N 
ENDROOT
BRANCH   9  14
HETATM   14  N   UNK     0      -9.324   3.529  -0.838  0.00  0.00    -0.205 NA
HETATM   15  C   UNK     0      -8.417   2.702  -1.445  0.00  0.00     0.281 C 
HETATM   16  O   UNK     0      -7.407   3.156  -2.036  0.00  0.00    -0.268 OA
BRANCH  15  17
HETATM   17  C   UNK     0      -8.625   1.241  -1.404  0.00  0.00     0.219 C 
BRANCH  17  18
HETATM   18  N   UNK     0      -7.961   0.596  -2.491  0.00  0.00    -0.221 N 
HETATM   19  C   UNK     0      -8.289   0.678  -3.789  0.00  0.00     0.114 A 
HETATM   20  C   UNK     0      -7.391  -0.134  -4.461  0.00  0.00     0.101 A 
HETATM   21  N   UNK     0      -6.569  -0.644  -3.534  0.00  0.00    -0.133 NA
HETATM   22  N   UNK     0      -6.932  -0.188  -2.374  0.00  0.00    -0.064 NA
BRANCH  20  23
HETATM   23  C   UNK     0      -7.312  -0.369  -5.913  0.00  0.00     0.044 A 
HETATM   24  C   UNK     0      -7.370  -1.822  -6.420  0.00  0.00     0.006 A 
HETATM   25  C   UNK     0      -8.574  -0.896  -6.618  0.00  0.00     0.006 A 
ENDBRANCH  20  23
ENDBRANCH  17  18
ENDBRANCH  15  17
ENDBRANCH   9  14
TORSDOF 4
ENDMDL
MODEL 2
REMARK VINA RESULT:      -6.9      2.290      8.372
REMARK  4 active torsions:
REMARK  status: ('A' for Active; 'I' for Inactive)
REMARK    1  A    between atoms: C_9  and  N_13 
REMARK       I    between atoms: N_13  and  C_14 
REMARK    2  A    between atoms: C_14  and  C_17 
REMARK    3  A    between atoms: C_17  and  N_18 
REMARK    4  A    between atoms: C_20  and  C_23 
ROOT
HETATM    1  C   UNK     0      -8.335  -2.146  -1.598  0.00  0.00     0.003 A 
HETATM    2  C   UNK     0      -8.085  -3.414  -2.148  0.00  0.00     0.000 A 
HETATM    3  C   UNK     0      -7.720  -3.534  -3.498  0.00  0.00     0.000 A 
HETATM    4  C   UNK     0      -7.606  -2.385  -4.300  0.00  0.00     0.003 A 
HETATM    5  C   UNK     0      -7.867  -1.100  -3.768  0.00  0.00     0.044 A 
HETATM    6  C   UNK     0      -8.232  -0.981  -2.397  0.00  0.00     0.044 A 
HETATM    7  C   UNK     0      -7.786   0.090  -4.558  0.00  0.00     0.217 C 
HETATM    8  C   UNK     0      -8.189   1.324  -4.026  0.00  0.00     0.162 C 
HETATM    9  C   UNK     0      -8.569   1.431  -2.731  0.00  0.00     0.146 C 
HETATM   10  C   UNK     0      -8.488   0.321  -1.876  0.00  0.00     0.215 C 
HETATM   11  O   UNK     0      -8.599   0.486  -0.636  0.00  0.00    -0.285 OA
HETATM   12  O   UNK     0      -7.356   0.028  -5.736  0.00  0.00    -0.285 OA
HETATM   13  N   UNK     0      -8.211   2.388  -4.821  0.00  0.00    -0.143 N 
ENDROOT
BRANCH   9  14
HETATM   14  N   UNK     0      -9.011   2.608  -2.260  0.00  0.00    -0.205 NA
HETATM   15  C   UNK     0      -8.224   3.657  -1.871  0.00  0.00     0.281 C 
HETATM   16  O   UNK     0      -6.972   3.563  -1.836  0.00  0.00    -0.268 OA
BRANCH  15  17
HETATM   17  C   UNK     0      -8.855   4.935  -1.486  0.00  0.00     0.219 C 
BRANCH  17  18
HETATM   18  N   UNK     0      -8.538   5.280  -0.136  0.00  0.00    -0.221 N 
HETATM   19  C   UNK     0      -8.068   6.459   0.297  0.00  0.00     0.114 A 
HETATM   20  C   UNK     0      -7.880   6.317   1.662  0.00  0.00     0.101 A 
HETATM   21  N   UNK     0      -8.260   5.069   1.971  0.00  0.00    -0.133 NA
HETATM   22  N   UNK     0      -8.649   4.481   0.881  0.00  0.00    -0.064 NA
BRANCH  20  23
HETATM   23  C   UNK     0      -7.399   7.337   2.609  0.00  0.00     0.044 A 
HETATM   24  C   UNK     0      -5.949   7.234   3.116  0.00  0.00     0.006 A 
HETATM   25  C   UNK     0      -6.331   8.325   2.111  0.00  0.00     0.006 A 
ENDBRANCH  20  23
ENDBRANCH  17  18
ENDBRANCH  15  17
ENDBRANCH   9  14
TORSDOF 4
ENDMDL
MODEL 3
REMARK VINA RESULT:      -6.9     13.208     15.678
REMARK  4 active torsions:
REMARK  status: ('A' for Active; 'I' for Inactive)
REMARK    1  A    between atoms: C_9  and  N_13 
REMARK       I    between atoms: N_13  and  C_14 
REMARK    2  A    between atoms: C_14  and  C_17 
REMARK    3  A    between atoms: C_17  and  N_18 
REMARK    4  A    between atoms: C_20  and  C_23 
ROOT
HETATM    1  C   UNK     0      -1.274   2.930 -11.772  0.00  0.00     0.003 A 
HETATM    2  C   UNK     0      -2.190   3.452 -12.701  0.00  0.00     0.000 A 
HETATM    3  C   UNK     0      -2.595   2.675 -13.797  0.00  0.00     0.000 A 
HETATM    4  C   UNK     0      -2.086   1.376 -13.967  0.00  0.00     0.003 A 
HETATM    5  C   UNK     0      -1.151   0.839 -13.049  0.00  0.00     0.044 A 
HETATM    6  C   UNK     0      -0.745   1.627 -11.935  0.00  0.00     0.044 A 
HETATM    7  C   UNK     0      -0.590  -0.468 -13.201  0.00  0.00     0.217 C 
HETATM    8  C   UNK     0       0.435  -0.904 -12.348  0.00  0.00     0.162 C 
HETATM    9  C   UNK     0       0.845  -0.140 -11.308  0.00  0.00     0.146 C 
HETATM   10  C   UNK     0       0.193   1.070 -11.019  0.00  0.00     0.215 C 
HETATM   11  O   UNK     0       0.408   1.641  -9.921  0.00  0.00    -0.285 OA
HETATM   12  O   UNK     0      -1.015  -1.228 -14.106  0.00  0.00    -0.285 OA
HETATM   13  N   UNK     0       1.014  -2.076 -12.587  0.00  0.00    -0.143 N 
ENDROOT
BRANCH   9  14
HETATM   14  N   UNK     0       1.870  -0.547 -10.543  0.00  0.00    -0.205 NA
HETATM   15  C   UNK     0       3.193  -0.285 -10.776  0.00  0.00     0.281 C 
HETATM   16  O   UNK     0       3.572   0.304 -11.818  0.00  0.00    -0.268 OA
BRANCH  15  17
HETATM   17  C   UNK     0       4.202  -0.698  -9.780  0.00  0.00     0.219 C 
BRANCH  17  18
HETATM   18  N   UNK     0       4.720  -1.995 -10.080  0.00  0.00    -0.221 N 
HETATM   19  C   UNK     0       6.004  -2.310 -10.302  0.00  0.00     0.114 A 
HETATM   20  C   UNK     0       6.022  -3.666 -10.582  0.00  0.00     0.101 A 
HETATM   21  N   UNK     0       4.752  -4.089 -10.499  0.00  0.00    -0.133 NA
HETATM   22  N   UNK     0       4.004  -3.072 -10.196  0.00  0.00    -0.064 NA
BRANCH  20  23
HETATM   23  C   UNK     0       7.197  -4.503 -10.874  0.00  0.00     0.044 A 
HETATM   24  C   UNK     0       8.076  -4.962  -9.696  0.00  0.00     0.006 A 
HETATM   25  C   UNK     0       7.163  -5.967 -10.405  0.00  0.00     0.006 A 
ENDBRANCH  20  23
ENDBRANCH  17  18
ENDBRANCH  15  17
ENDBRANCH   9  14
TORSDOF 4
ENDMDL
MODEL 4
REMARK VINA RESULT:      -6.8     13.219     15.602
REMARK  4 active torsions:
REMARK  status: ('A' for Active; 'I' for Inactive)
REMARK    1  A    between atoms: C_9  and  N_13 
REMARK       I    between atoms: N_13  and  C_14 
REMARK    2  A    between atoms: C_14  and  C_17 
REMARK    3  A    between atoms: C_17  and  N_18 
REMARK    4  A    between atoms: C_20  and  C_23 
ROOT
HETATM    1  C   UNK     0      -1.379   0.061 -13.974  0.00  0.00     0.003 A 
HETATM    2  C   UNK     0      -2.486   0.920 -13.882  0.00  0.00     0.000 A 
HETATM    3  C   UNK     0      -2.599   1.805 -12.798  0.00  0.00     0.000 A 
HETATM    4  C   UNK     0      -1.605   1.831 -11.805  0.00  0.00     0.003 A 
HETATM    5  C   UNK     0      -0.489   0.963 -11.874  0.00  0.00     0.044 A 
HETATM    6  C   UNK     0      -0.374   0.070 -12.977  0.00  0.00     0.044 A 
HETATM    7  C   UNK     0       0.531   0.943 -10.870  0.00  0.00     0.217 C 
HETATM    8  C   UNK     0       1.543  -0.029 -10.907  0.00  0.00     0.162 C 
HETATM    9  C   UNK     0       1.631  -0.901 -11.939  0.00  0.00     0.146 C 
HETATM   10  C   UNK     0       0.758  -0.794 -13.032  0.00  0.00     0.215 C 
HETATM   11  O   UNK     0       1.003  -1.433 -14.085  0.00  0.00    -0.285 OA
HETATM   12  O   UNK     0       0.517   1.795  -9.949  0.00  0.00    -0.285 OA
HETATM   13  N   UNK     0       2.406  -0.094  -9.899  0.00  0.00    -0.143 N 
ENDROOT
BRANCH   9  14
HETATM   14  N   UNK     0       2.568  -1.862 -11.922  0.00  0.00    -0.205 NA
HETATM   15  C   UNK     0       2.385  -3.146 -11.485  0.00  0.00     0.281 C 
HETATM   16  O   UNK     0       1.307  -3.513 -10.957  0.00  0.00    -0.268 OA
BRANCH  15  17
HETATM   17  C   UNK     0       3.477  -4.128 -11.639  0.00  0.00     0.219 C 
BRANCH  17  18
HETATM   18  N   UNK     0       3.561  -4.987 -10.501  0.00  0.00    -0.221 N 
HETATM   19  C   UNK     0       3.619  -6.327 -10.514  0.00  0.00     0.114 A 
HETATM   20  C   UNK     0       3.656  -6.721  -9.187  0.00  0.00     0.101 A 
HETATM   21  N   UNK     0       3.633  -5.598  -8.455  0.00  0.00    -0.133 NA
HETATM   22  N   UNK     0       3.580  -4.585  -9.266  0.00  0.00    -0.064 NA
BRANCH  20  23
HETATM   23  C   UNK     0       3.747  -8.094  -8.664  0.00  0.00     0.044 A 
HETATM   24  C   UNK     0       2.445  -8.805  -8.252  0.00  0.00     0.006 A 
HETATM   25  C   UNK     0       3.172  -9.226  -9.533  0.00  0.00     0.006 A 
ENDBRANCH  20  23
ENDBRANCH  17  18
ENDBRANCH  15  17
ENDBRANCH   9  14
TORSDOF 4
ENDMDL
MODEL 5
REMARK VINA RESULT:      -6.8      2.490      8.421
REMARK  4 active torsions:
REMARK  status: ('A' for Active; 'I' for Inactive)
REMARK    1  A    between atoms: C_9  and  N_13 
REMARK       I    between atoms: N_13  and  C_14 
REMARK    2  A    between atoms: C_14  and  C_17 
REMARK    3  A    between atoms: C_17  and  N_18 
REMARK    4  A    between atoms: C_20  and  C_23 
ROOT
HETATM    1  C   UNK     0      -7.837   0.541  -5.657  0.00  0.00     0.003 A 
HETATM    2  C   UNK     0      -7.358  -0.648  -6.232  0.00  0.00     0.000 A 
HETATM    3  C   UNK     0      -7.207  -1.798  -5.441  0.00  0.00     0.000 A 
HETATM    4  C   UNK     0      -7.535  -1.760  -4.074  0.00  0.00     0.003 A 
HETATM    5  C   UNK     0      -8.007  -0.567  -3.475  0.00  0.00     0.044 A 
HETATM    6  C   UNK     0      -8.163   0.596  -4.281  0.00  0.00     0.044 A 
HETATM    7  C   UNK     0      -8.327  -0.482  -2.083  0.00  0.00     0.217 C 
HETATM    8  C   UNK     0      -8.655   0.754  -1.506  0.00  0.00     0.162 C 
HETATM    9  C   UNK     0      -8.771   1.868  -2.267  0.00  0.00     0.146 C 
HETATM   10  C   UNK     0      -8.642   1.787  -3.662  0.00  0.00     0.215 C 
HETATM   11  O   UNK     0      -8.995   2.760  -4.373  0.00  0.00    -0.285 OA
HETATM   12  O   UNK     0      -8.308  -1.518  -1.374  0.00  0.00    -0.285 OA
HETATM   13  N   UNK     0      -8.834   0.820  -0.190  0.00  0.00    -0.143 N 
ENDROOT
BRANCH   9  14
HETATM   14  N   UNK     0      -9.023   3.051  -1.685  0.00  0.00    -0.205 NA
HETATM   15  C   UNK     0      -8.112   4.052  -1.485  0.00  0.00     0.281 C 
HETATM   16  O   UNK     0      -6.896   3.898  -1.758  0.00  0.00    -0.268 OA
BRANCH  15  17
HETATM   17  C   UNK     0      -8.563   5.347  -0.939  0.00  0.00     0.219 C 
BRANCH  17  18
HETATM   18  N   UNK     0      -8.108   5.527   0.403  0.00  0.00    -0.221 N 
HETATM   19  C   UNK     0      -8.818   5.318   1.521  0.00  0.00     0.114 A 
HETATM   20  C   UNK     0      -7.980   5.652   2.573  0.00  0.00     0.101 A 
HETATM   21  N   UNK     0      -6.815   6.028   2.027  0.00  0.00    -0.133 NA
HETATM   22  N   UNK     0      -6.923   5.938   0.737  0.00  0.00    -0.064 NA
BRANCH  20  23
HETATM   23  C   UNK     0      -8.279   5.576   4.013  0.00  0.00     0.044 A 
HETATM   24  C   UNK     0      -8.553   6.888   4.770  0.00  0.00     0.006 A 
HETATM   25  C   UNK     0      -9.707   5.929   4.463  0.00  0.00     0.006 A 
ENDBRANCH  20  23
ENDBRANCH  17  18
ENDBRANCH  15  17
ENDBRANCH   9  14
TORSDOF 4
ENDMDL
MODEL 6
REMARK VINA RESULT:      -6.8     13.363     17.672
REMARK  4 active torsions:
REMARK  status: ('A' for Active; 'I' for Inactive)
REMARK    1  A    between atoms: C_9  and  N_13 
REMARK       I    between atoms: N_13  and  C_14 
REMARK    2  A    between atoms: C_14  and  C_17 
REMARK    3  A    between atoms: C_17  and  N_18 
REMARK    4  A    between atoms: C_20  and  C_23 
ROOT
HETATM    1  C   UNK     0       3.522  -6.779  -9.666  0.00  0.00     0.003 A 
HETATM    2  C   UNK     0       4.038  -7.999  -9.199  0.00  0.00     0.000 A 
HETATM    3  C   UNK     0       5.401  -8.108  -8.881  0.00  0.00     0.000 A 
HETATM    4  C   UNK     0       6.249  -6.997  -9.029  0.00  0.00     0.003 A 
HETATM    5  C   UNK     0       5.750  -5.763  -9.511  0.00  0.00     0.044 A 
HETATM    6  C   UNK     0       4.367  -5.654  -9.829  0.00  0.00     0.044 A 
HETATM    7  C   UNK     0       6.587  -4.618  -9.700  0.00  0.00     0.217 C 
HETATM    8  C   UNK     0       6.078  -3.462 -10.312  0.00  0.00     0.162 C 
HETATM    9  C   UNK     0       4.769  -3.370 -10.646  0.00  0.00     0.146 C 
HETATM   10  C   UNK     0       3.880  -4.404 -10.310  0.00  0.00     0.215 C 
HETATM   11  O   UNK     0       2.643  -4.207 -10.394  0.00  0.00    -0.285 OA
HETATM   12  O   UNK     0       7.783  -4.650  -9.321  0.00  0.00    -0.285 OA
HETATM   13  N   UNK     0       6.909  -2.459 -10.578  0.00  0.00    -0.143 N 
ENDROOT
BRANCH   9  14
HETATM   14  N   UNK     0       4.318  -2.281 -11.287  0.00  0.00    -0.205 NA
HETATM   15  C   UNK     0       3.843  -1.145 -10.690  0.00  0.00     0.281 C 
HETATM   16  O   UNK     0       3.699  -1.067  -9.445  0.00  0.00    -0.268 OA
BRANCH  15  17
HETATM   17  C   UNK     0       3.492   0.022 -11.525  0.00  0.00     0.219 C 
BRANCH  17  18
HETATM   18  N   UNK     0       2.187   0.508 -11.207  0.00  0.00    -0.221 N 
HETATM   19  C   UNK     0       1.148   0.617 -12.048  0.00  0.00     0.114 A 
HETATM   20  C   UNK     0       0.113   1.164 -11.307  0.00  0.00     0.101 A 
HETATM   21  N   UNK     0       0.584   1.338 -10.064  0.00  0.00    -0.133 NA
HETATM   22  N   UNK     0       1.818   0.935 -10.037  0.00  0.00    -0.064 NA
BRANCH  20  23
HETATM   23  C   UNK     0      -1.254   1.462 -11.766  0.00  0.00     0.044 A 
HETATM   24  C   UNK     0      -1.581   2.906 -12.190  0.00  0.00     0.006 A 
HETATM   25  C   UNK     0      -1.446   1.810 -13.252  0.00  0.00     0.006 A 
ENDBRANCH  20  23
ENDBRANCH  17  18
ENDBRANCH  15  17
ENDBRANCH   9  14
TORSDOF 4
ENDMDL
MODEL 7
REMARK VINA RESULT:      -6.7     13.509     15.803
REMARK  4 active torsions:
REMARK  status: ('A' for Active; 'I' for Inactive)
REMARK    1  A    between atoms: C_9  and  N_13 
REMARK       I    between atoms: N_13  and  C_14 
REMARK    2  A    between atoms: C_14  and  C_17 
REMARK    3  A    between atoms: C_17  and  N_18 
REMARK    4  A    between atoms: C_20  and  C_23 
ROOT
HETATM    1  C   UNK     0      -0.186   1.805 -10.835  0.00  0.00     0.003 A 
HETATM    2  C   UNK     0      -1.042   2.695 -11.504  0.00  0.00     0.000 A 
HETATM    3  C   UNK     0      -1.593   2.340 -12.745  0.00  0.00     0.000 A 
HETATM    4  C   UNK     0      -1.289   1.093 -13.319  0.00  0.00     0.003 A 
HETATM    5  C   UNK     0      -0.417   0.188 -12.665  0.00  0.00     0.044 A 
HETATM    6  C   UNK     0       0.137   0.550 -11.405  0.00  0.00     0.044 A 
HETATM    7  C   UNK     0      -0.064  -1.079 -13.229  0.00  0.00     0.217 C 
HETATM    8  C   UNK     0       0.911  -1.881 -12.615  0.00  0.00     0.162 C 
HETATM    9  C   UNK     0       1.463  -1.520 -11.432  0.00  0.00     0.146 C 
HETATM   10  C   UNK     0       1.009  -0.374 -10.760  0.00  0.00     0.215 C 
HETATM   11  O   UNK     0       1.341  -0.188  -9.563  0.00  0.00    -0.285 OA
HETATM   12  O   UNK     0      -0.624  -1.473 -14.281  0.00  0.00    -0.285 OA
HETATM   13  N   UNK     0       1.300  -2.996 -13.224  0.00  0.00    -0.143 N 
ENDROOT
BRANCH   9  14
HETATM   14  N   UNK     0       2.438  -2.269 -10.894  0.00  0.00    -0.205 NA
HETATM   15  C   UNK     0       3.782  -2.070 -11.064  0.00  0.00     0.281 C 
HETATM   16  O   UNK     0       4.222  -1.191 -11.845  0.00  0.00    -0.268 OA
BRANCH  15  17
HETATM   17  C   UNK     0       4.740  -2.905 -10.312  0.00  0.00     0.219 C 
BRANCH  17  18
HETATM   18  N   UNK     0       4.510  -4.294 -10.550  0.00  0.00    -0.221 N 
HETATM   19  C   UNK     0       3.910  -5.158  -9.719  0.00  0.00     0.114 A 
HETATM   20  C   UNK     0       3.944  -6.388 -10.356  0.00  0.00     0.101 A 
HETATM   21  N   UNK     0       4.547  -6.189 -11.537  0.00  0.00    -0.133 NA
HETATM   22  N   UNK     0       4.868  -4.934 -11.623  0.00  0.00    -0.064 NA
BRANCH  20  23
HETATM   23  C   UNK     0       3.393  -7.663  -9.868  0.00  0.00     0.044 A 
HETATM   24  C   UNK     0       4.151  -8.404  -8.751  0.00  0.00     0.006 A 
HETATM   25  C   UNK     0       2.830  -7.694  -8.437  0.00  0.00     0.006 A 
ENDBRANCH  20  23
ENDBRANCH  17  18
ENDBRANCH  15  17
ENDBRANCH   9  14
TORSDOF 4
ENDMDL
MODEL 8
REMARK VINA RESULT:      -6.7     14.115     18.334
REMARK  4 active torsions:
REMARK  status: ('A' for Active; 'I' for Inactive)
REMARK    1  A    between atoms: C_9  and  N_13 
REMARK       I    between atoms: N_13  and  C_14 
REMARK    2  A    between atoms: C_14  and  C_17 
REMARK    3  A    between atoms: C_17  and  N_18 
REMARK    4  A    between atoms: C_20  and  C_23 
ROOT
HETATM    1  C   UNK     0       2.758  -7.770  -8.479  0.00  0.00     0.003 A 
HETATM    2  C   UNK     0       2.790  -9.116  -8.078  0.00  0.00     0.000 A 
HETATM    3  C   UNK     0       4.021  -9.750  -7.846  0.00  0.00     0.000 A 
HETATM    4  C   UNK     0       5.221  -9.038  -8.015  0.00  0.00     0.003 A 
HETATM    5  C   UNK     0       5.210  -7.686  -8.432  0.00  0.00     0.044 A 
HETATM    6  C   UNK     0       3.960  -7.044  -8.662  0.00  0.00     0.044 A 
HETATM    7  C   UNK     0       6.411  -6.936  -8.639  0.00  0.00     0.217 C 
HETATM    8  C   UNK     0       6.355  -5.645  -9.186  0.00  0.00     0.162 C 
HETATM    9  C   UNK     0       5.166  -5.047  -9.437  0.00  0.00     0.146 C 
HETATM   10  C   UNK     0       3.966  -5.681  -9.078  0.00  0.00     0.215 C 
HETATM   11  O   UNK     0       2.896  -5.025  -9.081  0.00  0.00    -0.285 OA
HETATM   12  O   UNK     0       7.520  -7.438  -8.334  0.00  0.00    -0.285 OA
HETATM   13  N   UNK     0       7.492  -5.021  -9.474  0.00  0.00    -0.143 N 
ENDROOT
BRANCH   9  14
HETATM   14  N   UNK     0       5.136  -3.838 -10.019  0.00  0.00    -0.205 NA
HETATM   15  C   UNK     0       4.765  -3.585 -11.312  0.00  0.00     0.281 C 
HETATM   16  O   UNK     0       4.503  -4.514 -12.115  0.00  0.00    -0.268 OA
BRANCH  15  17
HETATM   17  C   UNK     0       4.667  -2.187 -11.779  0.00  0.00     0.219 C 
BRANCH  17  18
HETATM   18  N   UNK     0       3.602  -1.499 -11.121  0.00  0.00    -0.221 N 
HETATM   19  C   UNK     0       2.412  -1.178 -11.650  0.00  0.00     0.114 A 
HETATM   20  C   UNK     0       1.727  -0.495 -10.659  0.00  0.00     0.101 A 
HETATM   21  N   UNK     0       2.536  -0.457  -9.591  0.00  0.00    -0.133 NA
HETATM   22  N   UNK     0       3.641  -1.066  -9.897  0.00  0.00    -0.064 NA
BRANCH  20  23
HETATM   23  C   UNK     0       0.361   0.052 -10.732  0.00  0.00     0.044 A 
HETATM   24  C   UNK     0       0.190   1.536 -11.107  0.00  0.00     0.006 A 
HETATM   25  C   UNK     0      -0.176   0.445 -12.119  0.00  0.00     0.006 A 
ENDBRANCH  20  23
ENDBRANCH  17  18
ENDBRANCH  15  17
ENDBRANCH   9  14
TORSDOF 4
ENDMDL
MODEL 9
REMARK VINA RESULT:      -6.7      1.521      2.623
REMARK  4 active torsions:
REMARK  status: ('A' for Active; 'I' for Inactive)
REMARK    1  A    between atoms: C_9  and  N_13 
REMARK       I    between atoms: N_13  and  C_14 
REMARK    2  A    between atoms: C_14  and  C_17 
REMARK    3  A    between atoms: C_17  and  N_18 
REMARK    4  A    between atoms: C_20  and  C_23 
ROOT
HETATM    1  C   UNK     0      -9.872   8.985  -2.115  0.00  0.00     0.003 A 
HETATM    2  C   UNK     0      -9.695  10.373  -1.988  0.00  0.00     0.000 A 
HETATM    3  C   UNK     0      -8.804  10.881  -1.031  0.00  0.00     0.000 A 
HETATM    4  C   UNK     0      -8.087  10.003  -0.199  0.00  0.00     0.003 A 
HETATM    5  C   UNK     0      -8.262   8.602  -0.304  0.00  0.00     0.044 A 
HETATM    6  C   UNK     0      -9.164   8.088  -1.279  0.00  0.00     0.044 A 
HETATM    7  C   UNK     0      -7.571   7.677   0.541  0.00  0.00     0.217 C 
HETATM    8  C   UNK     0      -7.880   6.309   0.496  0.00  0.00     0.162 C 
HETATM    9  C   UNK     0      -8.763   5.825  -0.408  0.00  0.00     0.146 C 
HETATM   10  C   UNK     0      -9.325   6.676  -1.373  0.00  0.00     0.215 C 
HETATM   11  O   UNK     0      -9.938   6.182  -2.352  0.00  0.00    -0.285 OA
HETATM   12  O   UNK     0      -6.687   8.092   1.329  0.00  0.00    -0.285 OA
HETATM   13  N   UNK     0      -7.304   5.493   1.373  0.00  0.00    -0.143 N 
ENDROOT
BRANCH   9  14
HETATM   14  N   UNK     0      -9.092   4.524  -0.391  0.00  0.00    -0.205 NA
HETATM   15  C   UNK     0      -8.403   3.519  -1.016  0.00  0.00     0.281 C 
HETATM   16  O   UNK     0      -7.422   3.760  -1.761  0.00  0.00    -0.268 OA
BRANCH  15  17
HETATM   17  C   UNK     0      -8.817   2.117  -0.809  0.00  0.00     0.219 C 
BRANCH  17  18
HETATM   18  N   UNK     0      -8.373   1.286  -1.882  0.00  0.00    -0.221 N 
HETATM   19  C   UNK     0      -8.913   1.208  -3.107  0.00  0.00     0.114 A 
HETATM   20  C   UNK     0      -8.176   0.255  -3.790  0.00  0.00     0.101 A 
HETATM   21  N   UNK     0      -7.230  -0.174  -2.942  0.00  0.00    -0.133 NA
HETATM   22  N   UNK     0      -7.372   0.461  -1.819  0.00  0.00    -0.064 NA
BRANCH  20  23
HETATM   23  C   UNK     0      -8.354  -0.184  -5.184  0.00  0.00     0.044 A 
HETATM   24  C   UNK     0      -7.804   0.716  -6.306  0.00  0.00     0.006 A 
HETATM   25  C   UNK     0      -7.097  -0.600  -5.966  0.00  0.00     0.006 A 
ENDBRANCH  20  23
ENDBRANCH  17  18
ENDBRANCH  15  17
ENDBRANCH   9  14
TORSDOF 4
ENDMDL
