MODEL 1
REMARK VINA RESULT:      -6.4      0.000      0.000
REMARK  6 active torsions:
REMARK  status: ('A' for Active; 'I' for Inactive)
REMARK    1  A    between atoms: C_9  and  N_13 
REMARK       I    between atoms: N_13  and  C_14 
REMARK    2  A    between atoms: C_14  and  C_17 
REMARK    3  A    between atoms: C_17  and  N_18 
REMARK    4  A    between atoms: C_20  and  C_23 
REMARK    5  A    between atoms: C_23  and  C_24 
REMARK    6  A    between atoms: C_24  and  C_25 
ROOT
HETATM    1  N   UNK     0      -8.186  -1.986  -1.837  0.00  0.00    -0.205 NA
HETATM    2  C   UNK     0      -8.273  -3.328  -2.074  0.00  0.00     0.281 C 
HETATM    3  O   UNK     0      -7.833  -4.072  -1.169  0.00  0.00    -0.268 OA
ENDROOT
BRANCH   2   4
HETATM    4  C   UNK     0      -8.891  -3.979  -3.256  0.00  0.00     0.219 C 
BRANCH   4   5
HETATM    5  N   UNK     0      -8.095  -3.772  -4.426  0.00  0.00    -0.221 N 
HETATM    6  C   UNK     0      -8.501  -3.240  -5.594  0.00  0.00     0.114 A 
HETATM    7  C   UNK     0      -7.383  -3.215  -6.415  0.00  0.00     0.101 A 
HETATM    8  N   UNK     0      -6.382  -3.743  -5.696  0.00  0.00    -0.133 NA
HETATM    9  N   UNK     0      -6.833  -4.059  -4.522  0.00  0.00    -0.064 NA
BRANCH   7  10
HETATM   10  C   UNK     0      -7.271  -2.711  -7.800  0.00  0.00     0.054 C 
BRANCH  10  11
HETATM   11  C   UNK     0      -8.485  -3.120  -8.677  0.00  0.00     0.033 C 
BRANCH  11  12
HETATM   12  C   UNK     0      -9.411  -1.977  -8.912  0.00  0.00    -0.022 A 
HETATM   13  C   UNK     0      -9.084  -0.958  -9.840  0.00  0.00    -0.004 A 
HETATM   14  C   UNK     0      -9.970   0.109 -10.079  0.00  0.00    -0.000 A 
HETATM   15  C   UNK     0     -11.194   0.177  -9.390  0.00  0.00     0.000 A 
HETATM   16  C   UNK     0     -11.529  -0.822  -8.457  0.00  0.00    -0.000 A 
HETATM   17  C   UNK     0     -10.643  -1.891  -8.220  0.00  0.00    -0.004 A 
ENDBRANCH  11  12
ENDBRANCH  10  11
ENDBRANCH   7  10
ENDBRANCH   4   5
ENDBRANCH   2   4
BRANCH   1  18
HETATM   18  C   UNK     0      -8.622  -1.004  -2.637  0.00  0.00     0.146 C 
HETATM   19  C   UNK     0      -9.881  -0.531  -2.480  0.00  0.00     0.162 C 
HETATM   20  C   UNK     0     -10.410   0.420  -3.361  0.00  0.00     0.217 C 
HETATM   21  N   UNK     0     -10.663  -0.989  -1.510  0.00  0.00    -0.143 N 
HETATM   22  C   UNK     0      -9.691   0.770  -4.543  0.00  0.00     0.044 A 
HETATM   23  O   UNK     0     -11.523   0.949  -3.121  0.00  0.00    -0.285 OA
HETATM   24  C   UNK     0     -10.281   1.519  -5.589  0.00  0.00     0.003 A 
HETATM   25  C   UNK     0      -8.347   0.321  -4.682  0.00  0.00     0.044 A 
HETATM   26  C   UNK     0      -9.553   1.815  -6.755  0.00  0.00     0.000 A 
HETATM   27  C   UNK     0      -8.221   1.387  -6.883  0.00  0.00     0.000 A 
HETATM   28  C   UNK     0      -7.618   0.651  -5.850  0.00  0.00     0.003 A 
HETATM   29  C   UNK     0      -7.792  -0.486  -3.645  0.00  0.00     0.215 C 
HETATM   30  O   UNK     0      -6.563  -0.744  -3.639  0.00  0.00    -0.285 OA
ENDBRANCH   1  18
TORSDOF 6
ENDMDL
MODEL 2
REMARK VINA RESULT:      -6.2      2.625      5.761
REMARK  6 active torsions:
REMARK  status: ('A' for Active; 'I' for Inactive)
REMARK    1  A    between atoms: C_9  and  N_13 
REMARK       I    between atoms: N_13  and  C_14 
REMARK    2  A    between atoms: C_14  and  C_17 
REMARK    3  A    between atoms: C_17  and  N_18 
REMARK    4  A    between atoms: C_20  and  C_23 
REMARK    5  A    between atoms: C_23  and  C_24 
REMARK    6  A    between atoms: C_24  and  C_25 
ROOT
HETATM    1  N   UNK     0      -7.328   1.511  -5.098  0.00  0.00    -0.205 NA
HETATM    2  C   UNK     0      -8.117   2.123  -4.167  0.00  0.00     0.281 C 
HETATM    3  O   UNK     0      -7.702   3.223  -3.738  0.00  0.00    -0.268 OA
ENDROOT
BRANCH   2   4
HETATM    4  C   UNK     0      -9.434   1.648  -3.673  0.00  0.00     0.219 C 
BRANCH   4   5
HETATM    5  N   UNK     0      -9.271   0.574  -2.741  0.00  0.00    -0.221 N 
HETATM    6  C   UNK     0     -10.057  -0.511  -2.616  0.00  0.00     0.114 A 
HETATM    7  C   UNK     0      -9.494  -1.279  -1.609  0.00  0.00     0.101 A 
HETATM    8  N   UNK     0      -8.415  -0.605  -1.184  0.00  0.00    -0.133 NA
HETATM    9  N   UNK     0      -8.308   0.486  -1.877  0.00  0.00    -0.064 NA
BRANCH   7  10
HETATM   10  C   UNK     0      -9.950  -2.584  -1.084  0.00  0.00     0.054 C 
BRANCH  10  11
HETATM   11  C   UNK     0      -9.269  -3.780  -1.804  0.00  0.00     0.033 C 
BRANCH  11  12
HETATM   12  C   UNK     0     -10.202  -4.470  -2.738  0.00  0.00    -0.022 A 
HETATM   13  C   UNK     0     -10.284  -5.883  -2.770  0.00  0.00    -0.004 A 
HETATM   14  C   UNK     0     -11.183  -6.533  -3.637  0.00  0.00    -0.000 A 
HETATM   15  C   UNK     0     -12.010  -5.780  -4.489  0.00  0.00     0.000 A 
HETATM   16  C   UNK     0     -11.933  -4.375  -4.477  0.00  0.00    -0.000 A 
HETATM   17  C   UNK     0     -11.035  -3.725  -3.608  0.00  0.00    -0.004 A 
ENDBRANCH  11  12
ENDBRANCH  10  11
ENDBRANCH   7  10
ENDBRANCH   4   5
ENDBRANCH   2   4
BRANCH   1  18
HETATM   18  C   UNK     0      -7.582   0.354  -5.723  0.00  0.00     0.146 C 
HETATM   19  C   UNK     0      -8.311   0.363  -6.865  0.00  0.00     0.162 C 
HETATM   20  C   UNK     0      -8.686  -0.831  -7.492  0.00  0.00     0.217 C 
HETATM   21  N   UNK     0      -8.724   1.507  -7.398  0.00  0.00    -0.143 N 
HETATM   22  C   UNK     0      -8.459  -2.078  -6.837  0.00  0.00     0.044 A 
HETATM   23  O   UNK     0      -9.239  -0.802  -8.618  0.00  0.00    -0.285 OA
HETATM   24  C   UNK     0      -9.042  -3.285  -7.293  0.00  0.00     0.003 A 
HETATM   25  C   UNK     0      -7.647  -2.097  -5.669  0.00  0.00     0.044 A 
HETATM   26  C   UNK     0      -8.825  -4.490  -6.602  0.00  0.00     0.000 A 
HETATM   27  C   UNK     0      -8.007  -4.511  -5.460  0.00  0.00     0.000 A 
HETATM   28  C   UNK     0      -7.414  -3.323  -5.000  0.00  0.00     0.003 A 
HETATM   29  C   UNK     0      -7.120  -0.861  -5.189  0.00  0.00     0.215 C 
HETATM   30  O   UNK     0      -6.254  -0.856  -4.281  0.00  0.00    -0.285 OA
ENDBRANCH   1  18
TORSDOF 6
ENDMDL
MODEL 3
REMARK VINA RESULT:      -6.2      2.885      6.176
REMARK  6 active torsions:
REMARK  status: ('A' for Active; 'I' for Inactive)
REMARK    1  A    between atoms: C_9  and  N_13 
REMARK       I    between atoms: N_13  and  C_14 
REMARK    2  A    between atoms: C_14  and  C_17 
REMARK    3  A    between atoms: C_17  and  N_18 
REMARK    4  A    between atoms: C_20  and  C_23 
REMARK    5  A    between atoms: C_23  and  C_24 
REMARK    6  A    between atoms: C_24  and  C_25 
ROOT
HETATM    1  N   UNK     0      -6.979  -2.717  -5.444  0.00  0.00    -0.205 NA
HETATM    2  C   UNK     0      -7.601  -2.461  -6.632  0.00  0.00     0.281 C 
HETATM    3  O   UNK     0      -6.938  -2.719  -7.662  0.00  0.00    -0.268 OA
ENDROOT
BRANCH   2   4
HETATM    4  C   UNK     0      -8.992  -1.978  -6.816  0.00  0.00     0.219 C 
BRANCH   4   5
HETATM    5  N   UNK     0      -9.163  -0.684  -6.232  0.00  0.00    -0.221 N 
HETATM    6  C   UNK     0     -10.093  -0.323  -5.328  0.00  0.00     0.114 A 
HETATM    7  C   UNK     0      -9.852   1.011  -5.038  0.00  0.00     0.101 A 
HETATM    8  N   UNK     0      -8.802   1.371  -5.791  0.00  0.00    -0.133 NA
HETATM    9  N   UNK     0      -8.415   0.346  -6.484  0.00  0.00    -0.064 NA
BRANCH   7  10
HETATM   10  C   UNK     0     -10.571   1.891  -4.093  0.00  0.00     0.054 C 
BRANCH  10  11
HETATM   11  C   UNK     0      -9.885   3.275  -3.937  0.00  0.00     0.033 C 
BRANCH  11  12
HETATM   12  C   UNK     0      -9.623   3.608  -2.509  0.00  0.00    -0.022 A 
HETATM   13  C   UNK     0     -10.673   3.600  -1.559  0.00  0.00    -0.004 A 
HETATM   14  C   UNK     0     -10.421   3.892  -0.205  0.00  0.00    -0.000 A 
HETATM   15  C   UNK     0      -9.116   4.200   0.219  0.00  0.00     0.000 A 
HETATM   16  C   UNK     0      -8.064   4.222  -0.715  0.00  0.00    -0.000 A 
HETATM   17  C   UNK     0      -8.316   3.929  -2.069  0.00  0.00    -0.004 A 
ENDBRANCH  11  12
ENDBRANCH  10  11
ENDBRANCH   7  10
ENDBRANCH   4   5
ENDBRANCH   2   4
BRANCH   1  18
HETATM   18  C   UNK     0      -7.499  -2.557  -4.220  0.00  0.00     0.146 C 
HETATM   19  C   UNK     0      -8.257  -3.546  -3.687  0.00  0.00     0.162 C 
HETATM   20  C   UNK     0      -8.903  -3.376  -2.458  0.00  0.00     0.217 C 
HETATM   21  N   UNK     0      -8.441  -4.687  -4.340  0.00  0.00    -0.143 N 
HETATM   22  C   UNK     0      -8.918  -2.093  -1.834  0.00  0.00     0.044 A 
HETATM   23  O   UNK     0      -9.485  -4.347  -1.915  0.00  0.00    -0.285 OA
HETATM   24  C   UNK     0      -9.762  -1.799  -0.737  0.00  0.00     0.003 A 
HETATM   25  C   UNK     0      -8.079  -1.070  -2.358  0.00  0.00     0.044 A 
HETATM   26  C   UNK     0      -9.776  -0.512  -0.170  0.00  0.00     0.000 A 
HETATM   27  C   UNK     0      -8.933   0.491  -0.676  0.00  0.00     0.000 A 
HETATM   28  C   UNK     0      -8.083   0.213  -1.759  0.00  0.00     0.003 A 
HETATM   29  C   UNK     0      -7.283  -1.368  -3.504  0.00  0.00     0.215 C 
HETATM   30  O   UNK     0      -6.396  -0.563  -3.881  0.00  0.00    -0.285 OA
ENDBRANCH   1  18
TORSDOF 6
ENDMDL
MODEL 4
REMARK VINA RESULT:      -6.2      2.919      5.206
REMARK  6 active torsions:
REMARK  status: ('A' for Active; 'I' for Inactive)
REMARK    1  A    between atoms: C_9  and  N_13 
REMARK       I    between atoms: N_13  and  C_14 
REMARK    2  A    between atoms: C_14  and  C_17 
REMARK    3  A    between atoms: C_17  and  N_18 
REMARK    4  A    between atoms: C_20  and  C_23 
REMARK    5  A    between atoms: C_23  and  C_24 
REMARK    6  A    between atoms: C_24  and  C_25 
ROOT
HETATM    1  N   UNK     0      -6.736  -0.665  -4.059  0.00  0.00    -0.205 NA
HETATM    2  C   UNK     0      -7.411  -0.586  -2.875  0.00  0.00     0.281 C 
HETATM    3  O   UNK     0      -6.762  -0.131  -1.906  0.00  0.00    -0.268 OA
ENDROOT
BRANCH   2   4
HETATM    4  C   UNK     0      -8.839  -0.920  -2.647  0.00  0.00     0.219 C 
BRANCH   4   5
HETATM    5  N   UNK     0      -9.003  -2.322  -2.413  0.00  0.00    -0.221 N 
HETATM    6  C   UNK     0      -9.891  -3.140  -3.006  0.00  0.00     0.114 A 
HETATM    7  C   UNK     0      -9.659  -4.404  -2.485  0.00  0.00     0.101 A 
HETATM    8  N   UNK     0      -8.657  -4.265  -1.605  0.00  0.00    -0.133 NA
HETATM    9  N   UNK     0      -8.287  -3.022  -1.587  0.00  0.00    -0.064 NA
BRANCH   7  10
HETATM   10  C   UNK     0     -10.344  -5.673  -2.810  0.00  0.00     0.054 C 
BRANCH  10  11
HETATM   11  C   UNK     0     -11.329  -5.524  -4.002  0.00  0.00     0.033 C 
BRANCH  11  12
HETATM   12  C   UNK     0     -10.992  -6.450  -5.119  0.00  0.00    -0.022 A 
HETATM   13  C   UNK     0      -9.806  -7.223  -5.089  0.00  0.00    -0.004 A 
HETATM   14  C   UNK     0      -9.502  -8.116  -6.134  0.00  0.00    -0.000 A 
HETATM   15  C   UNK     0     -10.375  -8.245  -7.228  0.00  0.00     0.000 A 
HETATM   16  C   UNK     0     -11.552  -7.476  -7.278  0.00  0.00    -0.000 A 
HETATM   17  C   UNK     0     -11.858  -6.585  -6.232  0.00  0.00    -0.004 A 
ENDBRANCH  11  12
ENDBRANCH  10  11
ENDBRANCH   7  10
ENDBRANCH   4   5
ENDBRANCH   2   4
BRANCH   1  18
HETATM   18  C   UNK     0      -7.229  -1.081  -5.233  0.00  0.00     0.146 C 
HETATM   19  C   UNK     0      -7.710  -0.169  -6.111  0.00  0.00     0.162 C 
HETATM   20  C   UNK     0      -8.329  -0.568  -7.301  0.00  0.00     0.217 C 
HETATM   21  N   UNK     0      -7.647   1.130  -5.844  0.00  0.00    -0.143 N 
HETATM   22  C   UNK     0      -8.620  -1.948  -7.521  0.00  0.00     0.044 A 
HETATM   23  O   UNK     0      -8.642   0.287  -8.165  0.00  0.00    -0.285 OA
HETATM   24  C   UNK     0      -9.464  -2.380  -8.571  0.00  0.00     0.003 A 
HETATM   25  C   UNK     0      -8.068  -2.912  -6.632  0.00  0.00     0.044 A 
HETATM   26  C   UNK     0      -9.758  -3.745  -8.737  0.00  0.00     0.000 A 
HETATM   27  C   UNK     0      -9.198  -4.698  -7.870  0.00  0.00     0.000 A 
HETATM   28  C   UNK     0      -8.350  -4.285  -6.828  0.00  0.00     0.003 A 
HETATM   29  C   UNK     0      -7.271  -2.451  -5.543  0.00  0.00     0.215 C 
HETATM   30  O   UNK     0      -6.616  -3.269  -4.852  0.00  0.00    -0.285 OA
ENDBRANCH   1  18
TORSDOF 6
ENDMDL
MODEL 5
REMARK VINA RESULT:      -6.2      2.185      5.085
REMARK  6 active torsions:
REMARK  status: ('A' for Active; 'I' for Inactive)
REMARK    1  A    between atoms: C_9  and  N_13 
REMARK       I    between atoms: N_13  and  C_14 
REMARK    2  A    between atoms: C_14  and  C_17 
REMARK    3  A    between atoms: C_17  and  N_18 
REMARK    4  A    between atoms: C_20  and  C_23 
REMARK    5  A    between atoms: C_23  and  C_24 
REMARK    6  A    between atoms: C_24  and  C_25 
ROOT
HETATM    1  N   UNK     0      -7.445  -1.698  -7.711  0.00  0.00    -0.205 NA
HETATM    2  C   UNK     0      -7.434  -3.062  -7.653  0.00  0.00     0.281 C 
HETATM    3  O   UNK     0      -6.562  -3.632  -8.347  0.00  0.00    -0.268 OA
ENDROOT
BRANCH   2   4
HETATM    4  C   UNK     0      -8.302  -3.918  -6.805  0.00  0.00     0.219 C 
BRANCH   4   5
HETATM    5  N   UNK     0      -8.007  -3.725  -5.418  0.00  0.00    -0.221 N 
HETATM    6  C   UNK     0      -8.809  -3.162  -4.495  0.00  0.00     0.114 A 
HETATM    7  C   UNK     0      -8.114  -3.219  -3.296  0.00  0.00     0.101 A 
HETATM    8  N   UNK     0      -6.938  -3.799  -3.575  0.00  0.00    -0.133 NA
HETATM    9  N   UNK     0      -6.906  -4.091  -4.838  0.00  0.00    -0.064 NA
BRANCH   7  10
HETATM   10  C   UNK     0      -8.546  -2.756  -1.961  0.00  0.00     0.054 C 
BRANCH  10  11
HETATM   11  C   UNK     0      -8.063  -1.313  -1.652  0.00  0.00     0.033 C 
BRANCH  11  12
HETATM   12  C   UNK     0      -9.198  -0.351  -1.576  0.00  0.00    -0.022 A 
HETATM   13  C   UNK     0     -10.364  -0.542  -2.357  0.00  0.00    -0.004 A 
HETATM   14  C   UNK     0     -11.445   0.354  -2.267  0.00  0.00    -0.000 A 
HETATM   15  C   UNK     0     -11.376   1.458  -1.399  0.00  0.00     0.000 A 
HETATM   16  C   UNK     0     -10.221   1.668  -0.624  0.00  0.00    -0.000 A 
HETATM   17  C   UNK     0      -9.139   0.770  -0.712  0.00  0.00    -0.004 A 
ENDBRANCH  11  12
ENDBRANCH  10  11
ENDBRANCH   7  10
ENDBRANCH   4   5
ENDBRANCH   2   4
BRANCH   1  18
HETATM   18  C   UNK     0      -8.255  -0.877  -7.032  0.00  0.00     0.146 C 
HETATM   19  C   UNK     0      -9.508  -0.649  -7.493  0.00  0.00     0.162 C 
HETATM   20  C   UNK     0     -10.348   0.282  -6.872  0.00  0.00     0.217 C 
HETATM   21  N   UNK     0      -9.957  -1.272  -8.576  0.00  0.00    -0.143 N 
HETATM   22  C   UNK     0      -9.832   1.134  -5.851  0.00  0.00     0.044 A 
HETATM   23  O   UNK     0     -11.549   0.379  -7.226  0.00  0.00    -0.285 OA
HETATM   24  C   UNK     0     -10.550   2.255  -5.371  0.00  0.00     0.003 A 
HETATM   25  C   UNK     0      -8.538   0.861  -5.324  0.00  0.00     0.044 A 
HETATM   26  C   UNK     0      -9.994   3.094  -4.389  0.00  0.00     0.000 A 
HETATM   27  C   UNK     0      -8.725   2.813  -3.856  0.00  0.00     0.000 A 
HETATM   28  C   UNK     0      -8.004   1.698  -4.315  0.00  0.00     0.003 A 
HETATM   29  C   UNK     0      -7.805  -0.237  -5.864  0.00  0.00     0.215 C 
HETATM   30  O   UNK     0      -6.750  -0.625  -5.306  0.00  0.00    -0.285 OA
ENDBRANCH   1  18
TORSDOF 6
ENDMDL
MODEL 6
REMARK VINA RESULT:      -6.1      2.241      3.794
REMARK  6 active torsions:
REMARK  status: ('A' for Active; 'I' for Inactive)
REMARK    1  A    between atoms: C_9  and  N_13 
REMARK       I    between atoms: N_13  and  C_14 
REMARK    2  A    between atoms: C_14  and  C_17 
REMARK    3  A    between atoms: C_17  and  N_18 
REMARK    4  A    between atoms: C_20  and  C_23 
REMARK    5  A    between atoms: C_23  and  C_24 
REMARK    6  A    between atoms: C_24  and  C_25 
ROOT
HETATM    1  N   UNK     0      -7.718   0.994  -3.275  0.00  0.00    -0.205 NA
HETATM    2  C   UNK     0      -8.422   0.453  -2.238  0.00  0.00     0.281 C 
HETATM    3  O   UNK     0      -8.113   0.861  -1.096  0.00  0.00    -0.268 OA
ENDROOT
BRANCH   2   4
HETATM    4  C   UNK     0      -9.548  -0.509  -2.340  0.00  0.00     0.219 C 
BRANCH   4   5
HETATM    5  N   UNK     0      -9.075  -1.810  -2.701  0.00  0.00    -0.221 N 
HETATM    6  C   UNK     0      -9.508  -2.570  -3.724  0.00  0.00     0.114 A 
HETATM    7  C   UNK     0      -8.742  -3.725  -3.697  0.00  0.00     0.101 A 
HETATM    8  N   UNK     0      -7.907  -3.594  -2.656  0.00  0.00    -0.133 NA
HETATM    9  N   UNK     0      -8.126  -2.448  -2.089  0.00  0.00    -0.064 NA
BRANCH   7  10
HETATM   10  C   UNK     0      -8.794  -4.884  -4.613  0.00  0.00     0.054 C 
BRANCH  10  11
HETATM   11  C   UNK     0     -10.238  -5.192  -5.094  0.00  0.00     0.033 C 
BRANCH  11  12
HETATM   12  C   UNK     0     -10.370  -5.064  -6.572  0.00  0.00    -0.022 A 
HETATM   13  C   UNK     0     -11.305  -4.167  -7.142  0.00  0.00    -0.004 A 
HETATM   14  C   UNK     0     -11.412  -4.029  -8.539  0.00  0.00    -0.000 A 
HETATM   15  C   UNK     0     -10.590  -4.792  -9.387  0.00  0.00     0.000 A 
HETATM   16  C   UNK     0      -9.663  -5.696  -8.837  0.00  0.00    -0.000 A 
HETATM   17  C   UNK     0      -9.555  -5.832  -7.440  0.00  0.00    -0.004 A 
ENDBRANCH  11  12
ENDBRANCH  10  11
ENDBRANCH   7  10
ENDBRANCH   4   5
ENDBRANCH   2   4
BRANCH   1  18
HETATM   18  C   UNK     0      -7.896   0.741  -4.578  0.00  0.00     0.146 C 
HETATM   19  C   UNK     0      -8.704   1.548  -5.307  0.00  0.00     0.162 C 
HETATM   20  C   UNK     0      -8.998   1.259  -6.644  0.00  0.00     0.217 C 
HETATM   21  N   UNK     0      -9.274   2.614  -4.757  0.00  0.00    -0.143 N 
HETATM   22  C   UNK     0      -8.594   0.011  -7.205  0.00  0.00     0.044 A 
HETATM   23  O   UNK     0      -9.633   2.087  -7.341  0.00  0.00    -0.285 OA
HETATM   24  C   UNK     0      -9.078  -0.445  -8.454  0.00  0.00     0.003 A 
HETATM   25  C   UNK     0      -7.698  -0.812  -6.466  0.00  0.00     0.044 A 
HETATM   26  C   UNK     0      -8.685  -1.696  -8.961  0.00  0.00     0.000 A 
HETATM   27  C   UNK     0      -7.787  -2.500  -8.239  0.00  0.00     0.000 A 
HETATM   28  C   UNK     0      -7.290  -2.057  -7.001  0.00  0.00     0.003 A 
HETATM   29  C   UNK     0      -7.271  -0.364  -5.181  0.00  0.00     0.215 C 
HETATM   30  O   UNK     0      -6.344  -0.962  -4.582  0.00  0.00    -0.285 OA
ENDBRANCH   1  18
TORSDOF 6
ENDMDL
MODEL 7
REMARK VINA RESULT:      -6.1      2.976      4.751
REMARK  6 active torsions:
REMARK  status: ('A' for Active; 'I' for Inactive)
REMARK    1  A    between atoms: C_9  and  N_13 
REMARK       I    between atoms: N_13  and  C_14 
REMARK    2  A    between atoms: C_14  and  C_17 
REMARK    3  A    between atoms: C_17  and  N_18 
REMARK    4  A    between atoms: C_20  and  C_23 
REMARK    5  A    between atoms: C_23  and  C_24 
REMARK    6  A    between atoms: C_24  and  C_25 
ROOT
HETATM    1  N   UNK     0      -9.056   0.597  -0.154  0.00  0.00    -0.205 NA
HETATM    2  C   UNK     0      -9.352   1.924  -0.279  0.00  0.00     0.281 C 
HETATM    3  O   UNK     0      -8.966   2.661   0.656  0.00  0.00    -0.268 OA
ENDROOT
BRANCH   2   4
HETATM    4  C   UNK     0     -10.019   2.576  -1.434  0.00  0.00     0.219 C 
BRANCH   4   5
HETATM    5  N   UNK     0      -9.208   2.484  -2.609  0.00  0.00    -0.221 N 
HETATM    6  C   UNK     0      -9.499   1.810  -3.737  0.00  0.00     0.114 A 
HETATM    7  C   UNK     0      -8.437   2.032  -4.601  0.00  0.00     0.101 A 
HETATM    8  N   UNK     0      -7.572   2.812  -3.936  0.00  0.00    -0.133 NA
HETATM    9  N   UNK     0      -8.059   3.065  -2.761  0.00  0.00    -0.064 NA
BRANCH   7  10
HETATM   10  C   UNK     0      -8.258   1.538  -5.983  0.00  0.00     0.054 C 
BRANCH  10  11
HETATM   11  C   UNK     0      -7.358   0.274  -6.046  0.00  0.00     0.033 C 
BRANCH  11  12
HETATM   12  C   UNK     0      -8.126  -0.935  -6.454  0.00  0.00    -0.022 A 
HETATM   13  C   UNK     0      -9.502  -1.059  -6.145  0.00  0.00    -0.004 A 
HETATM   14  C   UNK     0     -10.232  -2.192  -6.552  0.00  0.00    -0.000 A 
HETATM   15  C   UNK     0      -9.596  -3.220  -7.269  0.00  0.00     0.000 A 
HETATM   16  C   UNK     0      -8.227  -3.117  -7.575  0.00  0.00    -0.000 A 
HETATM   17  C   UNK     0      -7.497  -1.983  -7.170  0.00  0.00    -0.004 A 
ENDBRANCH  11  12
ENDBRANCH  10  11
ENDBRANCH   7  10
ENDBRANCH   4   5
ENDBRANCH   2   4
BRANCH   1  18
HETATM   18  C   UNK     0      -9.333  -0.369  -1.039  0.00  0.00     0.146 C 
HETATM   19  C   UNK     0     -10.574  -0.911  -1.065  0.00  0.00     0.162 C 
HETATM   20  C   UNK     0     -10.873  -1.992  -1.901  0.00  0.00     0.217 C 
HETATM   21  N   UNK     0     -11.530  -0.456  -0.263  0.00  0.00    -0.143 N 
HETATM   22  C   UNK     0      -9.825  -2.654  -2.607  0.00  0.00     0.044 A 
HETATM   23  O   UNK     0     -12.058  -2.390  -2.014  0.00  0.00    -0.285 OA
HETATM   24  C   UNK     0     -10.022  -3.896  -3.256  0.00  0.00     0.003 A 
HETATM   25  C   UNK     0      -8.534  -2.056  -2.630  0.00  0.00     0.044 A 
HETATM   26  C   UNK     0      -8.957  -4.537  -3.913  0.00  0.00     0.000 A 
HETATM   27  C   UNK     0      -7.687  -3.938  -3.950  0.00  0.00     0.000 A 
HETATM   28  C   UNK     0      -7.478  -2.700  -3.319  0.00  0.00     0.003 A 
HETATM   29  C   UNK     0      -8.340  -0.836  -1.917  0.00  0.00     0.215 C 
HETATM   30  O   UNK     0      -7.277  -0.183  -2.064  0.00  0.00    -0.285 OA
ENDBRANCH   1  18
TORSDOF 6
ENDMDL
MODEL 8
REMARK VINA RESULT:      -6.1      2.741      5.434
REMARK  6 active torsions:
REMARK  status: ('A' for Active; 'I' for Inactive)
REMARK    1  A    between atoms: C_9  and  N_13 
REMARK       I    between atoms: N_13  and  C_14 
REMARK    2  A    between atoms: C_14  and  C_17 
REMARK    3  A    between atoms: C_17  and  N_18 
REMARK    4  A    between atoms: C_20  and  C_23 
REMARK    5  A    between atoms: C_23  and  C_24 
REMARK    6  A    between atoms: C_24  and  C_25 
ROOT
HETATM    1  N   UNK     0      -6.645  -1.829  -4.977  0.00  0.00    -0.205 NA
HETATM    2  C   UNK     0      -7.079  -3.096  -5.244  0.00  0.00     0.281 C 
HETATM    3  O   UNK     0      -6.188  -3.938  -5.494  0.00  0.00    -0.268 OA
ENDROOT
BRANCH   2   4
HETATM    4  C   UNK     0      -8.483  -3.577  -5.199  0.00  0.00     0.219 C 
BRANCH   4   5
HETATM    5  N   UNK     0      -8.974  -3.591  -3.855  0.00  0.00    -0.221 N 
HETATM    6  C   UNK     0     -10.016  -2.890  -3.371  0.00  0.00     0.114 A 
HETATM    7  C   UNK     0     -10.131  -3.245  -2.036  0.00  0.00     0.101 A 
HETATM    8  N   UNK     0      -9.147  -4.126  -1.799  0.00  0.00    -0.133 NA
HETATM    9  N   UNK     0      -8.482  -4.312  -2.896  0.00  0.00    -0.064 NA
BRANCH   7  10
HETATM   10  C   UNK     0     -11.124  -2.782  -1.043  0.00  0.00     0.054 C 
BRANCH  10  11
HETATM   11  C   UNK     0     -10.551  -1.689  -0.101  0.00  0.00     0.033 C 
BRANCH  11  12
HETATM   12  C   UNK     0     -11.111  -0.343  -0.407  0.00  0.00    -0.022 A 
HETATM   13  C   UNK     0     -11.541  -0.016  -1.716  0.00  0.00    -0.004 A 
HETATM   14  C   UNK     0     -12.092   1.248  -1.999  0.00  0.00    -0.000 A 
HETATM   15  C   UNK     0     -12.216   2.207  -0.978  0.00  0.00     0.000 A 
HETATM   16  C   UNK     0     -11.784   1.902   0.326  0.00  0.00    -0.000 A 
HETATM   17  C   UNK     0     -11.235   0.636   0.609  0.00  0.00    -0.004 A 
ENDBRANCH  11  12
ENDBRANCH  10  11
ENDBRANCH   7  10
ENDBRANCH   4   5
ENDBRANCH   2   4
BRANCH   1  18
HETATM   18  C   UNK     0      -7.406  -0.777  -4.648  0.00  0.00     0.146 C 
HETATM   19  C   UNK     0      -7.994  -0.051  -5.629  0.00  0.00     0.162 C 
HETATM   20  C   UNK     0      -8.710   1.115  -5.334  0.00  0.00     0.217 C 
HETATM   21  N   UNK     0      -7.870  -0.404  -6.903  0.00  0.00    -0.143 N 
HETATM   22  C   UNK     0      -8.677   1.652  -4.013  0.00  0.00     0.044 A 
HETATM   23  O   UNK     0      -9.363   1.696  -6.234  0.00  0.00    -0.285 OA
HETATM   24  C   UNK     0      -9.160   2.949  -3.715  0.00  0.00     0.003 A 
HETATM   25  C   UNK     0      -8.111   0.866  -2.970  0.00  0.00     0.044 A 
HETATM   26  C   UNK     0      -9.080   3.460  -2.408  0.00  0.00     0.000 A 
HETATM   27  C   UNK     0      -8.537   2.676  -1.376  0.00  0.00     0.000 A 
HETATM   28  C   UNK     0      -8.063   1.383  -1.653  0.00  0.00     0.003 A 
HETATM   29  C   UNK     0      -7.574  -0.413  -3.301  0.00  0.00     0.215 C 
HETATM   30  O   UNK     0      -7.238  -1.210  -2.391  0.00  0.00    -0.285 OA
ENDBRANCH   1  18
TORSDOF 6
ENDMDL
MODEL 9
REMARK VINA RESULT:      -6.0      2.624      5.126
REMARK  6 active torsions:
REMARK  status: ('A' for Active; 'I' for Inactive)
REMARK    1  A    between atoms: C_9  and  N_13 
REMARK       I    between atoms: N_13  and  C_14 
REMARK    2  A    between atoms: C_14  and  C_17 
REMARK    3  A    between atoms: C_17  and  N_18 
REMARK    4  A    between atoms: C_20  and  C_23 
REMARK    5  A    between atoms: C_23  and  C_24 
REMARK    6  A    between atoms: C_24  and  C_25 
ROOT
HETATM    1  N   UNK     0      -7.313  -3.083  -3.563  0.00  0.00    -0.205 NA
HETATM    2  C   UNK     0      -7.690  -3.236  -4.867  0.00  0.00     0.281 C 
HETATM    3  O   UNK     0      -7.032  -4.068  -5.531  0.00  0.00    -0.268 OA
ENDROOT
BRANCH   2   4
HETATM    4  C   UNK     0      -8.832  -2.570  -5.541  0.00  0.00     0.219 C 
BRANCH   4   5
HETATM    5  N   UNK     0      -8.596  -1.165  -5.672  0.00  0.00    -0.221 N 
HETATM    6  C   UNK     0      -9.395  -0.170  -5.241  0.00  0.00     0.114 A 
HETATM    7  C   UNK     0      -8.745   1.011  -5.563  0.00  0.00     0.101 A 
HETATM    8  N   UNK     0      -7.606   0.655  -6.176  0.00  0.00    -0.133 NA
HETATM    9  N   UNK     0      -7.546  -0.639  -6.222  0.00  0.00    -0.064 NA
BRANCH   7  10
HETATM   10  C   UNK     0      -9.177   2.400  -5.297  0.00  0.00     0.054 C 
BRANCH  10  11
HETATM   11  C   UNK     0     -10.713   2.577  -5.437  0.00  0.00     0.033 C 
BRANCH  11  12
HETATM   12  C   UNK     0     -11.332   3.072  -4.175  0.00  0.00    -0.022 A 
HETATM   13  C   UNK     0     -12.324   2.313  -3.508  0.00  0.00    -0.004 A 
HETATM   14  C   UNK     0     -12.891   2.770  -2.303  0.00  0.00    -0.000 A 
HETATM   15  C   UNK     0     -12.479   3.996  -1.751  0.00  0.00     0.000 A 
HETATM   16  C   UNK     0     -11.503   4.767  -2.408  0.00  0.00    -0.000 A 
HETATM   17  C   UNK     0     -10.934   4.308  -3.612  0.00  0.00    -0.004 A 
ENDBRANCH  11  12
ENDBRANCH  10  11
ENDBRANCH   7  10
ENDBRANCH   4   5
ENDBRANCH   2   4
BRANCH   1  18
HETATM   18  C   UNK     0      -7.889  -2.284  -2.655  0.00  0.00     0.146 C 
HETATM   19  C   UNK     0      -8.887  -2.772  -1.880  0.00  0.00     0.162 C 
HETATM   20  C   UNK     0      -9.583  -1.943  -0.993  0.00  0.00     0.217 C 
HETATM   21  N   UNK     0      -9.259  -4.043  -1.972  0.00  0.00    -0.143 N 
HETATM   22  C   UNK     0      -9.371  -0.532  -1.025  0.00  0.00     0.044 A 
HETATM   23  O   UNK     0     -10.407  -2.437  -0.186  0.00  0.00    -0.285 OA
HETATM   24  C   UNK     0     -10.221   0.373  -0.345  0.00  0.00     0.003 A 
HETATM   25  C   UNK     0      -8.287  -0.022  -1.793  0.00  0.00     0.044 A 
HETATM   26  C   UNK     0     -10.002   1.759  -0.427  0.00  0.00     0.000 A 
HETATM   27  C   UNK     0      -8.921   2.260  -1.171  0.00  0.00     0.000 A 
HETATM   28  C   UNK     0      -8.063   1.375  -1.844  0.00  0.00     0.003 A 
HETATM   29  C   UNK     0      -7.480  -0.946  -2.522  0.00  0.00     0.215 C 
HETATM   30  O   UNK     0      -6.411  -0.562  -3.056  0.00  0.00    -0.285 OA
ENDBRANCH   1  18
TORSDOF 6
ENDMDL
