MODEL 1
REMARK VINA RESULT:      -7.0      0.000      0.000
REMARK  6 active torsions:
REMARK  status: ('A' for Active; 'I' for Inactive)
REMARK    1  A    between atoms: C_9  and  N_13 
REMARK       I    between atoms: N_13  and  C_14 
REMARK    2  A    between atoms: C_14  and  C_17 
REMARK    3  A    between atoms: C_17  and  N_18 
REMARK    4  A    between atoms: C_20  and  C_23 
REMARK    5  A    between atoms: C_23  and  O_24 
REMARK    6  A    between atoms: O_24  and  C_26 
ROOT
HETATM    1  N   UNK     0      -9.001   2.581  -2.172  0.00  0.00    -0.205 NA
HETATM    2  C   UNK     0      -8.206   3.644  -1.844  0.00  0.00     0.281 C 
HETATM    3  O   UNK     0      -6.956   3.591  -1.947  0.00  0.00    -0.268 OA
ENDROOT
BRANCH   1   4
HETATM    4  C   UNK     0      -8.571   1.428  -2.703  0.00  0.00     0.146 C 
HETATM    5  C   UNK     0      -8.272   1.365  -4.022  0.00  0.00     0.162 C 
HETATM    6  C   UNK     0      -7.890   0.154  -4.620  0.00  0.00     0.217 C 
HETATM    7  N   UNK     0      -8.365   2.451  -4.779  0.00  0.00    -0.143 N 
HETATM    8  C   UNK     0      -7.908  -1.059  -3.861  0.00  0.00     0.044 A 
HETATM    9  O   UNK     0      -7.543   0.136  -5.826  0.00  0.00    -0.285 OA
HETATM   10  C   UNK     0      -7.665  -2.324  -4.450  0.00  0.00     0.003 A 
HETATM   11  C   UNK     0      -8.186  -0.985  -2.468  0.00  0.00     0.044 A 
HETATM   12  C   UNK     0      -7.712  -3.495  -3.674  0.00  0.00     0.000 A 
HETATM   13  C   UNK     0      -7.993  -3.420  -2.301  0.00  0.00     0.000 A 
HETATM   14  C   UNK     0      -8.221  -2.173  -1.699  0.00  0.00     0.003 A 
HETATM   15  C   UNK     0      -8.419   0.295  -1.888  0.00  0.00     0.215 C 
HETATM   16  O   UNK     0      -8.453   0.419  -0.638  0.00  0.00    -0.285 OA
ENDBRANCH   1   4
BRANCH   2  17
HETATM   17  C   UNK     0      -8.835   4.888  -1.361  0.00  0.00     0.219 C 
BRANCH  17  18
HETATM   18  N   UNK     0      -8.574   5.103   0.026  0.00  0.00    -0.221 N 
HETATM   19  C   UNK     0      -7.776   6.042   0.560  0.00  0.00     0.124 A 
HETATM   20  C   UNK     0      -7.813   5.847   1.933  0.00  0.00     0.186 A 
HETATM   21  N   UNK     0      -8.637   4.808   2.138  0.00  0.00    -0.123 NA
HETATM   22  N   UNK     0      -9.074   4.392   0.990  0.00  0.00    -0.063 NA
BRANCH  20  23
HETATM   23  C   UNK     0      -7.151   6.568   2.939  0.00  0.00     0.317 C 
HETATM   24  O   UNK     0      -7.816   7.022   3.898  0.00  0.00    -0.257 OA
BRANCH  23  25
HETATM   25  O   UNK     0      -5.804   6.778   2.866  0.00  0.00    -0.297 OA
BRANCH  25  26
HETATM   26  C   UNK     0      -5.126   7.991   3.219  0.00  0.00     0.152 C 
HETATM   27  C   UNK     0      -4.409   7.815   4.568  0.00  0.00     0.035 C 
ENDBRANCH  25  26
ENDBRANCH  23  25
ENDBRANCH  20  23
ENDBRANCH  17  18
ENDBRANCH   2  17
TORSDOF 6
ENDMDL
MODEL 2
REMARK VINA RESULT:      -7.0      2.354      8.940
REMARK  6 active torsions:
REMARK  status: ('A' for Active; 'I' for Inactive)
REMARK    1  A    between atoms: C_9  and  N_13 
REMARK       I    between atoms: N_13  and  C_14 
REMARK    2  A    between atoms: C_14  and  C_17 
REMARK    3  A    between atoms: C_17  and  N_18 
REMARK    4  A    between atoms: C_20  and  C_23 
REMARK    5  A    between atoms: C_23  and  O_24 
REMARK    6  A    between atoms: O_24  and  C_26 
ROOT
HETATM    1  N   UNK     0      -9.368   3.487  -0.876  0.00  0.00    -0.205 NA
HETATM    2  C   UNK     0      -8.417   2.666  -1.418  0.00  0.00     0.281 C 
HETATM    3  O   UNK     0      -7.389   3.123  -1.975  0.00  0.00    -0.268 OA
ENDROOT
BRANCH   1   4
HETATM    4  C   UNK     0      -9.284   4.822  -0.799  0.00  0.00     0.146 C 
HETATM    5  C   UNK     0      -9.884   5.589  -1.740  0.00  0.00     0.162 C 
HETATM    6  C   UNK     0      -9.751   6.986  -1.726  0.00  0.00     0.217 C 
HETATM    7  N   UNK     0     -10.587   5.023  -2.713  0.00  0.00    -0.143 N 
HETATM    8  C   UNK     0      -8.892   7.617  -0.771  0.00  0.00     0.044 A 
HETATM    9  O   UNK     0     -10.379   7.681  -2.562  0.00  0.00    -0.285 OA
HETATM   10  C   UNK     0      -8.617   9.005  -0.800  0.00  0.00     0.003 A 
HETATM   11  C   UNK     0      -8.294   6.813   0.239  0.00  0.00     0.044 A 
HETATM   12  C   UNK     0      -7.752   9.584   0.144  0.00  0.00     0.000 A 
HETATM   13  C   UNK     0      -7.157   8.789   1.135  0.00  0.00     0.000 A 
HETATM   14  C   UNK     0      -7.431   7.413   1.188  0.00  0.00     0.003 A 
HETATM   15  C   UNK     0      -8.587   5.420   0.262  0.00  0.00     0.215 C 
HETATM   16  O   UNK     0      -8.253   4.727   1.256  0.00  0.00    -0.285 OA
ENDBRANCH   1   4
BRANCH   2  17
HETATM   17  C   UNK     0      -8.603   1.204  -1.340  0.00  0.00     0.219 C 
BRANCH  17  18
HETATM   18  N   UNK     0      -7.999   0.540  -2.451  0.00  0.00    -0.221 N 
HETATM   19  C   UNK     0      -8.440   0.528  -3.719  0.00  0.00     0.124 A 
HETATM   20  C   UNK     0      -7.551  -0.264  -4.431  0.00  0.00     0.186 A 
HETATM   21  N   UNK     0      -6.628  -0.672  -3.547  0.00  0.00    -0.123 NA
HETATM   22  N   UNK     0      -6.919  -0.177  -2.385  0.00  0.00    -0.063 NA
BRANCH  20  23
HETATM   23  C   UNK     0      -7.567  -0.591  -5.796  0.00  0.00     0.317 C 
HETATM   24  O   UNK     0      -7.762   0.319  -6.635  0.00  0.00    -0.257 OA
BRANCH  23  25
HETATM   25  O   UNK     0      -7.384  -1.882  -6.200  0.00  0.00    -0.297 OA
BRANCH  25  26
HETATM   26  C   UNK     0      -8.175  -3.006  -5.796  0.00  0.00     0.152 C 
HETATM   27  C   UNK     0      -7.313  -3.987  -4.982  0.00  0.00     0.035 C 
ENDBRANCH  25  26
ENDBRANCH  23  25
ENDBRANCH  20  23
ENDBRANCH  17  18
ENDBRANCH   2  17
TORSDOF 6
ENDMDL
MODEL 3
REMARK VINA RESULT:      -7.0      2.139      8.893
REMARK  6 active torsions:
REMARK  status: ('A' for Active; 'I' for Inactive)
REMARK    1  A    between atoms: C_9  and  N_13 
REMARK       I    between atoms: N_13  and  C_14 
REMARK    2  A    between atoms: C_14  and  C_17 
REMARK    3  A    between atoms: C_17  and  N_18 
REMARK    4  A    between atoms: C_20  and  C_23 
REMARK    5  A    between atoms: C_23  and  O_24 
REMARK    6  A    between atoms: O_24  and  C_26 
ROOT
HETATM    1  N   UNK     0      -9.524   3.784  -0.612  0.00  0.00    -0.205 NA
HETATM    2  C   UNK     0      -8.776   2.889  -1.327  0.00  0.00     0.281 C 
HETATM    3  O   UNK     0      -7.650   3.192  -1.793  0.00  0.00    -0.268 OA
ENDROOT
BRANCH   1   4
HETATM    4  C   UNK     0      -9.129   5.015  -0.261  0.00  0.00     0.146 C 
HETATM    5  C   UNK     0      -9.396   6.065  -1.074  0.00  0.00     0.162 C 
HETATM    6  C   UNK     0      -8.931   7.353  -0.767  0.00  0.00     0.217 C 
HETATM    7  N   UNK     0     -10.083   5.882  -2.194  0.00  0.00    -0.143 N 
HETATM    8  C   UNK     0      -8.077   7.559   0.362  0.00  0.00     0.044 A 
HETATM    9  O   UNK     0      -9.257   8.323  -1.494  0.00  0.00    -0.285 OA
HETATM   10  C   UNK     0      -7.471   8.809   0.635  0.00  0.00     0.003 A 
HETATM   11  C   UNK     0      -7.828   6.463   1.235  0.00  0.00     0.044 A 
HETATM   12  C   UNK     0      -6.622   8.966   1.744  0.00  0.00     0.000 A 
HETATM   13  C   UNK     0      -6.373   7.882   2.600  0.00  0.00     0.000 A 
HETATM   14  C   UNK     0      -6.977   6.640   2.352  0.00  0.00     0.003 A 
HETATM   15  C   UNK     0      -8.452   5.214   0.952  0.00  0.00     0.215 C 
HETATM   16  O   UNK     0      -8.428   4.296   1.809  0.00  0.00    -0.285 OA
ENDBRANCH   1   4
BRANCH   2  17
HETATM   17  C   UNK     0      -9.305   1.530  -1.551  0.00  0.00     0.219 C 
BRANCH  17  18
HETATM   18  N   UNK     0      -8.400   0.736  -2.320  0.00  0.00    -0.221 N 
HETATM   19  C   UNK     0      -8.499   0.438  -3.625  0.00  0.00     0.124 A 
HETATM   20  C   UNK     0      -7.414  -0.375  -3.920  0.00  0.00     0.186 A 
HETATM   21  N   UNK     0      -6.728  -0.508  -2.775  0.00  0.00    -0.123 NA
HETATM   22  N   UNK     0      -7.335   0.164  -1.847  0.00  0.00    -0.063 NA
BRANCH  20  23
HETATM   23  C   UNK     0      -7.061  -0.954  -5.149  0.00  0.00     0.317 C 
HETATM   24  O   UNK     0      -7.122  -0.256  -6.188  0.00  0.00    -0.257 OA
BRANCH  23  25
HETATM   25  O   UNK     0      -6.666  -2.259  -5.211  0.00  0.00    -0.297 OA
BRANCH  25  26
HETATM   26  C   UNK     0      -7.537  -3.393  -5.305  0.00  0.00     0.152 C 
HETATM   27  C   UNK     0      -7.716  -4.031  -3.917  0.00  0.00     0.035 C 
ENDBRANCH  25  26
ENDBRANCH  23  25
ENDBRANCH  20  23
ENDBRANCH  17  18
ENDBRANCH   2  17
TORSDOF 6
ENDMDL
MODEL 4
REMARK VINA RESULT:      -7.0      2.460      9.188
REMARK  6 active torsions:
REMARK  status: ('A' for Active; 'I' for Inactive)
REMARK    1  A    between atoms: C_9  and  N_13 
REMARK       I    between atoms: N_13  and  C_14 
REMARK    2  A    between atoms: C_14  and  C_17 
REMARK    3  A    between atoms: C_17  and  N_18 
REMARK    4  A    between atoms: C_20  and  C_23 
REMARK    5  A    between atoms: C_23  and  O_24 
REMARK    6  A    between atoms: O_24  and  C_26 
ROOT
HETATM    1  N   UNK     0      -9.199   4.278  -0.576  0.00  0.00    -0.205 NA
HETATM    2  C   UNK     0      -8.556   3.301  -1.285  0.00  0.00     0.281 C 
HETATM    3  O   UNK     0      -7.565   3.554  -2.011  0.00  0.00    -0.268 OA
ENDROOT
BRANCH   1   4
HETATM    4  C   UNK     0      -8.814   5.560  -0.504  0.00  0.00     0.146 C 
HETATM    5  C   UNK     0      -7.896   5.936   0.418  0.00  0.00     0.162 C 
HETATM    6  C   UNK     0      -7.529   7.282   0.565  0.00  0.00     0.217 C 
HETATM    7  N   UNK     0      -7.348   5.031   1.220  0.00  0.00    -0.143 N 
HETATM    8  C   UNK     0      -8.198   8.296  -0.191  0.00  0.00     0.044 A 
HETATM    9  O   UNK     0      -6.621   7.597   1.372  0.00  0.00    -0.285 OA
HETATM   10  C   UNK     0      -7.963   9.677   0.019  0.00  0.00     0.003 A 
HETATM   11  C   UNK     0      -9.135   7.896  -1.184  0.00  0.00     0.044 A 
HETATM   12  C   UNK     0      -8.655  10.644  -0.731  0.00  0.00     0.000 A 
HETATM   13  C   UNK     0      -9.583  10.246  -1.706  0.00  0.00     0.000 A 
HETATM   14  C   UNK     0      -9.817   8.882  -1.937  0.00  0.00     0.003 A 
HETATM   15  C   UNK     0      -9.354   6.504  -1.391  0.00  0.00     0.215 C 
HETATM   16  O   UNK     0     -10.004   6.116  -2.393  0.00  0.00    -0.285 OA
ENDBRANCH   1   4
BRANCH   2  17
HETATM   17  C   UNK     0      -9.040   1.910  -1.188  0.00  0.00     0.219 C 
BRANCH  17  18
HETATM   18  N   UNK     0      -8.260   1.027  -1.995  0.00  0.00    -0.221 N 
HETATM   19  C   UNK     0      -8.370   0.838  -3.320  0.00  0.00     0.124 A 
HETATM   20  C   UNK     0      -7.429  -0.126  -3.653  0.00  0.00     0.186 A 
HETATM   21  N   UNK     0      -6.808  -0.450  -2.508  0.00  0.00    -0.123 NA
HETATM   22  N   UNK     0      -7.320   0.252  -1.546  0.00  0.00    -0.063 NA
BRANCH  20  23
HETATM   23  C   UNK     0      -7.143  -0.673  -4.914  0.00  0.00     0.317 C 
HETATM   24  O   UNK     0      -7.202   0.066  -5.923  0.00  0.00    -0.257 OA
BRANCH  23  25
HETATM   25  O   UNK     0      -6.815  -1.992  -5.037  0.00  0.00    -0.297 OA
BRANCH  25  26
HETATM   26  C   UNK     0      -7.741  -3.087  -5.059  0.00  0.00     0.152 C 
HETATM   27  C   UNK     0      -7.660  -3.867  -3.736  0.00  0.00     0.035 C 
ENDBRANCH  25  26
ENDBRANCH  23  25
ENDBRANCH  20  23
ENDBRANCH  17  18
ENDBRANCH   2  17
TORSDOF 6
ENDMDL
MODEL 5
REMARK VINA RESULT:      -6.9      1.187      2.329
REMARK  6 active torsions:
REMARK  status: ('A' for Active; 'I' for Inactive)
REMARK    1  A    between atoms: C_9  and  N_13 
REMARK       I    between atoms: N_13  and  C_14 
REMARK    2  A    between atoms: C_14  and  C_17 
REMARK    3  A    between atoms: C_17  and  N_18 
REMARK    4  A    between atoms: C_20  and  C_23 
REMARK    5  A    between atoms: C_23  and  O_24 
REMARK    6  A    between atoms: O_24  and  C_26 
ROOT
HETATM    1  N   UNK     0      -9.098   2.853  -2.139  0.00  0.00    -0.205 NA
HETATM    2  C   UNK     0      -8.192   3.842  -1.870  0.00  0.00     0.281 C 
HETATM    3  O   UNK     0      -6.962   3.683  -2.066  0.00  0.00    -0.268 OA
ENDROOT
BRANCH   1   4
HETATM    4  C   UNK     0      -8.809   1.671  -2.701  0.00  0.00     0.146 C 
HETATM    5  C   UNK     0      -8.538   0.602  -1.916  0.00  0.00     0.162 C 
HETATM    6  C   UNK     0      -8.161  -0.629  -2.476  0.00  0.00     0.217 C 
HETATM    7  N   UNK     0      -8.600   0.712  -0.594  0.00  0.00    -0.143 N 
HETATM    8  C   UNK     0      -7.956  -0.743  -3.887  0.00  0.00     0.044 A 
HETATM    9  O   UNK     0      -7.991  -1.626  -1.733  0.00  0.00    -0.285 OA
HETATM   10  C   UNK     0      -7.445  -1.921  -4.485  0.00  0.00     0.003 A 
HETATM   11  C   UNK     0      -8.277   0.370  -4.713  0.00  0.00     0.044 A 
HETATM   12  C   UNK     0      -7.239  -1.987  -5.874  0.00  0.00     0.000 A 
HETATM   13  C   UNK     0      -7.550  -0.885  -6.685  0.00  0.00     0.000 A 
HETATM   14  C   UNK     0      -8.072   0.284  -6.111  0.00  0.00     0.003 A 
HETATM   15  C   UNK     0      -8.800   1.544  -4.099  0.00  0.00     0.215 C 
HETATM   16  O   UNK     0      -9.290   2.456  -4.810  0.00  0.00    -0.285 OA
ENDBRANCH   1   4
BRANCH   2  17
HETATM   17  C   UNK     0      -8.674   5.133  -1.342  0.00  0.00     0.219 C 
BRANCH  17  18
HETATM   18  N   UNK     0      -8.416   5.256   0.057  0.00  0.00    -0.221 N 
HETATM   19  C   UNK     0      -7.673   6.198   0.659  0.00  0.00     0.124 A 
HETATM   20  C   UNK     0      -7.687   5.895   2.014  0.00  0.00     0.186 A 
HETATM   21  N   UNK     0      -8.444   4.794   2.139  0.00  0.00    -0.123 NA
HETATM   22  N   UNK     0      -8.863   4.442   0.964  0.00  0.00    -0.063 NA
BRANCH  20  23
HETATM   23  C   UNK     0      -7.063   6.576   3.071  0.00  0.00     0.317 C 
HETATM   24  O   UNK     0      -7.764   6.992   4.022  0.00  0.00    -0.257 OA
BRANCH  23  25
HETATM   25  O   UNK     0      -5.715   6.788   3.055  0.00  0.00    -0.297 OA
BRANCH  25  26
HETATM   26  C   UNK     0      -5.062   8.042   3.290  0.00  0.00     0.152 C 
HETATM   27  C   UNK     0      -4.320   8.002   4.637  0.00  0.00     0.035 C 
ENDBRANCH  25  26
ENDBRANCH  23  25
ENDBRANCH  20  23
ENDBRANCH  17  18
ENDBRANCH   2  17
TORSDOF 6
ENDMDL
MODEL 6
REMARK VINA RESULT:      -6.9     13.985     16.894
REMARK  6 active torsions:
REMARK  status: ('A' for Active; 'I' for Inactive)
REMARK    1  A    between atoms: C_9  and  N_13 
REMARK       I    between atoms: N_13  and  C_14 
REMARK    2  A    between atoms: C_14  and  C_17 
REMARK    3  A    between atoms: C_17  and  N_18 
REMARK    4  A    between atoms: C_20  and  C_23 
REMARK    5  A    between atoms: C_23  and  O_24 
REMARK    6  A    between atoms: O_24  and  C_26 
ROOT
HETATM    1  N   UNK     0       4.660  -7.177  -9.266  0.00  0.00    -0.205 NA
HETATM    2  C   UNK     0       4.337  -5.848  -9.261  0.00  0.00     0.281 C 
HETATM    3  O   UNK     0       3.719  -5.321  -8.304  0.00  0.00    -0.268 OA
ENDROOT
BRANCH   1   4
HETATM    4  C   UNK     0       4.443  -8.029  -8.254  0.00  0.00     0.146 C 
HETATM    5  C   UNK     0       5.418  -8.253  -7.342  0.00  0.00     0.162 C 
HETATM    6  C   UNK     0       5.245  -9.194  -6.316  0.00  0.00     0.217 C 
HETATM    7  N   UNK     0       6.571  -7.600  -7.425  0.00  0.00    -0.143 N 
HETATM    8  C   UNK     0       4.069 -10.008  -6.277  0.00  0.00     0.044 A 
HETATM    9  O   UNK     0       6.132  -9.329  -5.437  0.00  0.00    -0.285 OA
HETATM   10  C   UNK     0       3.908 -11.063  -5.347  0.00  0.00     0.003 A 
HETATM   11  C   UNK     0       3.030  -9.746  -7.213  0.00  0.00     0.044 A 
HETATM   12  C   UNK     0       2.746 -11.854  -5.354  0.00  0.00     0.000 A 
HETATM   13  C   UNK     0       1.726 -11.597  -6.283  0.00  0.00     0.000 A 
HETATM   14  C   UNK     0       1.863 -10.545  -7.202  0.00  0.00     0.003 A 
HETATM   15  C   UNK     0       3.202  -8.675  -8.137  0.00  0.00     0.215 C 
HETATM   16  O   UNK     0       2.228  -8.282  -8.826  0.00  0.00    -0.285 OA
ENDBRANCH   1   4
BRANCH   2  17
HETATM   17  C   UNK     0       4.730  -5.011 -10.411  0.00  0.00     0.219 C 
BRANCH  17  18
HETATM   18  N   UNK     0       3.826  -3.920 -10.598  0.00  0.00    -0.221 N 
HETATM   19  C   UNK     0       4.096  -2.615 -10.439  0.00  0.00     0.124 A 
HETATM   20  C   UNK     0       2.912  -1.940 -10.702  0.00  0.00     0.186 A 
HETATM   21  N   UNK     0       2.008  -2.883 -11.009  0.00  0.00    -0.123 NA
HETATM   22  N   UNK     0       2.581  -4.044 -10.942  0.00  0.00    -0.063 NA
BRANCH  20  23
HETATM   23  C   UNK     0       2.665  -0.559 -10.675  0.00  0.00     0.317 C 
HETATM   24  O   UNK     0       3.353   0.194 -11.402  0.00  0.00    -0.257 OA
BRANCH  23  25
HETATM   25  O   UNK     0       1.697  -0.045  -9.862  0.00  0.00    -0.297 OA
BRANCH  25  26
HETATM   26  C   UNK     0       0.333   0.192 -10.231  0.00  0.00     0.152 C 
HETATM   27  C   UNK     0       0.180   1.621 -10.780  0.00  0.00     0.035 C 
ENDBRANCH  25  26
ENDBRANCH  23  25
ENDBRANCH  20  23
ENDBRANCH  17  18
ENDBRANCH   2  17
TORSDOF 6
ENDMDL
MODEL 7
REMARK VINA RESULT:      -6.7     13.618     16.394
REMARK  6 active torsions:
REMARK  status: ('A' for Active; 'I' for Inactive)
REMARK    1  A    between atoms: C_9  and  N_13 
REMARK       I    between atoms: N_13  and  C_14 
REMARK    2  A    between atoms: C_14  and  C_17 
REMARK    3  A    between atoms: C_17  and  N_18 
REMARK    4  A    between atoms: C_20  and  C_23 
REMARK    5  A    between atoms: C_23  and  O_24 
REMARK    6  A    between atoms: O_24  and  C_26 
ROOT
HETATM    1  N   UNK     0       1.943  -0.550 -10.531  0.00  0.00    -0.205 NA
HETATM    2  C   UNK     0       3.258  -0.291 -10.802  0.00  0.00     0.281 C 
HETATM    3  O   UNK     0       3.614   0.299 -11.851  0.00  0.00    -0.268 OA
ENDROOT
BRANCH   1   4
HETATM    4  C   UNK     0       0.906  -0.148 -11.279  0.00  0.00     0.146 C 
HETATM    5  C   UNK     0       0.492  -0.909 -12.320  0.00  0.00     0.162 C 
HETATM    6  C   UNK     0      -0.543  -0.477 -13.164  0.00  0.00     0.217 C 
HETATM    7  N   UNK     0       1.084  -2.069 -12.574  0.00  0.00    -0.143 N 
HETATM    8  C   UNK     0      -1.110   0.826 -12.998  0.00  0.00     0.044 A 
HETATM    9  O   UNK     0      -0.961  -1.233 -14.075  0.00  0.00    -0.285 OA
HETATM   10  C   UNK     0      -2.057   1.361 -13.904  0.00  0.00     0.003 A 
HETATM   11  C   UNK     0      -0.700   1.608 -11.882  0.00  0.00     0.044 A 
HETATM   12  C   UNK     0      -2.576   2.654 -13.717  0.00  0.00     0.000 A 
HETATM   13  C   UNK     0      -2.166   3.426 -12.619  0.00  0.00     0.000 A 
HETATM   14  C   UNK     0      -1.239   2.904 -11.702  0.00  0.00     0.003 A 
HETATM   15  C   UNK     0       0.246   1.053 -10.973  0.00  0.00     0.215 C 
HETATM   16  O   UNK     0       0.465   1.620  -9.874  0.00  0.00    -0.285 OA
ENDBRANCH   1   4
BRANCH   2  17
HETATM   17  C   UNK     0       4.286  -0.713  -9.830  0.00  0.00     0.219 C 
BRANCH  17  18
HETATM   18  N   UNK     0       4.820  -1.997 -10.156  0.00  0.00    -0.221 N 
HETATM   19  C   UNK     0       4.128  -3.131 -10.351  0.00  0.00     0.124 A 
HETATM   20  C   UNK     0       5.068  -4.117 -10.615  0.00  0.00     0.186 A 
HETATM   21  N   UNK     0       6.264  -3.511 -10.569  0.00  0.00    -0.123 NA
HETATM   22  N   UNK     0       6.084  -2.256 -10.299  0.00  0.00    -0.063 NA
BRANCH  20  23
HETATM   23  C   UNK     0       4.858  -5.478 -10.888  0.00  0.00     0.317 C 
HETATM   24  O   UNK     0       4.473  -5.814 -12.031  0.00  0.00    -0.257 OA
BRANCH  23  25
HETATM   25  O   UNK     0       5.061  -6.417  -9.919  0.00  0.00    -0.297 OA
BRANCH  25  26
HETATM   26  C   UNK     0       4.470  -6.414  -8.613  0.00  0.00     0.152 C 
HETATM   27  C   UNK     0       2.939  -6.491  -8.731  0.00  0.00     0.035 C 
ENDBRANCH  25  26
ENDBRANCH  23  25
ENDBRANCH  20  23
ENDBRANCH  17  18
ENDBRANCH   2  17
TORSDOF 6
ENDMDL
MODEL 8
REMARK VINA RESULT:      -6.6     14.071     16.767
REMARK  6 active torsions:
REMARK  status: ('A' for Active; 'I' for Inactive)
REMARK    1  A    between atoms: C_9  and  N_13 
REMARK       I    between atoms: N_13  and  C_14 
REMARK    2  A    between atoms: C_14  and  C_17 
REMARK    3  A    between atoms: C_17  and  N_18 
REMARK    4  A    between atoms: C_20  and  C_23 
REMARK    5  A    between atoms: C_23  and  O_24 
REMARK    6  A    between atoms: O_24  and  C_26 
ROOT
HETATM    1  N   UNK     0       2.627  -2.353 -10.802  0.00  0.00    -0.205 NA
HETATM    2  C   UNK     0       3.957  -2.176 -11.068  0.00  0.00     0.281 C 
HETATM    3  O   UNK     0       4.355  -1.356 -11.931  0.00  0.00    -0.268 OA
ENDROOT
BRANCH   1   4
HETATM    4  C   UNK     0       1.628  -1.643 -11.345  0.00  0.00     0.146 C 
HETATM    5  C   UNK     0       1.030  -2.081 -12.478  0.00  0.00     0.162 C 
HETATM    6  C   UNK     0       0.032  -1.321 -13.108  0.00  0.00     0.217 C 
HETATM    7  N   UNK     0       1.402  -3.230 -13.026  0.00  0.00    -0.143 N 
HETATM    8  C   UNK     0      -0.297  -0.019 -12.616  0.00  0.00     0.044 A 
HETATM    9  O   UNK     0      -0.562  -1.783 -14.112  0.00  0.00    -0.285 OA
HETATM   10  C   UNK     0      -1.195   0.842 -13.294  0.00  0.00     0.003 A 
HETATM   11  C   UNK     0       0.305   0.423 -11.406  0.00  0.00     0.044 A 
HETATM   12  C   UNK     0      -1.478   2.123 -12.789  0.00  0.00     0.000 A 
HETATM   13  C   UNK     0      -0.877   2.559 -11.598  0.00  0.00     0.000 A 
HETATM   14  C   UNK     0       0.003   1.713 -10.906  0.00  0.00     0.003 A 
HETATM   15  C   UNK     0       1.199  -0.456 -10.730  0.00  0.00     0.215 C 
HETATM   16  O   UNK     0       1.577  -0.188  -9.563  0.00  0.00    -0.285 OA
ENDBRANCH   1   4
BRANCH   2  17
HETATM   17  C   UNK     0       4.950  -2.966 -10.316  0.00  0.00     0.219 C 
BRANCH  17  18
HETATM   18  N   UNK     0       4.589  -4.347 -10.262  0.00  0.00    -0.221 N 
HETATM   19  C   UNK     0       4.246  -5.048  -9.170  0.00  0.00     0.124 A 
HETATM   20  C   UNK     0       4.008  -6.346  -9.602  0.00  0.00     0.186 A 
HETATM   21  N   UNK     0       4.217  -6.339 -10.927  0.00  0.00    -0.123 NA
HETATM   22  N   UNK     0       4.556  -5.141 -11.288  0.00  0.00    -0.063 NA
BRANCH  20  23
HETATM   23  C   UNK     0       3.619  -7.463  -8.847  0.00  0.00     0.317 C 
HETATM   24  O   UNK     0       2.438  -7.537  -8.438  0.00  0.00    -0.257 OA
BRANCH  23  25
HETATM   25  O   UNK     0       4.518  -8.449  -8.557  0.00  0.00    -0.297 OA
BRANCH  25  26
HETATM   26  C   UNK     0       5.308  -8.536  -7.364  0.00  0.00     0.152 C 
HETATM   27  C   UNK     0       4.690  -9.563  -6.401  0.00  0.00     0.035 C 
ENDBRANCH  25  26
ENDBRANCH  23  25
ENDBRANCH  20  23
ENDBRANCH  17  18
ENDBRANCH   2  17
TORSDOF 6
ENDMDL
MODEL 9
REMARK VINA RESULT:      -6.6     13.580     16.630
REMARK  6 active torsions:
REMARK  status: ('A' for Active; 'I' for Inactive)
REMARK    1  A    between atoms: C_9  and  N_13 
REMARK       I    between atoms: N_13  and  C_14 
REMARK    2  A    between atoms: C_14  and  C_17 
REMARK    3  A    between atoms: C_17  and  N_18 
REMARK    4  A    between atoms: C_20  and  C_23 
REMARK    5  A    between atoms: C_23  and  O_24 
REMARK    6  A    between atoms: O_24  and  C_26 
ROOT
HETATM    1  N   UNK     0       2.582  -1.962 -11.956  0.00  0.00    -0.205 NA
HETATM    2  C   UNK     0       2.398  -3.225 -11.465  0.00  0.00     0.281 C 
HETATM    3  O   UNK     0       1.338  -3.559 -10.881  0.00  0.00    -0.268 OA
ENDROOT
BRANCH   1   4
HETATM    4  C   UNK     0       1.661  -0.989 -11.952  0.00  0.00     0.146 C 
HETATM    5  C   UNK     0       1.620  -0.105 -10.926  0.00  0.00     0.162 C 
HETATM    6  C   UNK     0       0.622   0.878 -10.860  0.00  0.00     0.217 C 
HETATM    7  N   UNK     0       2.515  -0.177  -9.949  0.00  0.00    -0.143 N 
HETATM    8  C   UNK     0      -0.433   0.898 -11.826  0.00  0.00     0.044 A 
HETATM    9  O   UNK     0       0.650   1.734  -9.942  0.00  0.00    -0.285 OA
HETATM   10  C   UNK     0      -1.536   1.781 -11.724  0.00  0.00     0.003 A 
HETATM   11  C   UNK     0      -0.368  -0.006 -12.922  0.00  0.00     0.044 A 
HETATM   12  C   UNK     0      -2.564   1.756 -12.684  0.00  0.00     0.000 A 
HETATM   13  C   UNK     0      -2.500   0.859 -13.761  0.00  0.00     0.000 A 
HETATM   14  C   UNK     0      -1.406  -0.012 -13.884  0.00  0.00     0.003 A 
HETATM   15  C   UNK     0       0.752  -0.881 -13.016  0.00  0.00     0.215 C 
HETATM   16  O   UNK     0       0.949  -1.533 -14.072  0.00  0.00    -0.285 OA
ENDBRANCH   1   4
BRANCH   2  17
HETATM   17  C   UNK     0       3.472  -4.223 -11.631  0.00  0.00     0.219 C 
BRANCH  17  18
HETATM   18  N   UNK     0       3.593  -5.059 -10.479  0.00  0.00    -0.221 N 
HETATM   19  C   UNK     0       3.450  -6.393 -10.433  0.00  0.00     0.124 A 
HETATM   20  C   UNK     0       3.630  -6.756  -9.106  0.00  0.00     0.186 A 
HETATM   21  N   UNK     0       3.875  -5.617  -8.440  0.00  0.00    -0.123 NA
HETATM   22  N   UNK     0       3.851  -4.631  -9.281  0.00  0.00    -0.063 NA
BRANCH  20  23
HETATM   23  C   UNK     0       3.582  -8.037  -8.533  0.00  0.00     0.317 C 
HETATM   24  O   UNK     0       2.478  -8.491  -8.154  0.00  0.00    -0.257 OA
BRANCH  23  25
HETATM   25  O   UNK     0       4.723  -8.770  -8.384  0.00  0.00    -0.297 OA
BRANCH  25  26
HETATM   26  C   UNK     0       5.366  -9.074  -7.140  0.00  0.00     0.152 C 
HETATM   27  C   UNK     0       6.224  -7.880  -6.688  0.00  0.00     0.035 C 
ENDBRANCH  25  26
ENDBRANCH  23  25
ENDBRANCH  20  23
ENDBRANCH  17  18
ENDBRANCH   2  17
TORSDOF 6
ENDMDL
