MODEL 1
REMARK VINA RESULT:      -6.6      0.000      0.000
REMARK  4 active torsions:
REMARK  status: ('A' for Active; 'I' for Inactive)
REMARK    1  A    between atoms: C_9  and  N_13 
REMARK       I    between atoms: N_13  and  C_14 
REMARK    2  A    between atoms: C_14  and  C_17 
REMARK    3  A    between atoms: C_17  and  N_18 
REMARK    4  A    between atoms: C_20  and  C_23 
ROOT
HETATM    1  N   UNK     0      -7.085  -2.811  -5.469  0.00  0.00    -0.205 NA
HETATM    2  C   UNK     0      -7.607  -2.371  -6.653  0.00  0.00     0.281 C 
HETATM    3  O   UNK     0      -6.954  -2.668  -7.680  0.00  0.00    -0.268 OA
ENDROOT
BRANCH   1   4
HETATM    4  C   UNK     0      -7.621  -2.657  -4.253  0.00  0.00     0.146 C 
HETATM    5  C   UNK     0      -8.443  -3.617  -3.764  0.00  0.00     0.162 C 
HETATM    6  C   UNK     0      -9.091  -3.452  -2.533  0.00  0.00     0.217 C 
HETATM    7  N   UNK     0      -8.687  -4.726  -4.452  0.00  0.00    -0.143 N 
HETATM    8  C   UNK     0      -9.041  -2.192  -1.864  0.00  0.00     0.044 A 
HETATM    9  O   UNK     0      -9.731  -4.406  -2.027  0.00  0.00    -0.285 OA
HETATM   10  C   UNK     0      -9.885  -1.887  -0.771  0.00  0.00     0.003 A 
HETATM   11  C   UNK     0      -8.132  -1.206  -2.341  0.00  0.00     0.044 A 
HETATM   12  C   UNK     0      -9.828  -0.623  -0.156  0.00  0.00     0.000 A 
HETATM   13  C   UNK     0      -8.910   0.339  -0.608  0.00  0.00     0.000 A 
HETATM   14  C   UNK     0      -8.060   0.048  -1.688  0.00  0.00     0.003 A 
HETATM   15  C   UNK     0      -7.343  -1.509  -3.492  0.00  0.00     0.215 C 
HETATM   16  O   UNK     0      -6.410  -0.743  -3.839  0.00  0.00    -0.285 OA
ENDBRANCH   1   4
BRANCH   2  17
HETATM   17  C   UNK     0      -8.871  -1.616  -6.846  0.00  0.00     0.219 C 
BRANCH  17  18
HETATM   18  N   UNK     0      -8.783  -0.284  -6.332  0.00  0.00    -0.221 N 
HETATM   19  C   UNK     0      -9.644   0.310  -5.490  0.00  0.00     0.114 A 
HETATM   20  C   UNK     0      -9.122   1.563  -5.212  0.00  0.00     0.101 A 
HETATM   21  N   UNK     0      -7.983   1.652  -5.919  0.00  0.00    -0.133 NA
HETATM   22  N   UNK     0      -7.814   0.545  -6.574  0.00  0.00    -0.064 NA
BRANCH  20  23
HETATM   23  C   UNK     0      -9.692   2.581  -4.296  0.00  0.00     0.044 C 
HETATM   24  C   UNK     0      -8.690   3.142  -3.261  0.00  0.00     0.006 C 
HETATM   25  C   UNK     0      -9.575   3.756  -2.161  0.00  0.00     0.000 C 
HETATM   26  C   UNK     0     -10.880   2.930  -2.156  0.00  0.00     0.000 C 
HETATM   27  C   UNK     0     -10.869   2.062  -3.436  0.00  0.00     0.006 C 
ENDBRANCH  20  23
ENDBRANCH  17  18
ENDBRANCH   2  17
TORSDOF 4
ENDMDL
MODEL 2
REMARK VINA RESULT:      -6.5      2.530      6.532
REMARK  4 active torsions:
REMARK  status: ('A' for Active; 'I' for Inactive)
REMARK    1  A    between atoms: C_9  and  N_13 
REMARK       I    between atoms: N_13  and  C_14 
REMARK    2  A    between atoms: C_14  and  C_17 
REMARK    3  A    between atoms: C_17  and  N_18 
REMARK    4  A    between atoms: C_20  and  C_23 
ROOT
HETATM    1  N   UNK     0      -6.703  -0.578  -3.881  0.00  0.00    -0.205 NA
HETATM    2  C   UNK     0      -7.371  -0.549  -2.688  0.00  0.00     0.281 C 
HETATM    3  O   UNK     0      -6.691  -0.214  -1.691  0.00  0.00    -0.268 OA
ENDROOT
BRANCH   1   4
HETATM    4  C   UNK     0      -7.222  -0.860  -5.081  0.00  0.00     0.146 C 
HETATM    5  C   UNK     0      -7.730   0.144  -5.837  0.00  0.00     0.162 C 
HETATM    6  C   UNK     0      -8.360  -0.123  -7.059  0.00  0.00     0.217 C 
HETATM    7  N   UNK     0      -7.679   1.404  -5.425  0.00  0.00    -0.143 N 
HETATM    8  C   UNK     0      -8.640  -1.471  -7.438  0.00  0.00     0.044 A 
HETATM    9  O   UNK     0      -8.695   0.823  -7.813  0.00  0.00    -0.285 OA
HETATM   10  C   UNK     0      -9.500  -1.785  -8.516  0.00  0.00     0.003 A 
HETATM   11  C   UNK     0      -8.054  -2.525  -6.682  0.00  0.00     0.044 A 
HETATM   12  C   UNK     0      -9.776  -3.126  -8.841  0.00  0.00     0.000 A 
HETATM   13  C   UNK     0      -9.175  -4.165  -8.113  0.00  0.00     0.000 A 
HETATM   14  C   UNK     0      -8.311  -3.868  -7.045  0.00  0.00     0.003 A 
HETATM   15  C   UNK     0      -7.249  -2.184  -5.552  0.00  0.00     0.215 C 
HETATM   16  O   UNK     0      -6.575  -3.067  -4.966  0.00  0.00    -0.285 OA
ENDBRANCH   1   4
BRANCH   2  17
HETATM   17  C   UNK     0      -8.810  -0.836  -2.465  0.00  0.00     0.219 C 
BRANCH  17  18
HETATM   18  N   UNK     0      -9.098  -2.234  -2.558  0.00  0.00    -0.221 N 
HETATM   19  C   UNK     0      -9.953  -2.822  -3.410  0.00  0.00     0.114 A 
HETATM   20  C   UNK     0      -9.853  -4.186  -3.189  0.00  0.00     0.101 A 
HETATM   21  N   UNK     0      -8.953  -4.335  -2.204  0.00  0.00    -0.133 NA
HETATM   22  N   UNK     0      -8.528  -3.161  -1.849  0.00  0.00    -0.064 NA
BRANCH  20  23
HETATM   23  C   UNK     0     -10.572  -5.261  -3.917  0.00  0.00     0.044 C 
HETATM   24  C   UNK     0      -9.653  -6.246  -4.674  0.00  0.00     0.006 C 
HETATM   25  C   UNK     0     -10.576  -6.918  -5.707  0.00  0.00     0.000 C 
HETATM   26  C   UNK     0     -11.660  -5.873  -6.051  0.00  0.00     0.000 C 
HETATM   27  C   UNK     0     -11.542  -4.740  -5.005  0.00  0.00     0.006 C 
ENDBRANCH  20  23
ENDBRANCH  17  18
ENDBRANCH   2  17
TORSDOF 4
ENDMDL
MODEL 3
REMARK VINA RESULT:      -6.5      1.851      2.530
REMARK  4 active torsions:
REMARK  status: ('A' for Active; 'I' for Inactive)
REMARK    1  A    between atoms: C_9  and  N_13 
REMARK       I    between atoms: N_13  and  C_14 
REMARK    2  A    between atoms: C_14  and  C_17 
REMARK    3  A    between atoms: C_17  and  N_18 
REMARK    4  A    between atoms: C_20  and  C_23 
ROOT
HETATM    1  N   UNK     0      -7.851  -4.312  -5.830  0.00  0.00    -0.205 NA
HETATM    2  C   UNK     0      -7.403  -3.359  -6.700  0.00  0.00     0.281 C 
HETATM    3  O   UNK     0      -6.520  -3.730  -7.508  0.00  0.00    -0.268 OA
ENDROOT
BRANCH   1   4
HETATM    4  C   UNK     0      -8.813  -4.167  -4.912  0.00  0.00     0.146 C 
HETATM    5  C   UNK     0     -10.108  -4.340  -5.274  0.00  0.00     0.162 C 
HETATM    6  C   UNK     0     -11.147  -4.112  -4.363  0.00  0.00     0.217 C 
HETATM    7  N   UNK     0     -10.431  -4.695  -6.511  0.00  0.00    -0.143 N 
HETATM    8  C   UNK     0     -10.868  -3.516  -3.096  0.00  0.00     0.044 A 
HETATM    9  O   UNK     0     -12.327  -4.415  -4.667  0.00  0.00    -0.285 OA
HETATM   10  C   UNK     0     -11.892  -3.020  -2.256  0.00  0.00     0.003 A 
HETATM   11  C   UNK     0      -9.509  -3.391  -2.689  0.00  0.00     0.044 A 
HETATM   12  C   UNK     0     -11.575  -2.411  -1.028  0.00  0.00     0.000 A 
HETATM   13  C   UNK     0     -10.237  -2.316  -0.614  0.00  0.00     0.000 A 
HETATM   14  C   UNK     0      -9.209  -2.811  -1.434  0.00  0.00     0.003 A 
HETATM   15  C   UNK     0      -8.488  -3.831  -3.587  0.00  0.00     0.215 C 
HETATM   16  O   UNK     0      -7.295  -3.902  -3.201  0.00  0.00    -0.285 OA
ENDBRANCH   1   4
BRANCH   2  17
HETATM   17  C   UNK     0      -7.875  -1.954  -6.807  0.00  0.00     0.219 C 
BRANCH  17  18
HETATM   18  N   UNK     0      -7.640  -1.219  -5.603  0.00  0.00    -0.221 N 
HETATM   19  C   UNK     0      -8.512  -0.418  -4.969  0.00  0.00     0.114 A 
HETATM   20  C   UNK     0      -7.878   0.022  -3.818  0.00  0.00     0.101 A 
HETATM   21  N   UNK     0      -6.654  -0.530  -3.839  0.00  0.00    -0.133 NA
HETATM   22  N   UNK     0      -6.543  -1.254  -4.910  0.00  0.00    -0.064 NA
BRANCH  20  23
HETATM   23  C   UNK     0      -8.450   0.898  -2.766  0.00  0.00     0.044 C 
HETATM   24  C   UNK     0      -7.970   0.573  -1.333  0.00  0.00     0.006 C 
HETATM   25  C   UNK     0      -9.021   1.227  -0.417  0.00  0.00     0.000 C 
HETATM   26  C   UNK     0     -10.347   1.208  -1.210  0.00  0.00     0.000 C 
HETATM   27  C   UNK     0      -9.994   0.835  -2.669  0.00  0.00     0.006 C 
ENDBRANCH  20  23
ENDBRANCH  17  18
ENDBRANCH   2  17
TORSDOF 4
ENDMDL
MODEL 4
REMARK VINA RESULT:      -6.4      2.495      6.298
REMARK  4 active torsions:
REMARK  status: ('A' for Active; 'I' for Inactive)
REMARK    1  A    between atoms: C_9  and  N_13 
REMARK       I    between atoms: N_13  and  C_14 
REMARK    2  A    between atoms: C_14  and  C_17 
REMARK    3  A    between atoms: C_17  and  N_18 
REMARK    4  A    between atoms: C_20  and  C_23 
ROOT
HETATM    1  N   UNK     0      -7.941   1.284  -2.879  0.00  0.00    -0.205 NA
HETATM    2  C   UNK     0      -8.863   1.008  -1.908  0.00  0.00     0.281 C 
HETATM    3  O   UNK     0      -8.633   1.503  -0.781  0.00  0.00    -0.268 OA
ENDROOT
BRANCH   1   4
HETATM    4  C   UNK     0      -7.993   0.906  -4.161  0.00  0.00     0.146 C 
HETATM    5  C   UNK     0      -8.724   1.635  -5.039  0.00  0.00     0.162 C 
HETATM    6  C   UNK     0      -8.872   1.223  -6.369  0.00  0.00     0.217 C 
HETATM    7  N   UNK     0      -9.349   2.742  -4.656  0.00  0.00    -0.143 N 
HETATM    8  C   UNK     0      -8.412  -0.066  -6.773  0.00  0.00     0.044 A 
HETATM    9  O   UNK     0      -9.428   1.980  -7.203  0.00  0.00    -0.285 OA
HETATM   10  C   UNK     0      -8.769  -0.638  -8.016  0.00  0.00     0.003 A 
HETATM   11  C   UNK     0      -7.592  -0.806  -5.874  0.00  0.00     0.044 A 
HETATM   12  C   UNK     0      -8.320  -1.924  -8.366  0.00  0.00     0.000 A 
HETATM   13  C   UNK     0      -7.487  -2.641  -7.492  0.00  0.00     0.000 A 
HETATM   14  C   UNK     0      -7.117  -2.083  -6.257  0.00  0.00     0.003 A 
HETATM   15  C   UNK     0      -7.305  -0.240  -4.594  0.00  0.00     0.215 C 
HETATM   16  O   UNK     0      -6.450  -0.774  -3.845  0.00  0.00    -0.285 OA
ENDBRANCH   1   4
BRANCH   2  17
HETATM   17  C   UNK     0     -10.112   0.219  -2.062  0.00  0.00     0.219 C 
BRANCH  17  18
HETATM   18  N   UNK     0      -9.846  -1.144  -2.405  0.00  0.00    -0.221 N 
HETATM   19  C   UNK     0     -10.402  -1.841  -3.409  0.00  0.00     0.114 A 
HETATM   20  C   UNK     0      -9.795  -3.087  -3.406  0.00  0.00     0.101 A 
HETATM   21  N   UNK     0      -8.919  -3.067  -2.388  0.00  0.00    -0.133 NA
HETATM   22  N   UNK     0      -8.977  -1.905  -1.813  0.00  0.00    -0.064 NA
BRANCH  20  23
HETATM   23  C   UNK     0     -10.042  -4.200  -4.355  0.00  0.00     0.044 C 
HETATM   24  C   UNK     0      -8.770  -4.966  -4.787  0.00  0.00     0.006 C 
HETATM   25  C   UNK     0      -9.178  -5.690  -6.083  0.00  0.00     0.000 C 
HETATM   26  C   UNK     0     -10.258  -4.804  -6.743  0.00  0.00     0.000 C 
HETATM   27  C   UNK     0     -10.683  -3.753  -5.691  0.00  0.00     0.006 C 
ENDBRANCH  20  23
ENDBRANCH  17  18
ENDBRANCH   2  17
TORSDOF 4
ENDMDL
MODEL 5
REMARK VINA RESULT:      -6.4      2.354      5.744
REMARK  4 active torsions:
REMARK  status: ('A' for Active; 'I' for Inactive)
REMARK    1  A    between atoms: C_9  and  N_13 
REMARK       I    between atoms: N_13  and  C_14 
REMARK    2  A    between atoms: C_14  and  C_17 
REMARK    3  A    between atoms: C_17  and  N_18 
REMARK    4  A    between atoms: C_20  and  C_23 
ROOT
HETATM    1  N   UNK     0      -7.664   1.658  -4.472  0.00  0.00    -0.205 NA
HETATM    2  C   UNK     0      -8.670   2.185  -3.711  0.00  0.00     0.281 C 
HETATM    3  O   UNK     0      -8.405   3.260  -3.126  0.00  0.00    -0.268 OA
ENDROOT
BRANCH   1   4
HETATM    4  C   UNK     0      -7.723   0.550  -5.219  0.00  0.00     0.146 C 
HETATM    5  C   UNK     0      -8.264   0.615  -6.460  0.00  0.00     0.162 C 
HETATM    6  C   UNK     0      -8.422  -0.540  -7.238  0.00  0.00     0.217 C 
HETATM    7  N   UNK     0      -8.691   1.767  -6.962  0.00  0.00    -0.143 N 
HETATM    8  C   UNK     0      -8.189  -1.825  -6.663  0.00  0.00     0.044 A 
HETATM    9  O   UNK     0      -8.787  -0.445  -8.435  0.00  0.00    -0.285 OA
HETATM   10  C   UNK     0      -8.586  -3.020  -7.306  0.00  0.00     0.003 A 
HETATM   11  C   UNK     0      -7.564  -1.894  -5.386  0.00  0.00     0.044 A 
HETATM   12  C   UNK     0      -8.366  -4.268  -6.694  0.00  0.00     0.000 A 
HETATM   13  C   UNK     0      -7.722  -4.336  -5.448  0.00  0.00     0.000 A 
HETATM   14  C   UNK     0      -7.315  -3.158  -4.800  0.00  0.00     0.003 A 
HETATM   15  C   UNK     0      -7.239  -0.672  -4.721  0.00  0.00     0.215 C 
HETATM   16  O   UNK     0      -6.534  -0.685  -3.682  0.00  0.00    -0.285 OA
ENDBRANCH   1   4
BRANCH   2  17
HETATM   17  C   UNK     0     -10.040   1.636  -3.539  0.00  0.00     0.219 C 
BRANCH  17  18
HETATM   18  N   UNK     0     -10.027   0.356  -2.901  0.00  0.00    -0.221 N 
HETATM   19  C   UNK     0     -10.650  -0.756  -3.321  0.00  0.00     0.114 A 
HETATM   20  C   UNK     0     -10.300  -1.762  -2.436  0.00  0.00     0.101 A 
HETATM   21  N   UNK     0      -9.498  -1.188  -1.524  0.00  0.00    -0.133 NA
HETATM   22  N   UNK     0      -9.360   0.067  -1.825  0.00  0.00    -0.064 NA
BRANCH  20  23
HETATM   23  C   UNK     0     -10.706  -3.188  -2.503  0.00  0.00     0.044 C 
HETATM   24  C   UNK     0      -9.583  -4.189  -2.148  0.00  0.00     0.006 C 
HETATM   25  C   UNK     0     -10.055  -5.526  -2.748  0.00  0.00     0.000 C 
HETATM   26  C   UNK     0     -10.912  -5.160  -3.980  0.00  0.00     0.000 C 
HETATM   27  C   UNK     0     -11.183  -3.639  -3.904  0.00  0.00     0.006 C 
ENDBRANCH  20  23
ENDBRANCH  17  18
ENDBRANCH   2  17
TORSDOF 4
ENDMDL
MODEL 6
REMARK VINA RESULT:      -6.4      2.415      6.496
REMARK  4 active torsions:
REMARK  status: ('A' for Active; 'I' for Inactive)
REMARK    1  A    between atoms: C_9  and  N_13 
REMARK       I    between atoms: N_13  and  C_14 
REMARK    2  A    between atoms: C_14  and  C_17 
REMARK    3  A    between atoms: C_17  and  N_18 
REMARK    4  A    between atoms: C_20  and  C_23 
ROOT
HETATM    1  N   UNK     0      -7.413   0.778  -3.465  0.00  0.00    -0.205 NA
HETATM    2  C   UNK     0      -7.666  -0.203  -2.547  0.00  0.00     0.281 C 
HETATM    3  O   UNK     0      -6.947  -0.187  -1.522  0.00  0.00    -0.268 OA
ENDROOT
BRANCH   1   4
HETATM    4  C   UNK     0      -8.074   0.992  -4.609  0.00  0.00     0.146 C 
HETATM    5  C   UNK     0      -9.085   1.894  -4.632  0.00  0.00     0.162 C 
HETATM    6  C   UNK     0      -9.855   2.082  -5.787  0.00  0.00     0.217 C 
HETATM    7  N   UNK     0      -9.398   2.600  -3.553  0.00  0.00    -0.143 N 
HETATM    8  C   UNK     0      -9.707   1.196  -6.896  0.00  0.00     0.044 A 
HETATM    9  O   UNK     0     -10.689   3.019  -5.840  0.00  0.00    -0.285 OA
HETATM   10  C   UNK     0     -10.632   1.169  -7.966  0.00  0.00     0.003 A 
HETATM   11  C   UNK     0      -8.609   0.291  -6.900  0.00  0.00     0.044 A 
HETATM   12  C   UNK     0     -10.469   0.260  -9.027  0.00  0.00     0.000 A 
HETATM   13  C   UNK     0      -9.368  -0.611  -9.045  0.00  0.00     0.000 A 
HETATM   14  C   UNK     0      -8.437  -0.591  -7.993  0.00  0.00     0.003 A 
HETATM   15  C   UNK     0      -7.730   0.284  -5.773  0.00  0.00     0.215 C 
HETATM   16  O   UNK     0      -6.657  -0.368  -5.812  0.00  0.00    -0.285 OA
ENDBRANCH   1   4
BRANCH   2  17
HETATM   17  C   UNK     0      -8.717  -1.249  -2.626  0.00  0.00     0.219 C 
BRANCH  17  18
HETATM   18  N   UNK     0      -8.342  -2.319  -3.499  0.00  0.00    -0.221 N 
HETATM   19  C   UNK     0      -8.950  -2.670  -4.643  0.00  0.00     0.114 A 
HETATM   20  C   UNK     0      -8.204  -3.706  -5.183  0.00  0.00     0.101 A 
HETATM   21  N   UNK     0      -7.199  -3.926  -4.318  0.00  0.00    -0.133 NA
HETATM   22  N   UNK     0      -7.313  -3.092  -3.331  0.00  0.00    -0.064 NA
BRANCH  20  23
HETATM   23  C   UNK     0      -8.450  -4.405  -6.468  0.00  0.00     0.044 C 
HETATM   24  C   UNK     0      -7.470  -4.025  -7.601  0.00  0.00     0.006 C 
HETATM   25  C   UNK     0      -8.190  -4.453  -8.893  0.00  0.00     0.000 C 
HETATM   26  C   UNK     0      -9.701  -4.327  -8.600  0.00  0.00     0.000 C 
HETATM   27  C   UNK     0      -9.848  -4.131  -7.073  0.00  0.00     0.006 C 
ENDBRANCH  20  23
ENDBRANCH  17  18
ENDBRANCH   2  17
TORSDOF 4
ENDMDL
MODEL 7
REMARK VINA RESULT:      -6.3      1.650      2.286
REMARK  4 active torsions:
REMARK  status: ('A' for Active; 'I' for Inactive)
REMARK    1  A    between atoms: C_9  and  N_13 
REMARK       I    between atoms: N_13  and  C_14 
REMARK    2  A    between atoms: C_14  and  C_17 
REMARK    3  A    between atoms: C_17  and  N_18 
REMARK    4  A    between atoms: C_20  and  C_23 
ROOT
HETATM    1  N   UNK     0      -7.313  -3.151  -3.548  0.00  0.00    -0.205 NA
HETATM    2  C   UNK     0      -7.701  -3.441  -4.826  0.00  0.00     0.281 C 
HETATM    3  O   UNK     0      -6.999  -4.284  -5.431  0.00  0.00    -0.268 OA
ENDROOT
BRANCH   1   4
HETATM    4  C   UNK     0      -7.926  -2.323  -2.695  0.00  0.00     0.146 C 
HETATM    5  C   UNK     0      -8.889  -2.809  -1.875  0.00  0.00     0.162 C 
HETATM    6  C   UNK     0      -9.613  -1.957  -1.030  0.00  0.00     0.217 C 
HETATM    7  N   UNK     0      -9.200  -4.099  -1.873  0.00  0.00    -0.143 N 
HETATM    8  C   UNK     0      -9.475  -0.542  -1.156  0.00  0.00     0.044 A 
HETATM    9  O   UNK     0     -10.397  -2.437  -0.176  0.00  0.00    -0.285 OA
HETATM   10  C   UNK     0     -10.365   0.360  -0.527  0.00  0.00     0.003 A 
HETATM   11  C   UNK     0      -8.423  -0.031  -1.968  0.00  0.00     0.044 A 
HETATM   12  C   UNK     0     -10.215   1.748  -0.699  0.00  0.00     0.000 A 
HETATM   13  C   UNK     0      -9.160   2.251  -1.476  0.00  0.00     0.000 A 
HETATM   14  C   UNK     0      -8.262   1.369  -2.100  0.00  0.00     0.003 A 
HETATM   15  C   UNK     0      -7.582  -0.961  -2.653  0.00  0.00     0.215 C 
HETATM   16  O   UNK     0      -6.542  -0.563  -3.235  0.00  0.00    -0.285 OA
ENDBRANCH   1   4
BRANCH   2  17
HETATM   17  C   UNK     0      -8.877  -2.892  -5.548  0.00  0.00     0.219 C 
BRANCH  17  18
HETATM   18  N   UNK     0      -8.697  -1.516  -5.894  0.00  0.00    -0.221 N 
HETATM   19  C   UNK     0      -9.573  -0.517  -5.694  0.00  0.00     0.114 A 
HETATM   20  C   UNK     0      -8.948   0.645  -6.117  0.00  0.00     0.101 A 
HETATM   21  N   UNK     0      -7.737   0.270  -6.563  0.00  0.00    -0.133 NA
HETATM   22  N   UNK     0      -7.622  -1.014  -6.421  0.00  0.00    -0.064 NA
BRANCH  20  23
HETATM   23  C   UNK     0      -9.496   2.022  -6.060  0.00  0.00     0.044 C 
HETATM   24  C   UNK     0     -10.494   2.265  -4.904  0.00  0.00     0.006 C 
HETATM   25  C   UNK     0     -11.273   3.524  -5.326  0.00  0.00     0.000 C 
HETATM   26  C   UNK     0     -11.294   3.513  -6.871  0.00  0.00     0.000 C 
HETATM   27  C   UNK     0     -10.281   2.438  -7.327  0.00  0.00     0.006 C 
ENDBRANCH  20  23
ENDBRANCH  17  18
ENDBRANCH   2  17
TORSDOF 4
ENDMDL
MODEL 8
REMARK VINA RESULT:      -6.3      2.424      5.702
REMARK  4 active torsions:
REMARK  status: ('A' for Active; 'I' for Inactive)
REMARK    1  A    between atoms: C_9  and  N_13 
REMARK       I    between atoms: N_13  and  C_14 
REMARK    2  A    between atoms: C_14  and  C_17 
REMARK    3  A    between atoms: C_17  and  N_18 
REMARK    4  A    between atoms: C_20  and  C_23 
ROOT
HETATM    1  N   UNK     0      -8.025  -1.883  -1.877  0.00  0.00    -0.205 NA
HETATM    2  C   UNK     0      -8.201  -3.230  -2.029  0.00  0.00     0.281 C 
HETATM    3  O   UNK     0      -7.707  -3.948  -1.129  0.00  0.00    -0.268 OA
ENDROOT
BRANCH   1   4
HETATM    4  C   UNK     0      -8.496  -0.920  -2.679  0.00  0.00     0.146 C 
HETATM    5  C   UNK     0      -9.736  -0.421  -2.459  0.00  0.00     0.162 C 
HETATM    6  C   UNK     0     -10.297   0.524  -3.327  0.00  0.00     0.217 C 
HETATM    7  N   UNK     0     -10.471  -0.839  -1.436  0.00  0.00    -0.143 N 
HETATM    8  C   UNK     0      -9.645   0.837  -4.558  0.00  0.00     0.044 A 
HETATM    9  O   UNK     0     -11.382   1.083  -3.032  0.00  0.00    -0.285 OA
HETATM   10  C   UNK     0     -10.287   1.569  -5.584  0.00  0.00     0.003 A 
HETATM   11  C   UNK     0      -8.318   0.365  -4.763  0.00  0.00     0.044 A 
HETATM   12  C   UNK     0      -9.622   1.832  -6.796  0.00  0.00     0.000 A 
HETATM   13  C   UNK     0      -8.303   1.392  -6.985  0.00  0.00     0.000 A 
HETATM   14  C   UNK     0      -7.649   0.670  -5.972  0.00  0.00     0.003 A 
HETATM   15  C   UNK     0      -7.717  -0.436  -3.744  0.00  0.00     0.215 C 
HETATM   16  O   UNK     0      -6.496  -0.724  -3.804  0.00  0.00    -0.285 OA
ENDBRANCH   1   4
BRANCH   2  17
HETATM   17  C   UNK     0      -8.939  -3.917  -3.119  0.00  0.00     0.219 C 
BRANCH  17  18
HETATM   18  N   UNK     0      -8.239  -3.848  -4.365  0.00  0.00    -0.221 N 
HETATM   19  C   UNK     0      -8.773  -3.602  -5.572  0.00  0.00     0.114 A 
HETATM   20  C   UNK     0      -7.716  -3.560  -6.468  0.00  0.00     0.101 A 
HETATM   21  N   UNK     0      -6.610  -3.801  -5.744  0.00  0.00    -0.133 NA
HETATM   22  N   UNK     0      -6.954  -3.971  -4.505  0.00  0.00    -0.064 NA
BRANCH  20  23
HETATM   23  C   UNK     0      -7.793  -3.277  -7.922  0.00  0.00     0.044 C 
HETATM   24  C   UNK     0      -8.666  -2.055  -8.290  0.00  0.00     0.006 C 
HETATM   25  C   UNK     0      -8.997  -2.252  -9.781  0.00  0.00     0.000 C 
HETATM   26  C   UNK     0      -9.013  -3.779 -10.014  0.00  0.00     0.000 C 
HETATM   27  C   UNK     0      -8.397  -4.433  -8.755  0.00  0.00     0.006 C 
ENDBRANCH  20  23
ENDBRANCH  17  18
ENDBRANCH   2  17
TORSDOF 4
ENDMDL
MODEL 9
REMARK VINA RESULT:      -6.2      2.000      3.755
REMARK  4 active torsions:
REMARK  status: ('A' for Active; 'I' for Inactive)
REMARK    1  A    between atoms: C_9  and  N_13 
REMARK       I    between atoms: N_13  and  C_14 
REMARK    2  A    between atoms: C_14  and  C_17 
REMARK    3  A    between atoms: C_17  and  N_18 
REMARK    4  A    between atoms: C_20  and  C_23 
ROOT
HETATM    1  N   UNK     0      -7.412  -0.039  -6.063  0.00  0.00    -0.205 NA
HETATM    2  C   UNK     0      -8.028   1.170  -5.895  0.00  0.00     0.281 C 
HETATM    3  O   UNK     0      -7.523   2.130  -6.521  0.00  0.00    -0.268 OA
ENDROOT
BRANCH   1   4
HETATM    4  C   UNK     0      -7.792  -1.209  -5.537  0.00  0.00     0.146 C 
HETATM    5  C   UNK     0      -8.545  -2.057  -6.279  0.00  0.00     0.162 C 
HETATM    6  C   UNK     0      -9.034  -3.251  -5.733  0.00  0.00     0.217 C 
HETATM    7  N   UNK     0      -8.873  -1.764  -7.531  0.00  0.00    -0.143 N 
HETATM    8  C   UNK     0      -8.901  -3.503  -4.335  0.00  0.00     0.044 A 
HETATM    9  O   UNK     0      -9.605  -4.090  -6.471  0.00  0.00    -0.285 OA
HETATM   10  C   UNK     0      -9.601  -4.549  -3.690  0.00  0.00     0.003 A 
HETATM   11  C   UNK     0      -8.059  -2.650  -3.568  0.00  0.00     0.044 A 
HETATM   12  C   UNK     0      -9.468  -4.749  -2.303  0.00  0.00     0.000 A 
HETATM   13  C   UNK     0      -8.614  -3.925  -1.553  0.00  0.00     0.000 A 
HETATM   14  C   UNK     0      -7.906  -2.887  -2.181  0.00  0.00     0.003 A 
HETATM   15  C   UNK     0      -7.421  -1.555  -4.227  0.00  0.00     0.215 C 
HETATM   16  O   UNK     0      -6.538  -0.887  -3.632  0.00  0.00    -0.285 OA
ENDBRANCH   1   4
BRANCH   2  17
HETATM   17  C   UNK     0      -9.241   1.449  -5.084  0.00  0.00     0.219 C 
BRANCH  17  18
HETATM   18  N   UNK     0      -8.951   1.483  -3.684  0.00  0.00    -0.221 N 
HETATM   19  C   UNK     0      -9.572   0.785  -2.719  0.00  0.00     0.114 A 
HETATM   20  C   UNK     0      -8.915   1.079  -1.535  0.00  0.00     0.101 A 
HETATM   21  N   UNK     0      -7.946   1.952  -1.859  0.00  0.00    -0.133 NA
HETATM   22  N   UNK     0      -7.998   2.173  -3.136  0.00  0.00    -0.064 NA
BRANCH  20  23
HETATM   23  C   UNK     0      -9.206   0.518  -0.193  0.00  0.00     0.044 C 
HETATM   24  C   UNK     0     -10.574  -0.192  -0.079  0.00  0.00     0.006 C 
HETATM   25  C   UNK     0     -10.862  -0.234   1.433  0.00  0.00     0.000 C 
HETATM   26  C   UNK     0     -10.166   1.008   2.033  0.00  0.00     0.000 C 
HETATM   27  C   UNK     0      -9.237   1.578   0.935  0.00  0.00     0.006 C 
ENDBRANCH  20  23
ENDBRANCH  17  18
ENDBRANCH   2  17
TORSDOF 4
ENDMDL
