MODEL 1
REMARK VINA RESULT:      -6.4      0.000      0.000
REMARK  6 active torsions:
REMARK  status: ('A' for Active; 'I' for Inactive)
REMARK    1  A    between atoms: C_9  and  N_13 
REMARK       I    between atoms: N_13  and  C_14 
REMARK    2  A    between atoms: C_14  and  C_17 
REMARK    3  A    between atoms: C_17  and  N_18 
REMARK    4  A    between atoms: C_20  and  C_23 
REMARK    5  A    between atoms: C_23  and  C_25 
REMARK    6  A    between atoms: C_25  and  C_26 
ROOT
HETATM    1  N   UNK     0      -8.193  -1.916  -1.742  0.00  0.00    -0.205 NA
HETATM    2  C   UNK     0      -8.335  -3.243  -2.031  0.00  0.00     0.281 C 
HETATM    3  O   UNK     0      -7.880  -4.041  -1.180  0.00  0.00    -0.268 OA
ENDROOT
BRANCH   1   4
HETATM    4  C   UNK     0      -8.603  -0.904  -2.513  0.00  0.00     0.146 C 
HETATM    5  C   UNK     0      -9.840  -0.383  -2.327  0.00  0.00     0.162 C 
HETATM    6  C   UNK     0     -10.339   0.590  -3.208  0.00  0.00     0.217 C 
HETATM    7  N   UNK     0     -10.608  -0.822  -1.331  0.00  0.00    -0.143 N 
HETATM    8  C   UNK     0      -9.626   0.898  -4.414  0.00  0.00     0.044 A 
HETATM    9  O   UNK     0     -11.437   1.149  -2.966  0.00  0.00    -0.285 OA
HETATM   10  C   UNK     0     -10.191   1.680  -5.453  0.00  0.00     0.003 A 
HETATM   11  C   UNK     0      -8.315   0.368  -4.580  0.00  0.00     0.044 A 
HETATM   12  C   UNK     0      -9.487   1.891  -6.651  0.00  0.00     0.000 A 
HETATM   13  C   UNK     0      -8.204   1.345  -6.822  0.00  0.00     0.000 A 
HETATM   14  C   UNK     0      -7.614   0.594  -5.789  0.00  0.00     0.003 A 
HETATM   15  C   UNK     0      -7.763  -0.413  -3.524  0.00  0.00     0.215 C 
HETATM   16  O   UNK     0      -6.538  -0.682  -3.501  0.00  0.00    -0.285 OA
ENDBRANCH   1   4
BRANCH   2  17
HETATM   17  C   UNK     0      -8.994  -3.826  -3.229  0.00  0.00     0.219 C 
BRANCH  17  18
HETATM   18  N   UNK     0      -8.137  -3.786  -4.370  0.00  0.00    -0.221 N 
HETATM   19  C   UNK     0      -8.487  -3.457  -5.626  0.00  0.00     0.114 A 
HETATM   20  C   UNK     0      -7.337  -3.566  -6.393  0.00  0.00     0.101 A 
HETATM   21  N   UNK     0      -6.363  -3.934  -5.545  0.00  0.00    -0.133 NA
HETATM   22  N   UNK     0      -6.867  -4.053  -4.356  0.00  0.00    -0.064 NA
BRANCH  20  23
HETATM   23  C   UNK     0      -7.199  -3.361  -7.859  0.00  0.00     0.044 C 
HETATM   24  C   UNK     0      -7.997  -4.445  -8.634  0.00  0.00     0.006 C 
BRANCH  23  25
HETATM   25  C   UNK     0      -7.634  -1.924  -8.289  0.00  0.00     0.006 C 
BRANCH  25  26
HETATM   26  C   UNK     0      -8.958  -1.896  -9.104  0.00  0.00     0.000 C 
HETATM   27  C   UNK     0     -10.175  -1.430  -8.277  0.00  0.00     0.000 C 
ENDBRANCH  25  26
ENDBRANCH  23  25
ENDBRANCH  20  23
ENDBRANCH  17  18
ENDBRANCH   2  17
TORSDOF 6
ENDMDL
MODEL 2
REMARK VINA RESULT:      -6.1      2.226      4.277
REMARK  6 active torsions:
REMARK  status: ('A' for Active; 'I' for Inactive)
REMARK    1  A    between atoms: C_9  and  N_13 
REMARK       I    between atoms: N_13  and  C_14 
REMARK    2  A    between atoms: C_14  and  C_17 
REMARK    3  A    between atoms: C_17  and  N_18 
REMARK    4  A    between atoms: C_20  and  C_23 
REMARK    5  A    between atoms: C_23  and  C_25 
REMARK    6  A    between atoms: C_25  and  C_26 
ROOT
HETATM    1  N   UNK     0      -7.784   1.242  -3.384  0.00  0.00    -0.205 NA
HETATM    2  C   UNK     0      -8.675   0.973  -2.386  0.00  0.00     0.281 C 
HETATM    3  O   UNK     0      -8.489   1.580  -1.307  0.00  0.00    -0.268 OA
ENDROOT
BRANCH   1   4
HETATM    4  C   UNK     0      -7.798   0.702  -4.607  0.00  0.00     0.146 C 
HETATM    5  C   UNK     0      -8.505   1.304  -5.593  0.00  0.00     0.162 C 
HETATM    6  C   UNK     0      -8.641   0.687  -6.848  0.00  0.00     0.217 C 
HETATM    7  N   UNK     0      -9.113   2.469  -5.367  0.00  0.00    -0.143 N 
HETATM    8  C   UNK     0      -8.197  -0.664  -7.032  0.00  0.00     0.044 A 
HETATM    9  O   UNK     0      -9.200   1.300  -7.790  0.00  0.00    -0.285 OA
HETATM   10  C   UNK     0      -8.525  -1.421  -8.186  0.00  0.00     0.003 A 
HETATM   11  C   UNK     0      -7.429  -1.273  -5.999  0.00  0.00     0.044 A 
HETATM   12  C   UNK     0      -8.136  -2.768  -8.290  0.00  0.00     0.000 A 
HETATM   13  C   UNK     0      -7.400  -3.373  -7.257  0.00  0.00     0.000 A 
HETATM   14  C   UNK     0      -7.039  -2.628  -6.120  0.00  0.00     0.003 A 
HETATM   15  C   UNK     0      -7.109  -0.496  -4.849  0.00  0.00     0.215 C 
HETATM   16  O   UNK     0      -6.231  -0.883  -4.040  0.00  0.00    -0.285 OA
ENDBRANCH   1   4
BRANCH   2  17
HETATM   17  C   UNK     0      -9.847   0.062  -2.463  0.00  0.00     0.219 C 
BRANCH  17  18
HETATM   18  N   UNK     0      -9.454  -1.307  -2.357  0.00  0.00    -0.221 N 
HETATM   19  C   UNK     0      -9.973  -2.345  -3.036  0.00  0.00     0.114 A 
HETATM   20  C   UNK     0      -9.292  -3.474  -2.603  0.00  0.00     0.101 A 
HETATM   21  N   UNK     0      -8.392  -3.038  -1.706  0.00  0.00    -0.133 NA
HETATM   22  N   UNK     0      -8.511  -1.752  -1.585  0.00  0.00    -0.064 NA
BRANCH  20  23
HETATM   23  C   UNK     0      -9.521  -4.886  -3.007  0.00  0.00     0.044 C 
HETATM   24  C   UNK     0     -10.971  -5.318  -2.657  0.00  0.00     0.006 C 
BRANCH  23  25
HETATM   25  C   UNK     0      -9.213  -5.115  -4.521  0.00  0.00     0.006 C 
BRANCH  25  26
HETATM   26  C   UNK     0     -10.488  -5.303  -5.391  0.00  0.00     0.000 C 
HETATM   27  C   UNK     0     -10.890  -4.032  -6.169  0.00  0.00     0.000 C 
ENDBRANCH  25  26
ENDBRANCH  23  25
ENDBRANCH  20  23
ENDBRANCH  17  18
ENDBRANCH   2  17
TORSDOF 6
ENDMDL
MODEL 3
REMARK VINA RESULT:      -6.1      2.546      4.907
REMARK  6 active torsions:
REMARK  status: ('A' for Active; 'I' for Inactive)
REMARK    1  A    between atoms: C_9  and  N_13 
REMARK       I    between atoms: N_13  and  C_14 
REMARK    2  A    between atoms: C_14  and  C_17 
REMARK    3  A    between atoms: C_17  and  N_18 
REMARK    4  A    between atoms: C_20  and  C_23 
REMARK    5  A    between atoms: C_23  and  C_25 
REMARK    6  A    between atoms: C_25  and  C_26 
ROOT
HETATM    1  N   UNK     0      -6.730  -0.800  -3.968  0.00  0.00    -0.205 NA
HETATM    2  C   UNK     0      -7.422  -0.562  -2.816  0.00  0.00     0.281 C 
HETATM    3  O   UNK     0      -6.748  -0.137  -1.850  0.00  0.00    -0.268 OA
ENDROOT
BRANCH   1   4
HETATM    4  C   UNK     0      -7.253  -1.257  -5.110  0.00  0.00     0.146 C 
HETATM    5  C   UNK     0      -7.697  -0.377  -6.039  0.00  0.00     0.162 C 
HETATM    6  C   UNK     0      -8.368  -0.834  -7.186  0.00  0.00     0.217 C 
HETATM    7  N   UNK     0      -7.538   0.933  -5.851  0.00  0.00    -0.143 N 
HETATM    8  C   UNK     0      -8.755  -2.211  -7.288  0.00  0.00     0.044 A 
HETATM    9  O   UNK     0      -8.676  -0.024  -8.095  0.00  0.00    -0.285 OA
HETATM   10  C   UNK     0      -9.639  -2.680  -8.292  0.00  0.00     0.003 A 
HETATM   11  C   UNK     0      -8.254  -3.129  -6.322  0.00  0.00     0.044 A 
HETATM   12  C   UNK     0     -10.054  -4.023  -8.308  0.00  0.00     0.000 A 
HETATM   13  C   UNK     0      -9.579  -4.920  -7.337  0.00  0.00     0.000 A 
HETATM   14  C   UNK     0      -8.675  -4.480  -6.353  0.00  0.00     0.003 A 
HETATM   15  C   UNK     0      -7.365  -2.640  -5.322  0.00  0.00     0.215 C 
HETATM   16  O   UNK     0      -6.698  -3.433  -4.616  0.00  0.00    -0.285 OA
ENDBRANCH   1   4
BRANCH   2  17
HETATM   17  C   UNK     0      -8.884  -0.729  -2.607  0.00  0.00     0.219 C 
BRANCH  17  18
HETATM   18  N   UNK     0      -9.246  -2.108  -2.515  0.00  0.00    -0.221 N 
HETATM   19  C   UNK     0     -10.249  -2.719  -3.167  0.00  0.00     0.114 A 
HETATM   20  C   UNK     0     -10.227  -4.046  -2.762  0.00  0.00     0.101 A 
HETATM   21  N   UNK     0      -9.198  -4.151  -1.905  0.00  0.00    -0.133 NA
HETATM   22  N   UNK     0      -8.636  -2.988  -1.783  0.00  0.00    -0.064 NA
BRANCH  20  23
HETATM   23  C   UNK     0     -11.164  -5.132  -3.152  0.00  0.00     0.044 C 
HETATM   24  C   UNK     0     -11.897  -4.764  -4.471  0.00  0.00     0.006 C 
BRANCH  23  25
HETATM   25  C   UNK     0     -10.439  -6.510  -3.273  0.00  0.00     0.006 C 
BRANCH  25  26
HETATM   26  C   UNK     0     -10.736  -7.250  -4.608  0.00  0.00     0.000 C 
HETATM   27  C   UNK     0      -9.507  -7.984  -5.187  0.00  0.00     0.000 C 
ENDBRANCH  25  26
ENDBRANCH  23  25
ENDBRANCH  20  23
ENDBRANCH  17  18
ENDBRANCH   2  17
TORSDOF 6
ENDMDL
MODEL 4
REMARK VINA RESULT:      -6.0      1.941      3.094
REMARK  6 active torsions:
REMARK  status: ('A' for Active; 'I' for Inactive)
REMARK    1  A    between atoms: C_9  and  N_13 
REMARK       I    between atoms: N_13  and  C_14 
REMARK    2  A    between atoms: C_14  and  C_17 
REMARK    3  A    between atoms: C_17  and  N_18 
REMARK    4  A    between atoms: C_20  and  C_23 
REMARK    5  A    between atoms: C_23  and  C_25 
REMARK    6  A    between atoms: C_25  and  C_26 
ROOT
HETATM    1  N   UNK     0      -7.665   1.126  -3.496  0.00  0.00    -0.205 NA
HETATM    2  C   UNK     0      -7.982   0.148  -2.598  0.00  0.00     0.281 C 
HETATM    3  O   UNK     0      -7.340   0.162  -1.523  0.00  0.00    -0.268 OA
ENDROOT
BRANCH   1   4
HETATM    4  C   UNK     0      -8.225   1.289  -4.699  0.00  0.00     0.146 C 
HETATM    5  C   UNK     0      -9.201   2.214  -4.860  0.00  0.00     0.162 C 
HETATM    6  C   UNK     0      -9.891   2.312  -6.079  0.00  0.00     0.217 C 
HETATM    7  N   UNK     0      -9.542   3.011  -3.848  0.00  0.00    -0.143 N 
HETATM    8  C   UNK     0      -9.702   1.313  -7.091  0.00  0.00     0.044 A 
HETATM    9  O   UNK     0     -10.715   3.243  -6.260  0.00  0.00    -0.285 OA
HETATM   10  C   UNK     0     -10.541   1.217  -8.230  0.00  0.00     0.003 A 
HETATM   11  C   UNK     0      -8.652   0.367  -6.922  0.00  0.00     0.044 A 
HETATM   12  C   UNK     0     -10.370   0.174  -9.157  0.00  0.00     0.000 A 
HETATM   13  C   UNK     0      -9.349  -0.773  -8.973  0.00  0.00     0.000 A 
HETATM   14  C   UNK     0      -8.486  -0.674  -7.867  0.00  0.00     0.003 A 
HETATM   15  C   UNK     0      -7.819   0.482  -5.773  0.00  0.00     0.215 C 
HETATM   16  O   UNK     0      -6.736  -0.148  -5.703  0.00  0.00    -0.285 OA
ENDBRANCH   1   4
BRANCH   2  17
HETATM   17  C   UNK     0      -9.023  -0.901  -2.757  0.00  0.00     0.219 C 
BRANCH  17  18
HETATM   18  N   UNK     0      -8.515  -2.042  -3.449  0.00  0.00    -0.221 N 
HETATM   19  C   UNK     0      -9.137  -2.736  -4.417  0.00  0.00     0.114 A 
HETATM   20  C   UNK     0      -8.272  -3.758  -4.782  0.00  0.00     0.101 A 
HETATM   21  N   UNK     0      -7.176  -3.601  -4.021  0.00  0.00    -0.133 NA
HETATM   22  N   UNK     0      -7.349  -2.576  -3.246  0.00  0.00    -0.064 NA
BRANCH  20  23
HETATM   23  C   UNK     0      -8.508  -4.838  -5.776  0.00  0.00     0.044 C 
HETATM   24  C   UNK     0      -9.413  -5.944  -5.169  0.00  0.00     0.006 C 
BRANCH  23  25
HETATM   25  C   UNK     0      -9.109  -4.282  -7.106  0.00  0.00     0.006 C 
BRANCH  25  26
HETATM   26  C   UNK     0      -8.138  -4.385  -8.316  0.00  0.00     0.000 C 
HETATM   27  C   UNK     0      -6.739  -3.798  -8.029  0.00  0.00     0.000 C 
ENDBRANCH  25  26
ENDBRANCH  23  25
ENDBRANCH  20  23
ENDBRANCH  17  18
ENDBRANCH   2  17
TORSDOF 6
ENDMDL
MODEL 5
REMARK VINA RESULT:      -6.0      2.855      5.968
REMARK  6 active torsions:
REMARK  status: ('A' for Active; 'I' for Inactive)
REMARK    1  A    between atoms: C_9  and  N_13 
REMARK       I    between atoms: N_13  and  C_14 
REMARK    2  A    between atoms: C_14  and  C_17 
REMARK    3  A    between atoms: C_17  and  N_18 
REMARK    4  A    between atoms: C_20  and  C_23 
REMARK    5  A    between atoms: C_23  and  C_25 
REMARK    6  A    between atoms: C_25  and  C_26 
ROOT
HETATM    1  N   UNK     0      -7.323  -2.271  -4.904  0.00  0.00    -0.205 NA
HETATM    2  C   UNK     0      -7.744  -1.625  -6.031  0.00  0.00     0.281 C 
HETATM    3  O   UNK     0      -7.069  -1.831  -7.065  0.00  0.00    -0.268 OA
ENDROOT
BRANCH   1   4
HETATM    4  C   UNK     0      -7.896  -2.188  -3.699  0.00  0.00     0.146 C 
HETATM    5  C   UNK     0      -8.858  -3.077  -3.355  0.00  0.00     0.162 C 
HETATM    6  C   UNK     0      -9.562  -2.929  -2.149  0.00  0.00     0.217 C 
HETATM    7  N   UNK     0      -9.172  -4.076  -4.180  0.00  0.00    -0.143 N 
HETATM    8  C   UNK     0      -9.404  -1.736  -1.369  0.00  0.00     0.044 A 
HETATM    9  O   UNK     0     -10.372  -3.817  -1.784  0.00  0.00    -0.285 OA
HETATM   10  C   UNK     0     -10.259  -1.418  -0.284  0.00  0.00     0.003 A 
HETATM   11  C   UNK     0      -8.368  -0.826  -1.725  0.00  0.00     0.044 A 
HETATM   12  C   UNK     0     -10.118  -0.200   0.404  0.00  0.00     0.000 A 
HETATM   13  C   UNK     0      -9.110   0.707   0.033  0.00  0.00     0.000 A 
HETATM   14  C   UNK     0      -8.232   0.393  -1.019  0.00  0.00     0.003 A 
HETATM   15  C   UNK     0      -7.518  -1.165  -2.816  0.00  0.00     0.215 C 
HETATM   16  O   UNK     0      -6.445  -0.543  -3.008  0.00  0.00    -0.285 OA
ENDBRANCH   1   4
BRANCH   2  17
HETATM   17  C   UNK     0      -8.929  -0.735  -6.154  0.00  0.00     0.219 C 
BRANCH  17  18
HETATM   18  N   UNK     0      -8.737   0.492  -5.448  0.00  0.00    -0.221 N 
HETATM   19  C   UNK     0      -9.602   1.073  -4.600  0.00  0.00     0.114 A 
HETATM   20  C   UNK     0      -8.998   2.243  -4.166  0.00  0.00     0.101 A 
HETATM   21  N   UNK     0      -7.797   2.281  -4.768  0.00  0.00    -0.133 NA
HETATM   22  N   UNK     0      -7.672   1.230  -5.517  0.00  0.00    -0.064 NA
BRANCH  20  23
HETATM   23  C   UNK     0      -9.561   3.275  -3.256  0.00  0.00     0.044 C 
HETATM   24  C   UNK     0     -10.813   2.722  -2.522  0.00  0.00     0.006 C 
BRANCH  23  25
HETATM   25  C   UNK     0      -8.496   3.800  -2.241  0.00  0.00     0.006 C 
BRANCH  25  26
HETATM   26  C   UNK     0      -9.071   4.809  -1.207  0.00  0.00     0.000 C 
HETATM   27  C   UNK     0      -8.780   4.416   0.257  0.00  0.00     0.000 C 
ENDBRANCH  25  26
ENDBRANCH  23  25
ENDBRANCH  20  23
ENDBRANCH  17  18
ENDBRANCH   2  17
TORSDOF 6
ENDMDL
MODEL 6
REMARK VINA RESULT:      -5.9      2.576      5.606
REMARK  6 active torsions:
REMARK  status: ('A' for Active; 'I' for Inactive)
REMARK    1  A    between atoms: C_9  and  N_13 
REMARK       I    between atoms: N_13  and  C_14 
REMARK    2  A    between atoms: C_14  and  C_17 
REMARK    3  A    between atoms: C_17  and  N_18 
REMARK    4  A    between atoms: C_20  and  C_23 
REMARK    5  A    between atoms: C_23  and  C_25 
REMARK    6  A    between atoms: C_25  and  C_26 
ROOT
HETATM    1  N   UNK     0      -7.655   1.607  -4.302  0.00  0.00    -0.205 NA
HETATM    2  C   UNK     0      -8.726   2.089  -3.605  0.00  0.00     0.281 C 
HETATM    3  O   UNK     0      -8.566   3.204  -3.057  0.00  0.00    -0.268 OA
ENDROOT
BRANCH   1   4
HETATM    4  C   UNK     0      -7.612   0.441  -4.955  0.00  0.00     0.146 C 
HETATM    5  C   UNK     0      -7.970   0.396  -6.260  0.00  0.00     0.162 C 
HETATM    6  C   UNK     0      -8.058  -0.837  -6.929  0.00  0.00     0.217 C 
HETATM    7  N   UNK     0      -8.283   1.517  -6.909  0.00  0.00    -0.143 N 
HETATM    8  C   UNK     0      -7.957  -2.061  -6.189  0.00  0.00     0.044 A 
HETATM    9  O   UNK     0      -8.279  -0.864  -8.165  0.00  0.00    -0.285 OA
HETATM   10  C   UNK     0      -8.279  -3.320  -6.756  0.00  0.00     0.003 A 
HETATM   11  C   UNK     0      -7.549  -1.999  -4.826  0.00  0.00     0.044 A 
HETATM   12  C   UNK     0      -8.242  -4.487  -5.972  0.00  0.00     0.000 A 
HETATM   13  C   UNK     0      -7.865  -4.417  -4.621  0.00  0.00     0.000 A 
HETATM   14  C   UNK     0      -7.510  -3.182  -4.050  0.00  0.00     0.003 A 
HETATM   15  C   UNK     0      -7.228  -0.725  -4.276  0.00  0.00     0.215 C 
HETATM   16  O   UNK     0      -6.623  -0.636  -3.180  0.00  0.00    -0.285 OA
ENDBRANCH   1   4
BRANCH   2  17
HETATM   17  C   UNK     0     -10.056   1.441  -3.460  0.00  0.00     0.219 C 
BRANCH  17  18
HETATM   18  N   UNK     0     -10.021   0.385  -2.499  0.00  0.00    -0.221 N 
HETATM   19  C   UNK     0     -10.627  -0.811  -2.600  0.00  0.00     0.114 A 
HETATM   20  C   UNK     0     -10.325  -1.501  -1.435  0.00  0.00     0.101 A 
HETATM   21  N   UNK     0      -9.539  -0.682  -0.717  0.00  0.00    -0.133 NA
HETATM   22  N   UNK     0      -9.376   0.424  -1.375  0.00  0.00    -0.064 NA
BRANCH  20  23
HETATM   23  C   UNK     0     -10.795  -2.851  -1.030  0.00  0.00     0.044 C 
HETATM   24  C   UNK     0     -12.327  -2.834  -0.771  0.00  0.00     0.006 C 
BRANCH  23  25
HETATM   25  C   UNK     0     -10.412  -3.941  -2.081  0.00  0.00     0.006 C 
BRANCH  25  26
HETATM   26  C   UNK     0     -11.613  -4.415  -2.947  0.00  0.00     0.000 C 
HETATM   27  C   UNK     0     -11.562  -3.895  -4.400  0.00  0.00     0.000 C 
ENDBRANCH  25  26
ENDBRANCH  23  25
ENDBRANCH  20  23
ENDBRANCH  17  18
ENDBRANCH   2  17
TORSDOF 6
ENDMDL
MODEL 7
REMARK VINA RESULT:      -5.9      2.297      4.360
REMARK  6 active torsions:
REMARK  status: ('A' for Active; 'I' for Inactive)
REMARK    1  A    between atoms: C_9  and  N_13 
REMARK       I    between atoms: N_13  and  C_14 
REMARK    2  A    between atoms: C_14  and  C_17 
REMARK    3  A    between atoms: C_17  and  N_18 
REMARK    4  A    between atoms: C_20  and  C_23 
REMARK    5  A    between atoms: C_23  and  C_25 
REMARK    6  A    between atoms: C_25  and  C_26 
ROOT
HETATM    1  N   UNK     0      -7.316  -3.136  -3.446  0.00  0.00    -0.205 NA
HETATM    2  C   UNK     0      -7.706  -3.416  -4.724  0.00  0.00     0.281 C 
HETATM    3  O   UNK     0      -6.985  -4.224  -5.353  0.00  0.00    -0.268 OA
ENDROOT
BRANCH   1   4
HETATM    4  C   UNK     0      -7.939  -2.303  -2.606  0.00  0.00     0.146 C 
HETATM    5  C   UNK     0      -8.904  -2.782  -1.786  0.00  0.00     0.162 C 
HETATM    6  C   UNK     0      -9.659  -1.905  -0.991  0.00  0.00     0.217 C 
HETATM    7  N   UNK     0      -9.172  -4.088  -1.757  0.00  0.00    -0.143 N 
HETATM    8  C   UNK     0      -9.547  -0.488  -1.184  0.00  0.00     0.044 A 
HETATM    9  O   UNK     0     -10.472  -2.363  -0.151  0.00  0.00    -0.285 OA
HETATM   10  C   UNK     0     -10.450   0.433  -0.596  0.00  0.00     0.003 A 
HETATM   11  C   UNK     0      -8.508   0.002  -2.025  0.00  0.00     0.044 A 
HETATM   12  C   UNK     0     -10.352   1.807  -0.875  0.00  0.00     0.000 A 
HETATM   13  C   UNK     0      -9.341   2.284  -1.727  0.00  0.00     0.000 A 
HETATM   14  C   UNK     0      -8.416   1.389  -2.293  0.00  0.00     0.003 A 
HETATM   15  C   UNK     0      -7.609  -0.939  -2.606  0.00  0.00     0.215 C 
HETATM   16  O   UNK     0      -6.537  -0.558  -3.133  0.00  0.00    -0.285 OA
ENDBRANCH   1   4
BRANCH   2  17
HETATM   17  C   UNK     0      -8.906  -2.884  -5.422  0.00  0.00     0.219 C 
BRANCH  17  18
HETATM   18  N   UNK     0      -8.730  -1.518  -5.798  0.00  0.00    -0.221 N 
HETATM   19  C   UNK     0      -9.626  -0.526  -5.657  0.00  0.00     0.114 A 
HETATM   20  C   UNK     0      -9.026   0.617  -6.164  0.00  0.00     0.101 A 
HETATM   21  N   UNK     0      -7.798   0.242  -6.560  0.00  0.00    -0.133 NA
HETATM   22  N   UNK     0      -7.653  -1.025  -6.327  0.00  0.00    -0.064 NA
BRANCH  20  23
HETATM   23  C   UNK     0      -9.616   1.976  -6.290  0.00  0.00     0.044 C 
HETATM   24  C   UNK     0     -10.083   2.228  -7.750  0.00  0.00     0.006 C 
BRANCH  23  25
HETATM   25  C   UNK     0     -10.783   2.199  -5.276  0.00  0.00     0.006 C 
BRANCH  25  26
HETATM   26  C   UNK     0     -10.811   3.631  -4.670  0.00  0.00     0.000 C 
HETATM   27  C   UNK     0     -12.034   3.888  -3.765  0.00  0.00     0.000 C 
ENDBRANCH  25  26
ENDBRANCH  23  25
ENDBRANCH  20  23
ENDBRANCH  17  18
ENDBRANCH   2  17
TORSDOF 6
ENDMDL
MODEL 8
REMARK VINA RESULT:      -5.9      2.361      5.373
REMARK  6 active torsions:
REMARK  status: ('A' for Active; 'I' for Inactive)
REMARK    1  A    between atoms: C_9  and  N_13 
REMARK       I    between atoms: N_13  and  C_14 
REMARK    2  A    between atoms: C_14  and  C_17 
REMARK    3  A    between atoms: C_17  and  N_18 
REMARK    4  A    between atoms: C_20  and  C_23 
REMARK    5  A    between atoms: C_23  and  C_25 
REMARK    6  A    between atoms: C_25  and  C_26 
ROOT
HETATM    1  N   UNK     0      -7.062  -2.771  -5.412  0.00  0.00    -0.205 NA
HETATM    2  C   UNK     0      -7.657  -2.356  -6.569  0.00  0.00     0.281 C 
HETATM    3  O   UNK     0      -7.018  -2.576  -7.623  0.00  0.00    -0.268 OA
ENDROOT
BRANCH   1   4
HETATM    4  C   UNK     0      -7.569  -2.632  -4.183  0.00  0.00     0.146 C 
HETATM    5  C   UNK     0      -8.333  -3.621  -3.661  0.00  0.00     0.162 C 
HETATM    6  C   UNK     0      -8.981  -3.441  -2.428  0.00  0.00     0.217 C 
HETATM    7  N   UNK     0      -8.511  -4.757  -4.335  0.00  0.00    -0.143 N 
HETATM    8  C   UNK     0      -8.994  -2.147  -1.808  0.00  0.00     0.044 A 
HETATM    9  O   UNK     0      -9.595  -4.399  -1.897  0.00  0.00    -0.285 OA
HETATM   10  C   UNK     0      -9.827  -1.843  -0.702  0.00  0.00     0.003 A 
HETATM   11  C   UNK     0      -8.161  -1.128  -2.350  0.00  0.00     0.044 A 
HETATM   12  C   UNK     0      -9.867  -0.540  -0.175  0.00  0.00     0.000 A 
HETATM   13  C   UNK     0      -9.063   0.470  -0.729  0.00  0.00     0.000 A 
HETATM   14  C   UNK     0      -8.206   0.178  -1.805  0.00  0.00     0.003 A 
HETATM   15  C   UNK     0      -7.329  -1.454  -3.459  0.00  0.00     0.215 C 
HETATM   16  O   UNK     0      -6.399  -0.688  -3.808  0.00  0.00    -0.285 OA
ENDBRANCH   1   4
BRANCH   2  17
HETATM   17  C   UNK     0      -8.985  -1.702  -6.699  0.00  0.00     0.219 C 
BRANCH  17  18
HETATM   18  N   UNK     0      -8.921  -0.315  -6.365  0.00  0.00    -0.221 N 
HETATM   19  C   UNK     0      -9.817   0.378  -5.641  0.00  0.00     0.114 A 
HETATM   20  C   UNK     0      -9.348   1.682  -5.584  0.00  0.00     0.101 A 
HETATM   21  N   UNK     0      -8.188   1.685  -6.261  0.00  0.00    -0.133 NA
HETATM   22  N   UNK     0      -7.962   0.488  -6.708  0.00  0.00    -0.064 NA
BRANCH  20  23
HETATM   23  C   UNK     0      -9.999   2.855  -4.944  0.00  0.00     0.044 C 
HETATM   24  C   UNK     0     -11.298   3.234  -5.706  0.00  0.00     0.006 C 
BRANCH  23  25
HETATM   25  C   UNK     0     -10.284   2.609  -3.429  0.00  0.00     0.006 C 
BRANCH  25  26
HETATM   26  C   UNK     0     -11.787   2.363  -3.113  0.00  0.00     0.000 C 
HETATM   27  C   UNK     0     -12.117   0.883  -2.826  0.00  0.00     0.000 C 
ENDBRANCH  25  26
ENDBRANCH  23  25
ENDBRANCH  20  23
ENDBRANCH  17  18
ENDBRANCH   2  17
TORSDOF 6
ENDMDL
MODEL 9
REMARK VINA RESULT:      -5.8      2.680      6.482
REMARK  6 active torsions:
REMARK  status: ('A' for Active; 'I' for Inactive)
REMARK    1  A    between atoms: C_9  and  N_13 
REMARK       I    between atoms: N_13  and  C_14 
REMARK    2  A    between atoms: C_14  and  C_17 
REMARK    3  A    between atoms: C_17  and  N_18 
REMARK    4  A    between atoms: C_20  and  C_23 
REMARK    5  A    between atoms: C_23  and  C_25 
REMARK    6  A    between atoms: C_25  and  C_26 
ROOT
HETATM    1  N   UNK     0      -7.552  -0.235  -6.238  0.00  0.00    -0.205 NA
HETATM    2  C   UNK     0      -8.141   0.970  -5.983  0.00  0.00     0.281 C 
HETATM    3  O   UNK     0      -7.630   1.962  -6.552  0.00  0.00    -0.268 OA
ENDROOT
BRANCH   1   4
HETATM    4  C   UNK     0      -7.936  -1.411  -5.733  0.00  0.00     0.146 C 
HETATM    5  C   UNK     0      -8.783  -2.196  -6.441  0.00  0.00     0.162 C 
HETATM    6  C   UNK     0      -9.300  -3.373  -5.875  0.00  0.00     0.217 C 
HETATM    7  N   UNK     0      -9.165  -1.835  -7.666  0.00  0.00    -0.143 N 
HETATM    8  C   UNK     0      -9.089  -3.651  -4.484  0.00  0.00     0.044 A 
HETATM    9  O   UNK     0      -9.994  -4.152  -6.574  0.00  0.00    -0.285 OA
HETATM   10  C   UNK     0      -9.783  -4.681  -3.800  0.00  0.00     0.003 A 
HETATM   11  C   UNK     0      -8.172  -2.836  -3.761  0.00  0.00     0.044 A 
HETATM   12  C   UNK     0      -9.604  -4.868  -2.419  0.00  0.00     0.000 A 
HETATM   13  C   UNK     0      -8.718  -4.044  -1.704  0.00  0.00     0.000 A 
HETATM   14  C   UNK     0      -7.996  -3.039  -2.371  0.00  0.00     0.003 A 
HETATM   15  C   UNK     0      -7.483  -1.807  -4.465  0.00  0.00     0.215 C 
HETATM   16  O   UNK     0      -6.488  -1.238  -3.955  0.00  0.00    -0.285 OA
ENDBRANCH   1   4
BRANCH   2  17
HETATM   17  C   UNK     0      -9.334   1.212  -5.129  0.00  0.00     0.219 C 
BRANCH  17  18
HETATM   18  N   UNK     0      -8.996   1.195  -3.742  0.00  0.00    -0.221 N 
HETATM   19  C   UNK     0      -9.656   0.551  -2.764  0.00  0.00     0.114 A 
HETATM   20  C   UNK     0      -8.975   0.826  -1.587  0.00  0.00     0.101 A 
HETATM   21  N   UNK     0      -7.936   1.603  -1.936  0.00  0.00    -0.133 NA
HETATM   22  N   UNK     0      -7.975   1.800  -3.218  0.00  0.00    -0.064 NA
BRANCH  20  23
HETATM   23  C   UNK     0      -9.328   0.393  -0.209  0.00  0.00     0.044 C 
HETATM   24  C   UNK     0      -9.250   1.596   0.771  0.00  0.00     0.006 C 
BRANCH  23  25
HETATM   25  C   UNK     0     -10.731  -0.290  -0.155  0.00  0.00     0.006 C 
BRANCH  25  26
HETATM   26  C   UNK     0     -10.664  -1.823   0.100  0.00  0.00     0.000 C 
HETATM   27  C   UNK     0     -11.972  -2.560  -0.258  0.00  0.00     0.000 C 
ENDBRANCH  25  26
ENDBRANCH  23  25
ENDBRANCH  20  23
ENDBRANCH  17  18
ENDBRANCH   2  17
TORSDOF 6
ENDMDL
