MODEL 1
REMARK VINA RESULT:      -6.4      0.000      0.000
REMARK  5 active torsions:
REMARK  status: ('A' for Active; 'I' for Inactive)
REMARK    1  A    between atoms: C_9  and  N_13 
REMARK       I    between atoms: N_13  and  C_14 
REMARK    2  A    between atoms: C_14  and  C_17 
REMARK    3  A    between atoms: C_17  and  N_18 
REMARK    4  A    between atoms: C_20  and  C_23 
REMARK    5  A    between atoms: C_23  and  C_24 
ROOT
HETATM    1  C   UNK     0      -8.215  -3.705  -7.050  0.00  0.00     0.003 A 
HETATM    2  C   UNK     0      -8.987  -3.964  -8.197  0.00  0.00     0.000 A 
HETATM    3  C   UNK     0      -9.545  -2.901  -8.926  0.00  0.00     0.000 A 
HETATM    4  C   UNK     0      -9.318  -1.575  -8.523  0.00  0.00     0.003 A 
HETATM    5  C   UNK     0      -8.544  -1.298  -7.371  0.00  0.00     0.044 A 
HETATM    6  C   UNK     0      -8.005  -2.377  -6.610  0.00  0.00     0.044 A 
HETATM    7  C   UNK     0      -8.300   0.036  -6.929  0.00  0.00     0.217 C 
HETATM    8  C   UNK     0      -7.745   0.263  -5.664  0.00  0.00     0.162 C 
HETATM    9  C   UNK     0      -7.272  -0.762  -4.913  0.00  0.00     0.146 C 
HETATM   10  C   UNK     0      -7.289  -2.076  -5.411  0.00  0.00     0.215 C 
HETATM   11  O   UNK     0      -6.688  -2.984  -4.786  0.00  0.00    -0.285 OA
HETATM   12  O   UNK     0      -8.594   1.008  -7.669  0.00  0.00    -0.285 OA
HETATM   13  N   UNK     0      -7.723   1.510  -5.210  0.00  0.00    -0.143 N 
ENDROOT
BRANCH   9  14
HETATM   14  N   UNK     0      -6.783  -0.502  -3.694  0.00  0.00    -0.205 NA
HETATM   15  C   UNK     0      -7.467  -0.545  -2.514  0.00  0.00     0.281 C 
HETATM   16  O   UNK     0      -6.813  -0.228  -1.494  0.00  0.00    -0.268 OA
BRANCH  15  17
HETATM   17  C   UNK     0      -8.903  -0.883  -2.334  0.00  0.00     0.219 C 
BRANCH  17  18
HETATM   18  N   UNK     0      -9.106  -2.300  -2.325  0.00  0.00    -0.221 N 
HETATM   19  C   UNK     0     -10.005  -2.997  -3.043  0.00  0.00     0.114 A 
HETATM   20  C   UNK     0      -9.800  -4.334  -2.728  0.00  0.00     0.102 A 
HETATM   21  N   UNK     0      -8.810  -4.355  -1.823  0.00  0.00    -0.133 NA
HETATM   22  N   UNK     0      -8.417  -3.137  -1.611  0.00  0.00    -0.064 NA
BRANCH  20  23
HETATM   23  C   UNK     0     -10.500  -5.524  -3.265  0.00  0.00     0.062 C 
BRANCH  23  24
HETATM   24  C   UNK     0     -10.381  -5.761  -4.783  0.00  0.00     0.074 C 
HETATM   25 Br   UNK     0      -9.574  -6.959  -5.315  0.00  0.00    -0.081 Br
ENDBRANCH  23  24
ENDBRANCH  20  23
ENDBRANCH  17  18
ENDBRANCH  15  17
ENDBRANCH   9  14
TORSDOF 5
ENDMDL
MODEL 2
REMARK VINA RESULT:      -6.2      2.168      2.814
REMARK  5 active torsions:
REMARK  status: ('A' for Active; 'I' for Inactive)
REMARK    1  A    between atoms: C_9  and  N_13 
REMARK       I    between atoms: N_13  and  C_14 
REMARK    2  A    between atoms: C_14  and  C_17 
REMARK    3  A    between atoms: C_17  and  N_18 
REMARK    4  A    between atoms: C_20  and  C_23 
REMARK    5  A    between atoms: C_23  and  C_24 
ROOT
HETATM    1  C   UNK     0      -8.542  -0.416  -8.051  0.00  0.00     0.003 A 
HETATM    2  C   UNK     0      -9.431  -0.372  -9.140  0.00  0.00     0.000 A 
HETATM    3  C   UNK     0     -10.493   0.547  -9.148  0.00  0.00     0.000 A 
HETATM    4  C   UNK     0     -10.660   1.438  -8.075  0.00  0.00     0.003 A 
HETATM    5  C   UNK     0      -9.774   1.406  -6.971  0.00  0.00     0.044 A 
HETATM    6  C   UNK     0      -8.716   0.451  -6.946  0.00  0.00     0.044 A 
HETATM    7  C   UNK     0      -9.919   2.292  -5.862  0.00  0.00     0.217 C 
HETATM    8  C   UNK     0      -9.185   2.071  -4.691  0.00  0.00     0.162 C 
HETATM    9  C   UNK     0      -8.208   1.132  -4.643  0.00  0.00     0.146 C 
HETATM   10  C   UNK     0      -7.880   0.388  -5.789  0.00  0.00     0.215 C 
HETATM   11  O   UNK     0      -6.860  -0.344  -5.783  0.00  0.00    -0.285 OA
HETATM   12  O   UNK     0     -10.713   3.263  -5.932  0.00  0.00    -0.285 OA
HETATM   13  N   UNK     0      -9.496   2.789  -3.618  0.00  0.00    -0.143 N 
ENDROOT
BRANCH   9  14
HETATM   14  N   UNK     0      -7.557   0.931  -3.491  0.00  0.00    -0.205 NA
HETATM   15  C   UNK     0      -7.822  -0.034  -2.562  0.00  0.00     0.281 C 
HETATM   16  O   UNK     0      -7.102  -0.014  -1.537  0.00  0.00    -0.268 OA
BRANCH  15  17
HETATM   17  C   UNK     0      -8.893  -1.060  -2.631  0.00  0.00     0.219 C 
BRANCH  17  18
HETATM   18  N   UNK     0      -8.474  -2.200  -3.391  0.00  0.00    -0.221 N 
HETATM   19  C   UNK     0      -9.098  -2.744  -4.451  0.00  0.00     0.114 A 
HETATM   20  C   UNK     0      -8.299  -3.800  -4.870  0.00  0.00     0.102 A 
HETATM   21  N   UNK     0      -7.260  -3.841  -4.021  0.00  0.00    -0.133 NA
HETATM   22  N   UNK     0      -7.391  -2.877  -3.162  0.00  0.00    -0.064 NA
BRANCH  20  23
HETATM   23  C   UNK     0      -8.507  -4.713  -6.018  0.00  0.00     0.062 C 
BRANCH  23  24
HETATM   24  C   UNK     0      -8.291  -4.110  -7.419  0.00  0.00     0.074 C 
HETATM   25 Br   UNK     0      -6.871  -3.741  -7.888  0.00  0.00    -0.081 Br
ENDBRANCH  23  24
ENDBRANCH  20  23
ENDBRANCH  17  18
ENDBRANCH  15  17
ENDBRANCH   9  14
TORSDOF 5
ENDMDL
MODEL 3
REMARK VINA RESULT:      -6.2      2.663      3.887
REMARK  5 active torsions:
REMARK  status: ('A' for Active; 'I' for Inactive)
REMARK    1  A    between atoms: C_9  and  N_13 
REMARK       I    between atoms: N_13  and  C_14 
REMARK    2  A    between atoms: C_14  and  C_17 
REMARK    3  A    between atoms: C_17  and  N_18 
REMARK    4  A    between atoms: C_20  and  C_23 
REMARK    5  A    between atoms: C_23  and  C_24 
ROOT
HETATM    1  C   UNK     0     -11.009   3.441  -5.720  0.00  0.00     0.003 A 
HETATM    2  C   UNK     0     -11.552   3.896  -6.935  0.00  0.00     0.000 A 
HETATM    3  C   UNK     0     -11.133   3.331  -8.150  0.00  0.00     0.000 A 
HETATM    4  C   UNK     0     -10.182   2.296  -8.155  0.00  0.00     0.003 A 
HETATM    5  C   UNK     0      -9.626   1.828  -6.940  0.00  0.00     0.044 A 
HETATM    6  C   UNK     0     -10.026   2.424  -5.708  0.00  0.00     0.044 A 
HETATM    7  C   UNK     0      -8.654   0.784  -6.909  0.00  0.00     0.217 C 
HETATM    8  C   UNK     0      -7.952   0.518  -5.728  0.00  0.00     0.162 C 
HETATM    9  C   UNK     0      -8.295   1.116  -4.560  0.00  0.00     0.146 C 
HETATM   10  C   UNK     0      -9.397   1.985  -4.503  0.00  0.00     0.215 C 
HETATM   11  O   UNK     0      -9.813   2.387  -3.388  0.00  0.00    -0.285 OA
HETATM   12  O   UNK     0      -8.420   0.112  -7.944  0.00  0.00    -0.285 OA
HETATM   13  N   UNK     0      -6.920  -0.315  -5.792  0.00  0.00    -0.143 N 
ENDROOT
BRANCH   9  14
HETATM   14  N   UNK     0      -7.572   0.858  -3.463  0.00  0.00    -0.205 NA
HETATM   15  C   UNK     0      -7.776  -0.156  -2.572  0.00  0.00     0.281 C 
HETATM   16  O   UNK     0      -6.994  -0.185  -1.594  0.00  0.00    -0.268 OA
BRANCH  15  17
HETATM   17  C   UNK     0      -8.848  -1.183  -2.627  0.00  0.00     0.219 C 
BRANCH  17  18
HETATM   18  N   UNK     0      -8.447  -2.311  -3.413  0.00  0.00    -0.221 N 
HETATM   19  C   UNK     0      -9.097  -2.843  -4.463  0.00  0.00     0.114 A 
HETATM   20  C   UNK     0      -8.308  -3.892  -4.916  0.00  0.00     0.102 A 
HETATM   21  N   UNK     0      -7.246  -3.940  -4.097  0.00  0.00    -0.133 NA
HETATM   22  N   UNK     0      -7.356  -2.988  -3.222  0.00  0.00    -0.064 NA
BRANCH  20  23
HETATM   23  C   UNK     0      -8.545  -4.790  -6.071  0.00  0.00     0.062 C 
BRANCH  23  24
HETATM   24  C   UNK     0      -8.418  -4.155  -7.469  0.00  0.00     0.074 C 
HETATM   25 Br   UNK     0      -7.126  -3.418  -7.866  0.00  0.00    -0.081 Br
ENDBRANCH  23  24
ENDBRANCH  20  23
ENDBRANCH  17  18
ENDBRANCH  15  17
ENDBRANCH   9  14
TORSDOF 5
ENDMDL
MODEL 4
REMARK VINA RESULT:      -6.2      3.143      6.402
REMARK  5 active torsions:
REMARK  status: ('A' for Active; 'I' for Inactive)
REMARK    1  A    between atoms: C_9  and  N_13 
REMARK       I    between atoms: N_13  and  C_14 
REMARK    2  A    between atoms: C_14  and  C_17 
REMARK    3  A    between atoms: C_17  and  N_18 
REMARK    4  A    between atoms: C_20  and  C_23 
REMARK    5  A    between atoms: C_23  and  C_24 
ROOT
HETATM    1  C   UNK     0      -8.097   1.375  -1.955  0.00  0.00     0.003 A 
HETATM    2  C   UNK     0      -8.942   2.263  -1.265  0.00  0.00     0.000 A 
HETATM    3  C   UNK     0     -10.011   1.770  -0.500  0.00  0.00     0.000 A 
HETATM    4  C   UNK     0     -10.230   0.385  -0.407  0.00  0.00     0.003 A 
HETATM    5  C   UNK     0      -9.390  -0.522  -1.096  0.00  0.00     0.044 A 
HETATM    6  C   UNK     0      -8.325  -0.021  -1.900  0.00  0.00     0.044 A 
HETATM    7  C   UNK     0      -9.588  -1.933  -1.030  0.00  0.00     0.217 C 
HETATM    8  C   UNK     0      -8.901  -2.777  -1.909  0.00  0.00     0.162 C 
HETATM    9  C   UNK     0      -7.918  -2.301  -2.712  0.00  0.00     0.146 C 
HETATM   10  C   UNK     0      -7.536  -0.951  -2.645  0.00  0.00     0.215 C 
HETATM   11  O   UNK     0      -6.510  -0.565  -3.257  0.00  0.00    -0.285 OA
HETATM   12  O   UNK     0     -10.389  -2.417  -0.191  0.00  0.00    -0.285 OA
HETATM   13  N   UNK     0      -9.262  -4.055  -1.954  0.00  0.00    -0.143 N 
ENDROOT
BRANCH   9  14
HETATM   14  N   UNK     0      -7.312  -3.139  -3.563  0.00  0.00    -0.205 NA
HETATM   15  C   UNK     0      -7.700  -3.426  -4.840  0.00  0.00     0.281 C 
HETATM   16  O   UNK     0      -7.000  -4.270  -5.444  0.00  0.00    -0.268 OA
BRANCH  15  17
HETATM   17  C   UNK     0      -8.881  -2.874  -5.552  0.00  0.00     0.219 C 
BRANCH  17  18
HETATM   18  N   UNK     0      -8.723  -1.475  -5.815  0.00  0.00    -0.221 N 
HETATM   19  C   UNK     0      -9.607  -0.495  -5.559  0.00  0.00     0.114 A 
HETATM   20  C   UNK     0      -8.997   0.689  -5.951  0.00  0.00     0.102 A 
HETATM   21  N   UNK     0      -7.796   0.345  -6.441  0.00  0.00    -0.133 NA
HETATM   22  N   UNK     0      -7.662  -0.942  -6.341  0.00  0.00    -0.064 NA
BRANCH  20  23
HETATM   23  C   UNK     0      -9.522   2.072  -5.856  0.00  0.00     0.062 C 
BRANCH  23  24
HETATM   24  C   UNK     0     -10.585   2.326  -4.770  0.00  0.00     0.074 C 
HETATM   25 Br   UNK     0     -10.725   3.725  -4.142  0.00  0.00    -0.081 Br
ENDBRANCH  23  24
ENDBRANCH  20  23
ENDBRANCH  17  18
ENDBRANCH  15  17
ENDBRANCH   9  14
TORSDOF 5
ENDMDL
MODEL 5
REMARK VINA RESULT:      -6.2      1.430      1.720
REMARK  5 active torsions:
REMARK  status: ('A' for Active; 'I' for Inactive)
REMARK    1  A    between atoms: C_9  and  N_13 
REMARK       I    between atoms: N_13  and  C_14 
REMARK    2  A    between atoms: C_14  and  C_17 
REMARK    3  A    between atoms: C_17  and  N_18 
REMARK    4  A    between atoms: C_20  and  C_23 
REMARK    5  A    between atoms: C_23  and  C_24 
ROOT
HETATM    1  C   UNK     0      -6.913  -2.615  -5.844  0.00  0.00     0.003 A 
HETATM    2  C   UNK     0      -7.149  -3.405  -6.983  0.00  0.00     0.000 A 
HETATM    3  C   UNK     0      -7.853  -2.874  -8.076  0.00  0.00     0.000 A 
HETATM    4  C   UNK     0      -8.309  -1.545  -8.042  0.00  0.00     0.003 A 
HETATM    5  C   UNK     0      -8.080  -0.738  -6.902  0.00  0.00     0.044 A 
HETATM    6  C   UNK     0      -7.395  -1.287  -5.778  0.00  0.00     0.044 A 
HETATM    7  C   UNK     0      -8.535   0.612  -6.830  0.00  0.00     0.217 C 
HETATM    8  C   UNK     0      -8.509   1.294  -5.608  0.00  0.00     0.162 C 
HETATM    9  C   UNK     0      -7.900   0.760  -4.521  0.00  0.00     0.146 C 
HETATM   10  C   UNK     0      -7.240  -0.476  -4.611  0.00  0.00     0.215 C 
HETATM   11  O   UNK     0      -6.530  -0.872  -3.654  0.00  0.00    -0.285 OA
HETATM   12  O   UNK     0      -8.970   1.184  -7.860  0.00  0.00    -0.285 OA
HETATM   13  N   UNK     0      -9.125   2.469  -5.539  0.00  0.00    -0.143 N 
ENDROOT
BRANCH   9  14
HETATM   14  N   UNK     0      -7.931   1.433  -3.364  0.00  0.00    -0.205 NA
HETATM   15  C   UNK     0      -8.871   1.322  -2.380  0.00  0.00     0.281 C 
HETATM   16  O   UNK     0      -8.718   2.079  -1.394  0.00  0.00    -0.268 OA
BRANCH  15  17
HETATM   17  C   UNK     0     -10.063   0.435  -2.390  0.00  0.00     0.219 C 
BRANCH  17  18
HETATM   18  N   UNK     0      -9.692  -0.936  -2.209  0.00  0.00    -0.221 N 
HETATM   19  C   UNK     0     -10.017  -1.977  -2.997  0.00  0.00     0.114 A 
HETATM   20  C   UNK     0      -9.403  -3.091  -2.440  0.00  0.00     0.102 A 
HETATM   21  N   UNK     0      -8.769  -2.655  -1.340  0.00  0.00    -0.133 NA
HETATM   22  N   UNK     0      -8.955  -1.375  -1.235  0.00  0.00    -0.064 NA
BRANCH  20  23
HETATM   23  C   UNK     0      -9.409  -4.488  -2.932  0.00  0.00     0.062 C 
BRANCH  23  24
HETATM   24  C   UNK     0      -9.878  -4.700  -4.384  0.00  0.00     0.074 C 
HETATM   25 Br   UNK     0      -9.345  -5.892  -5.199  0.00  0.00    -0.081 Br
ENDBRANCH  23  24
ENDBRANCH  20  23
ENDBRANCH  17  18
ENDBRANCH  15  17
ENDBRANCH   9  14
TORSDOF 5
ENDMDL
MODEL 6
REMARK VINA RESULT:      -6.0      2.591      4.825
REMARK  5 active torsions:
REMARK  status: ('A' for Active; 'I' for Inactive)
REMARK    1  A    between atoms: C_9  and  N_13 
REMARK       I    between atoms: N_13  and  C_14 
REMARK    2  A    between atoms: C_14  and  C_17 
REMARK    3  A    between atoms: C_17  and  N_18 
REMARK    4  A    between atoms: C_20  and  C_23 
REMARK    5  A    between atoms: C_23  and  C_24 
ROOT
HETATM    1  C   UNK     0      -8.681   0.719  -0.606  0.00  0.00     0.003 A 
HETATM    2  C   UNK     0      -9.132   1.943  -0.080  0.00  0.00     0.000 A 
HETATM    3  C   UNK     0      -9.344   3.041  -0.931  0.00  0.00     0.000 A 
HETATM    4  C   UNK     0      -9.124   2.913  -2.313  0.00  0.00     0.003 A 
HETATM    5  C   UNK     0      -8.670   1.688  -2.856  0.00  0.00     0.044 A 
HETATM    6  C   UNK     0      -8.422   0.583  -1.990  0.00  0.00     0.044 A 
HETATM    7  C   UNK     0      -8.429   1.526  -4.253  0.00  0.00     0.217 C 
HETATM    8  C   UNK     0      -7.754   0.392  -4.719  0.00  0.00     0.162 C 
HETATM    9  C   UNK     0      -7.472  -0.645  -3.891  0.00  0.00     0.146 C 
HETATM   10  C   UNK     0      -7.894  -0.620  -2.552  0.00  0.00     0.215 C 
HETATM   11  O   UNK     0      -7.788  -1.655  -1.848  0.00  0.00    -0.285 OA
HETATM   12  O   UNK     0      -8.813   2.406  -5.064  0.00  0.00    -0.285 OA
HETATM   13  N   UNK     0      -7.372   0.375  -5.991  0.00  0.00    -0.143 N 
ENDROOT
BRANCH   9  14
HETATM   14  N   UNK     0      -6.793  -1.693  -4.372  0.00  0.00    -0.205 NA
HETATM   15  C   UNK     0      -7.316  -2.779  -5.013  0.00  0.00     0.281 C 
HETATM   16  O   UNK     0      -6.493  -3.661  -5.348  0.00  0.00    -0.268 OA
BRANCH  15  17
HETATM   17  C   UNK     0      -8.751  -3.030  -5.305  0.00  0.00     0.219 C 
BRANCH  17  18
HETATM   18  N   UNK     0      -9.436  -3.532  -4.152  0.00  0.00    -0.221 N 
HETATM   19  C   UNK     0     -10.626  -3.126  -3.672  0.00  0.00     0.114 A 
HETATM   20  C   UNK     0     -10.891  -3.926  -2.569  0.00  0.00     0.102 A 
HETATM   21  N   UNK     0      -9.835  -4.744  -2.439  0.00  0.00    -0.133 NA
HETATM   22  N   UNK     0      -8.995  -4.489  -3.395  0.00  0.00    -0.064 NA
BRANCH  20  23
HETATM   23  C   UNK     0     -12.087  -3.921  -1.694  0.00  0.00     0.062 C 
BRANCH  23  24
HETATM   24  C   UNK     0     -12.281  -2.674  -0.809  0.00  0.00     0.074 C 
HETATM   25 Br   UNK     0     -11.090  -2.093  -0.026  0.00  0.00    -0.081 Br
ENDBRANCH  23  24
ENDBRANCH  20  23
ENDBRANCH  17  18
ENDBRANCH  15  17
ENDBRANCH   9  14
TORSDOF 5
ENDMDL
MODEL 7
REMARK VINA RESULT:      -5.9      2.615      4.082
REMARK  5 active torsions:
REMARK  status: ('A' for Active; 'I' for Inactive)
REMARK    1  A    between atoms: C_9  and  N_13 
REMARK       I    between atoms: N_13  and  C_14 
REMARK    2  A    between atoms: C_14  and  C_17 
REMARK    3  A    between atoms: C_17  and  N_18 
REMARK    4  A    between atoms: C_20  and  C_23 
REMARK    5  A    between atoms: C_23  and  C_24 
ROOT
HETATM    1  C   UNK     0      -9.491   1.107  -7.724  0.00  0.00     0.003 A 
HETATM    2  C   UNK     0     -10.397   2.180  -7.649  0.00  0.00     0.000 A 
HETATM    3  C   UNK     0     -10.579   2.867  -6.437  0.00  0.00     0.000 A 
HETATM    4  C   UNK     0      -9.843   2.495  -5.300  0.00  0.00     0.003 A 
HETATM    5  C   UNK     0      -8.927   1.417  -5.360  0.00  0.00     0.044 A 
HETATM    6  C   UNK     0      -8.767   0.698  -6.580  0.00  0.00     0.044 A 
HETATM    7  C   UNK     0      -8.169   1.008  -4.223  0.00  0.00     0.217 C 
HETATM    8  C   UNK     0      -7.465  -0.201  -4.250  0.00  0.00     0.162 C 
HETATM    9  C   UNK     0      -7.346  -0.916  -5.395  0.00  0.00     0.146 C 
HETATM   10  C   UNK     0      -7.892  -0.432  -6.596  0.00  0.00     0.215 C 
HETATM   11  O   UNK     0      -7.621  -1.009  -7.678  0.00  0.00    -0.285 OA
HETATM   12  O   UNK     0      -8.141   1.728  -3.193  0.00  0.00    -0.285 OA
HETATM   13  N   UNK     0      -6.943  -0.642  -3.111  0.00  0.00    -0.143 N 
ENDROOT
BRANCH   9  14
HETATM   14  N   UNK     0      -6.695  -2.086  -5.366  0.00  0.00    -0.205 NA
HETATM   15  C   UNK     0      -7.243  -3.320  -5.164  0.00  0.00     0.281 C 
HETATM   16  O   UNK     0      -6.434  -4.276  -5.141  0.00  0.00    -0.268 OA
BRANCH  15  17
HETATM   17  C   UNK     0      -8.677  -3.624  -4.927  0.00  0.00     0.219 C 
BRANCH  17  18
HETATM   18  N   UNK     0      -9.022  -3.461  -3.546  0.00  0.00    -0.221 N 
HETATM   19  C   UNK     0     -10.115  -2.855  -3.048  0.00  0.00     0.114 A 
HETATM   20  C   UNK     0     -10.029  -2.978  -1.667  0.00  0.00     0.102 A 
HETATM   21  N   UNK     0      -8.880  -3.626  -1.422  0.00  0.00    -0.133 NA
HETATM   22  N   UNK     0      -8.312  -3.903  -2.554  0.00  0.00    -0.064 NA
BRANCH  20  23
HETATM   23  C   UNK     0     -10.991  -2.514  -0.640  0.00  0.00     0.062 C 
BRANCH  23  24
HETATM   24  C   UNK     0     -10.563  -1.293   0.196  0.00  0.00     0.074 C 
HETATM   25 Br   UNK     0      -9.754  -0.158  -0.457  0.00  0.00    -0.081 Br
ENDBRANCH  23  24
ENDBRANCH  20  23
ENDBRANCH  17  18
ENDBRANCH  15  17
ENDBRANCH   9  14
TORSDOF 5
ENDMDL
MODEL 8
REMARK VINA RESULT:      -5.9      2.936      4.575
REMARK  5 active torsions:
REMARK  status: ('A' for Active; 'I' for Inactive)
REMARK    1  A    between atoms: C_9  and  N_13 
REMARK       I    between atoms: N_13  and  C_14 
REMARK    2  A    between atoms: C_14  and  C_17 
REMARK    3  A    between atoms: C_17  and  N_18 
REMARK    4  A    between atoms: C_20  and  C_23 
REMARK    5  A    between atoms: C_23  and  C_24 
ROOT
HETATM    1  C   UNK     0      -8.061   1.629  -4.160  0.00  0.00     0.003 A 
HETATM    2  C   UNK     0      -8.771   2.757  -3.711  0.00  0.00     0.000 A 
HETATM    3  C   UNK     0      -9.928   3.178  -4.387  0.00  0.00     0.000 A 
HETATM    4  C   UNK     0     -10.390   2.461  -5.504  0.00  0.00     0.003 A 
HETATM    5  C   UNK     0      -9.686   1.324  -5.968  0.00  0.00     0.044 A 
HETATM    6  C   UNK     0      -8.493   0.917  -5.303  0.00  0.00     0.044 A 
HETATM    7  C   UNK     0     -10.123   0.579  -7.103  0.00  0.00     0.217 C 
HETATM    8  C   UNK     0      -9.280  -0.380  -7.676  0.00  0.00     0.162 C 
HETATM    9  C   UNK     0      -8.119  -0.740  -7.075  0.00  0.00     0.146 C 
HETATM   10  C   UNK     0      -7.759  -0.189  -5.834  0.00  0.00     0.215 C 
HETATM   11  O   UNK     0      -6.781  -0.661  -5.205  0.00  0.00    -0.285 OA
HETATM   12  O   UNK     0     -11.260   0.790  -7.595  0.00  0.00    -0.285 OA
HETATM   13  N   UNK     0      -9.636  -0.903  -8.844  0.00  0.00    -0.143 N 
ENDROOT
BRANCH   9  14
HETATM   14  N   UNK     0      -7.326  -1.635  -7.679  0.00  0.00    -0.205 NA
HETATM   15  C   UNK     0      -7.416  -2.994  -7.590  0.00  0.00     0.281 C 
HETATM   16  O   UNK     0      -6.542  -3.638  -8.215  0.00  0.00    -0.268 OA
BRANCH  15  17
HETATM   17  C   UNK     0      -8.408  -3.768  -6.800  0.00  0.00     0.219 C 
BRANCH  17  18
HETATM   18  N   UNK     0      -8.082  -3.758  -5.405  0.00  0.00    -0.221 N 
HETATM   19  C   UNK     0      -8.922  -3.550  -4.375  0.00  0.00     0.114 A 
HETATM   20  C   UNK     0      -8.159  -3.672  -3.222  0.00  0.00     0.102 A 
HETATM   21  N   UNK     0      -6.904  -3.920  -3.630  0.00  0.00    -0.133 NA
HETATM   22  N   UNK     0      -6.894  -3.970  -4.927  0.00  0.00    -0.064 NA
BRANCH  20  23
HETATM   23  C   UNK     0      -8.599  -3.569  -1.811  0.00  0.00     0.062 C 
BRANCH  23  24
HETATM   24  C   UNK     0      -9.523  -2.385  -1.468  0.00  0.00     0.074 C 
HETATM   25 Br   UNK     0      -8.982  -0.944  -1.526  0.00  0.00    -0.081 Br
ENDBRANCH  23  24
ENDBRANCH  20  23
ENDBRANCH  17  18
ENDBRANCH  15  17
ENDBRANCH   9  14
TORSDOF 5
ENDMDL
MODEL 9
REMARK VINA RESULT:      -5.8      2.875      4.523
REMARK  5 active torsions:
REMARK  status: ('A' for Active; 'I' for Inactive)
REMARK    1  A    between atoms: C_9  and  N_13 
REMARK       I    between atoms: N_13  and  C_14 
REMARK    2  A    between atoms: C_14  and  C_17 
REMARK    3  A    between atoms: C_17  and  N_18 
REMARK    4  A    between atoms: C_20  and  C_23 
REMARK    5  A    between atoms: C_23  and  C_24 
ROOT
HETATM    1  C   UNK     0     -10.822   1.598  -7.921  0.00  0.00     0.003 A 
HETATM    2  C   UNK     0     -11.643   2.562  -7.309  0.00  0.00     0.000 A 
HETATM    3  C   UNK     0     -11.321   3.057  -6.035  0.00  0.00     0.000 A 
HETATM    4  C   UNK     0     -10.167   2.604  -5.375  0.00  0.00     0.003 A 
HETATM    5  C   UNK     0      -9.331   1.633  -5.977  0.00  0.00     0.044 A 
HETATM    6  C   UNK     0      -9.676   1.105  -7.256  0.00  0.00     0.044 A 
HETATM    7  C   UNK     0      -8.157   1.144  -5.332  0.00  0.00     0.217 C 
HETATM    8  C   UNK     0      -7.497   0.020  -5.839  0.00  0.00     0.162 C 
HETATM    9  C   UNK     0      -7.847  -0.518  -7.033  0.00  0.00     0.146 C 
HETATM   10  C   UNK     0      -8.857   0.073  -7.811  0.00  0.00     0.215 C 
HETATM   11  O   UNK     0      -9.048  -0.323  -8.987  0.00  0.00    -0.285 OA
HETATM   12  O   UNK     0      -7.722   1.716  -4.301  0.00  0.00    -0.285 OA
HETATM   13  N   UNK     0      -6.535  -0.522  -5.101  0.00  0.00    -0.143 N 
ENDROOT
BRANCH   9  14
HETATM   14  N   UNK     0      -7.212  -1.615  -7.463  0.00  0.00    -0.205 NA
HETATM   15  C   UNK     0      -7.559  -2.911  -7.209  0.00  0.00     0.281 C 
HETATM   16  O   UNK     0      -6.796  -3.782  -7.686  0.00  0.00    -0.268 OA
BRANCH  15  17
HETATM   17  C   UNK     0      -8.713  -3.377  -6.398  0.00  0.00     0.219 C 
BRANCH  17  18
HETATM   18  N   UNK     0      -8.404  -3.363  -4.999  0.00  0.00    -0.221 N 
HETATM   19  C   UNK     0      -9.176  -2.900  -4.000  0.00  0.00     0.114 A 
HETATM   20  C   UNK     0      -8.472  -3.133  -2.827  0.00  0.00     0.102 A 
HETATM   21  N   UNK     0      -7.312  -3.699  -3.195  0.00  0.00    -0.133 NA
HETATM   22  N   UNK     0      -7.305  -3.826  -4.486  0.00  0.00    -0.064 NA
BRANCH  20  23
HETATM   23  C   UNK     0      -8.884  -2.845  -1.433  0.00  0.00     0.062 C 
BRANCH  23  24
HETATM   24  C   UNK     0      -9.341  -1.403  -1.139  0.00  0.00     0.074 C 
HETATM   25 Br   UNK     0      -8.392  -0.223  -1.414  0.00  0.00    -0.081 Br
ENDBRANCH  23  24
ENDBRANCH  20  23
ENDBRANCH  17  18
ENDBRANCH  15  17
ENDBRANCH   9  14
TORSDOF 5
ENDMDL
