MODEL 1
REMARK VINA RESULT:      -8.1      0.000      0.000
REMARK  3 active torsions:
REMARK  status: ('A' for Active; 'I' for Inactive)
REMARK    1  A    between atoms: C_9  and  N_13 
REMARK       I    between atoms: N_13  and  C_14 
REMARK    2  A    between atoms: C_14  and  C_17 
REMARK    3  A    between atoms: C_17  and  N_18 
ROOT
HETATM    1  N   UNK     0      -8.829   2.059  -1.444  0.00  0.00    -0.205 NA
HETATM    2  C   UNK     0      -8.213   3.225  -1.091  0.00  0.00     0.281 C 
HETATM    3  O   UNK     0      -7.307   3.734  -1.795  0.00  0.00    -0.268 OA
ENDROOT
BRANCH   1   4
HETATM    4  C   UNK     0      -8.598   1.346  -2.560  0.00  0.00     0.146 A 
HETATM    5  C   UNK     0      -7.852   0.216  -2.479  0.00  0.00     0.162 A 
HETATM    6  C   UNK     0      -7.569  -0.553  -3.616  0.00  0.00     0.217 A 
HETATM    7  N   UNK     0      -7.354  -0.181  -1.314  0.00  0.00    -0.143 N 
HETATM    8  C   UNK     0      -7.993  -0.115  -4.905  0.00  0.00     0.044 A 
HETATM    9  O   UNK     0      -6.938  -1.632  -3.498  0.00  0.00    -0.285 OA
HETATM   10  C   UNK     0      -7.623  -0.801  -6.089  0.00  0.00     0.003 A 
HETATM   11  C   UNK     0      -8.808   1.047  -4.998  0.00  0.00     0.044 A 
HETATM   12  C   UNK     0      -8.063  -0.348  -7.345  0.00  0.00     0.000 A 
HETATM   13  C   UNK     0      -8.885   0.786  -7.435  0.00  0.00     0.000 A 
HETATM   14  C   UNK     0      -9.260   1.478  -6.271  0.00  0.00     0.003 A 
HETATM   15  C   UNK     0      -9.144   1.744  -3.796  0.00  0.00     0.215 A 
HETATM   16  O   UNK     0      -9.959   2.698  -3.839  0.00  0.00    -0.285 OA
ENDBRANCH   1   4
BRANCH   2  17
HETATM   17  C   UNK     0      -8.620   3.925   0.144  0.00  0.00     0.219 C 
BRANCH  17  18
HETATM   18  N   UNK     0      -8.050   5.229   0.298  0.00  0.00    -0.221 N 
HETATM   19  C   UNK     0      -8.521   6.391  -0.188  0.00  0.00     0.118 A 
HETATM   20  C   UNK     0      -7.713   7.392   0.339  0.00  0.00     0.123 A 
HETATM   21  N   UNK     0      -6.780   6.761   1.071  0.00  0.00    -0.129 NA
HETATM   22  C   UNK     0      -7.840   8.795   0.194  0.00  0.00     0.021 A 
HETATM   23  N   UNK     0      -7.003   5.486   1.022  0.00  0.00    -0.063 NA
HETATM   24  C   UNK     0      -7.497   9.656   1.266  0.00  0.00     0.002 A 
HETATM   25  C   UNK     0      -8.315   9.370  -1.009  0.00  0.00     0.002 A 
HETATM   26  C   UNK     0      -7.632  11.052   1.141  0.00  0.00     0.000 A 
HETATM   27  C   UNK     0      -8.096  11.608  -0.064  0.00  0.00     0.000 A 
HETATM   28  C   UNK     0      -8.438  10.766  -1.138  0.00  0.00     0.000 A 
ENDBRANCH  17  18
ENDBRANCH   2  17
TORSDOF 3
ENDMDL
MODEL 2
REMARK VINA RESULT:      -8.0      2.899      3.797
REMARK  3 active torsions:
REMARK  status: ('A' for Active; 'I' for Inactive)
REMARK    1  A    between atoms: C_9  and  N_13 
REMARK       I    between atoms: N_13  and  C_14 
REMARK    2  A    between atoms: C_14  and  C_17 
REMARK    3  A    between atoms: C_17  and  N_18 
ROOT
HETATM    1  N   UNK     0      -7.860   1.476  -3.832  0.00  0.00    -0.205 NA
HETATM    2  C   UNK     0      -9.035   2.102  -3.527  0.00  0.00     0.281 C 
HETATM    3  O   UNK     0     -10.147   1.556  -3.729  0.00  0.00    -0.268 OA
ENDROOT
BRANCH   1   4
HETATM    4  C   UNK     0      -7.729   0.233  -4.326  0.00  0.00     0.146 A 
HETATM    5  C   UNK     0      -7.588  -0.807  -3.468  0.00  0.00     0.162 A 
HETATM    6  C   UNK     0      -7.432  -2.121  -3.933  0.00  0.00     0.217 A 
HETATM    7  N   UNK     0      -7.577  -0.603  -2.156  0.00  0.00    -0.143 N 
HETATM    8  C   UNK     0      -7.334  -2.381  -5.332  0.00  0.00     0.044 A 
HETATM    9  O   UNK     0      -7.376  -3.071  -3.114  0.00  0.00    -0.285 OA
HETATM   10  C   UNK     0      -7.055  -3.676  -5.836  0.00  0.00     0.003 A 
HETATM   11  C   UNK     0      -7.519  -1.303  -6.243  0.00  0.00     0.044 A 
HETATM   12  C   UNK     0      -6.972  -3.902  -7.220  0.00  0.00     0.000 A 
HETATM   13  C   UNK     0      -7.176  -2.844  -8.119  0.00  0.00     0.000 A 
HETATM   14  C   UNK     0      -7.452  -1.554  -7.636  0.00  0.00     0.003 A 
HETATM   15  C   UNK     0      -7.767   0.002  -5.715  0.00  0.00     0.215 A 
HETATM   16  O   UNK     0      -8.053   0.942  -6.496  0.00  0.00    -0.285 OA
ENDBRANCH   1   4
BRANCH   2  17
HETATM   17  C   UNK     0      -9.013   3.453  -2.932  0.00  0.00     0.219 C 
BRANCH  17  18
HETATM   18  N   UNK     0      -8.866   3.468  -1.508  0.00  0.00    -0.221 N 
HETATM   19  C   UNK     0      -8.451   4.489  -0.738  0.00  0.00     0.118 A 
HETATM   20  C   UNK     0      -8.608   4.076   0.579  0.00  0.00     0.123 A 
HETATM   21  N   UNK     0      -9.065   2.815   0.515  0.00  0.00    -0.129 NA
HETATM   22  C   UNK     0      -8.387   4.815   1.767  0.00  0.00     0.021 A 
HETATM   23  N   UNK     0      -9.201   2.484  -0.730  0.00  0.00    -0.063 NA
HETATM   24  C   UNK     0      -9.218   4.613   2.897  0.00  0.00     0.002 A 
HETATM   25  C   UNK     0      -7.345   5.770   1.856  0.00  0.00     0.002 A 
HETATM   26  C   UNK     0      -9.018   5.351   4.080  0.00  0.00     0.000 A 
HETATM   27  C   UNK     0      -7.974   6.289   4.155  0.00  0.00     0.000 A 
HETATM   28  C   UNK     0      -7.138   6.498   3.043  0.00  0.00     0.000 A 
ENDBRANCH  17  18
ENDBRANCH   2  17
TORSDOF 3
ENDMDL
MODEL 3
REMARK VINA RESULT:      -7.9      1.091      2.212
REMARK  3 active torsions:
REMARK  status: ('A' for Active; 'I' for Inactive)
REMARK    1  A    between atoms: C_9  and  N_13 
REMARK       I    between atoms: N_13  and  C_14 
REMARK    2  A    between atoms: C_14  and  C_17 
REMARK    3  A    between atoms: C_17  and  N_18 
ROOT
HETATM    1  N   UNK     0      -9.054   2.605  -1.620  0.00  0.00    -0.205 NA
HETATM    2  C   UNK     0      -8.230   3.556  -1.088  0.00  0.00     0.281 C 
HETATM    3  O   UNK     0      -7.186   3.930  -1.676  0.00  0.00    -0.268 OA
ENDROOT
BRANCH   1   4
HETATM    4  C   UNK     0      -8.898   1.996  -2.807  0.00  0.00     0.146 A 
HETATM    5  C   UNK     0      -9.523   2.506  -3.898  0.00  0.00     0.162 A 
HETATM    6  C   UNK     0      -9.406   1.898  -5.156  0.00  0.00     0.217 A 
HETATM    7  N   UNK     0     -10.281   3.591  -3.795  0.00  0.00    -0.143 N 
HETATM    8  C   UNK     0      -8.687   0.674  -5.299  0.00  0.00     0.044 A 
HETATM    9  O   UNK     0      -9.936   2.433  -6.160  0.00  0.00    -0.285 OA
HETATM   10  C   UNK     0      -8.648  -0.033  -6.527  0.00  0.00     0.003 A 
HETATM   11  C   UNK     0      -7.996   0.151  -4.171  0.00  0.00     0.044 A 
HETATM   12  C   UNK     0      -7.927  -1.233  -6.638  0.00  0.00     0.000 A 
HETATM   13  C   UNK     0      -7.226  -1.738  -5.532  0.00  0.00     0.000 A 
HETATM   14  C   UNK     0      -7.256  -1.050  -4.307  0.00  0.00     0.003 A 
HETATM   15  C   UNK     0      -8.074   0.860  -2.932  0.00  0.00     0.215 A 
HETATM   16  O   UNK     0      -7.376   0.486  -1.958  0.00  0.00    -0.285 OA
ENDBRANCH   1   4
BRANCH   2  17
HETATM   17  C   UNK     0      -8.569   4.178   0.208  0.00  0.00     0.219 C 
BRANCH  17  18
HETATM   18  N   UNK     0      -7.992   5.474   0.409  0.00  0.00    -0.221 N 
HETATM   19  C   UNK     0      -8.428   6.648  -0.078  0.00  0.00     0.118 A 
HETATM   20  C   UNK     0      -7.634   7.631   0.501  0.00  0.00     0.123 A 
HETATM   21  N   UNK     0      -6.742   6.977   1.263  0.00  0.00    -0.129 NA
HETATM   22  C   UNK     0      -7.739   9.038   0.374  0.00  0.00     0.021 A 
HETATM   23  N   UNK     0      -6.976   5.706   1.183  0.00  0.00    -0.063 NA
HETATM   24  C   UNK     0      -7.435   9.877   1.474  0.00  0.00     0.002 A 
HETATM   25  C   UNK     0      -8.153   9.638  -0.840  0.00  0.00     0.002 A 
HETATM   26  C   UNK     0      -7.549  11.276   1.366  0.00  0.00     0.000 A 
HETATM   27  C   UNK     0      -7.952  11.857   0.151  0.00  0.00     0.000 A 
HETATM   28  C   UNK     0      -8.254  11.037  -0.951  0.00  0.00     0.000 A 
ENDBRANCH  17  18
ENDBRANCH   2  17
TORSDOF 3
ENDMDL
MODEL 4
REMARK VINA RESULT:      -7.9     13.548     17.332
REMARK  3 active torsions:
REMARK  status: ('A' for Active; 'I' for Inactive)
REMARK    1  A    between atoms: C_9  and  N_13 
REMARK       I    between atoms: N_13  and  C_14 
REMARK    2  A    between atoms: C_14  and  C_17 
REMARK    3  A    between atoms: C_17  and  N_18 
ROOT
HETATM    1  N   UNK     0       2.747  -2.543 -10.793  0.00  0.00    -0.205 NA
HETATM    2  C   UNK     0       4.078  -2.499 -11.096  0.00  0.00     0.281 C 
HETATM    3  O   UNK     0       4.532  -1.722 -11.971  0.00  0.00    -0.268 OA
ENDROOT
BRANCH   1   4
HETATM    4  C   UNK     0       1.786  -1.771 -11.328  0.00  0.00     0.146 A 
HETATM    5  C   UNK     0       1.174  -2.175 -12.469  0.00  0.00     0.162 A 
HETATM    6  C   UNK     0       0.177  -1.398 -13.076  0.00  0.00     0.217 A 
HETATM    7  N   UNK     0       1.520  -3.317 -13.052  0.00  0.00    -0.143 N 
HETATM    8  C   UNK     0      -0.157  -0.116 -12.547  0.00  0.00     0.044 A 
HETATM    9  O   UNK     0      -0.422  -1.832 -14.090  0.00  0.00    -0.285 OA
HETATM   10  C   UNK     0      -1.071   0.748 -13.200  0.00  0.00     0.003 A 
HETATM   11  C   UNK     0       0.450   0.301 -11.330  0.00  0.00     0.044 A 
HETATM   12  C   UNK     0      -1.385   2.003 -12.651  0.00  0.00     0.000 A 
HETATM   13  C   UNK     0      -0.803   2.406 -11.439  0.00  0.00     0.000 A 
HETATM   14  C   UNK     0       0.105   1.560 -10.779  0.00  0.00     0.003 A 
HETATM   15  C   UNK     0       1.394  -0.571 -10.704  0.00  0.00     0.215 A 
HETATM   16  O   UNK     0       1.850  -0.279  -9.571  0.00  0.00    -0.285 OA
ENDBRANCH   1   4
BRANCH   2  17
HETATM   17  C   UNK     0       5.023  -3.375 -10.375  0.00  0.00     0.219 C 
BRANCH  17  18
HETATM   18  N   UNK     0       4.585  -4.732 -10.241  0.00  0.00    -0.221 N 
HETATM   19  C   UNK     0       4.663  -5.513  -9.149  0.00  0.00     0.118 A 
HETATM   20  C   UNK     0       3.985  -6.686  -9.458  0.00  0.00     0.123 A 
HETATM   21  N   UNK     0       3.583  -6.551 -10.733  0.00  0.00    -0.129 NA
HETATM   22  C   UNK     0       3.715  -7.795  -8.620  0.00  0.00     0.021 A 
HETATM   23  N   UNK     0       3.958  -5.390 -11.167  0.00  0.00    -0.063 NA
HETATM   24  C   UNK     0       2.498  -8.509  -8.751  0.00  0.00     0.002 A 
HETATM   25  C   UNK     0       4.640  -8.213  -7.632  0.00  0.00     0.002 A 
HETATM   26  C   UNK     0       2.211  -9.604  -7.915  0.00  0.00     0.000 A 
HETATM   27  C   UNK     0       3.143 -10.013  -6.946  0.00  0.00     0.000 A 
HETATM   28  C   UNK     0       4.357  -9.316  -6.804  0.00  0.00     0.000 A 
ENDBRANCH  17  18
ENDBRANCH   2  17
TORSDOF 3
ENDMDL
MODEL 5
REMARK VINA RESULT:      -7.7      2.329      3.047
REMARK  3 active torsions:
REMARK  status: ('A' for Active; 'I' for Inactive)
REMARK    1  A    between atoms: C_9  and  N_13 
REMARK       I    between atoms: N_13  and  C_14 
REMARK    2  A    between atoms: C_14  and  C_17 
REMARK    3  A    between atoms: C_17  and  N_18 
ROOT
HETATM    1  N   UNK     0      -8.967   2.995  -1.852  0.00  0.00    -0.205 NA
HETATM    2  C   UNK     0      -8.087   3.992  -1.539  0.00  0.00     0.281 C 
HETATM    3  O   UNK     0      -6.862   3.896  -1.791  0.00  0.00    -0.268 OA
ENDROOT
BRANCH   1   4
HETATM    4  C   UNK     0      -8.671   1.846  -2.482  0.00  0.00     0.146 A 
HETATM    5  C   UNK     0      -8.471   0.723  -1.747  0.00  0.00     0.162 A 
HETATM    6  C   UNK     0      -8.144  -0.497  -2.355  0.00  0.00     0.217 A 
HETATM    7  N   UNK     0      -8.563   0.758  -0.423  0.00  0.00    -0.143 N 
HETATM    8  C   UNK     0      -7.932  -0.565  -3.764  0.00  0.00     0.044 A 
HETATM    9  O   UNK     0      -8.037  -1.534  -1.655  0.00  0.00    -0.285 OA
HETATM   10  C   UNK     0      -7.483  -1.750  -4.398  0.00  0.00     0.003 A 
HETATM   11  C   UNK     0      -8.176   0.596  -4.549  0.00  0.00     0.044 A 
HETATM   12  C   UNK     0      -7.290  -1.788  -5.789  0.00  0.00     0.000 A 
HETATM   13  C   UNK     0      -7.552  -0.649  -6.566  0.00  0.00     0.000 A 
HETATM   14  C   UNK     0      -7.996   0.535  -5.953  0.00  0.00     0.003 A 
HETATM   15  C   UNK     0      -8.597   1.792  -3.887  0.00  0.00     0.215 A 
HETATM   16  O   UNK     0      -8.935   2.791  -4.569  0.00  0.00    -0.285 OA
ENDBRANCH   1   4
BRANCH   2  17
HETATM   17  C   UNK     0      -8.578   5.228  -0.896  0.00  0.00     0.219 C 
BRANCH  17  18
HETATM   18  N   UNK     0      -8.272   5.328   0.499  0.00  0.00    -0.221 N 
HETATM   19  C   UNK     0      -7.416   6.179   1.091  0.00  0.00     0.118 A 
HETATM   20  C   UNK     0      -7.564   5.995   2.460  0.00  0.00     0.123 A 
HETATM   21  N   UNK     0      -8.469   5.012   2.601  0.00  0.00    -0.129 NA
HETATM   22  C   UNK     0      -6.944   6.705   3.517  0.00  0.00     0.021 A 
HETATM   23  N   UNK     0      -8.862   4.636   1.426  0.00  0.00    -0.063 NA
HETATM   24  C   UNK     0      -7.653   6.959   4.718  0.00  0.00     0.002 A 
HETATM   25  C   UNK     0      -5.617   7.183   3.403  0.00  0.00     0.002 A 
HETATM   26  C   UNK     0      -7.054   7.675   5.771  0.00  0.00     0.000 A 
HETATM   27  C   UNK     0      -5.732   8.135   5.646  0.00  0.00     0.000 A 
HETATM   28  C   UNK     0      -5.014   7.889   4.461  0.00  0.00     0.000 A 
ENDBRANCH  17  18
ENDBRANCH   2  17
TORSDOF 3
ENDMDL
MODEL 6
REMARK VINA RESULT:      -7.6     13.066     17.154
REMARK  3 active torsions:
REMARK  status: ('A' for Active; 'I' for Inactive)
REMARK    1  A    between atoms: C_9  and  N_13 
REMARK       I    between atoms: N_13  and  C_14 
REMARK    2  A    between atoms: C_14  and  C_17 
REMARK    3  A    between atoms: C_17  and  N_18 
ROOT
HETATM    1  N   UNK     0       2.593  -1.993 -12.005  0.00  0.00    -0.205 NA
HETATM    2  C   UNK     0       2.504  -3.246 -11.470  0.00  0.00     0.281 C 
HETATM    3  O   UNK     0       1.491  -3.622 -10.831  0.00  0.00    -0.268 OA
ENDROOT
BRANCH   1   4
HETATM    4  C   UNK     0       1.642  -1.044 -11.964  0.00  0.00     0.146 A 
HETATM    5  C   UNK     0       1.638  -0.157 -10.938  0.00  0.00     0.162 A 
HETATM    6  C   UNK     0       0.658   0.841 -10.841  0.00  0.00     0.217 A 
HETATM    7  N   UNK     0       2.559  -0.225  -9.984  0.00  0.00    -0.143 N 
HETATM    8  C   UNK     0      -0.411   0.893 -11.783  0.00  0.00     0.044 A 
HETATM    9  O   UNK     0       0.724   1.693  -9.921  0.00  0.00    -0.285 OA
HETATM   10  C   UNK     0      -1.484   1.809 -11.649  0.00  0.00     0.003 A 
HETATM   11  C   UNK     0      -0.397  -0.008 -12.884  0.00  0.00     0.044 A 
HETATM   12  C   UNK     0      -2.521   1.840 -12.597  0.00  0.00     0.000 A 
HETATM   13  C   UNK     0      -2.496   0.967 -13.695  0.00  0.00     0.000 A 
HETATM   14  C   UNK     0      -1.440   0.052 -13.842  0.00  0.00     0.003 A 
HETATM   15  C   UNK     0       0.676  -0.947 -12.985  0.00  0.00     0.215 A 
HETATM   16  O   UNK     0       0.776  -1.667 -14.008  0.00  0.00    -0.285 OA
ENDBRANCH   1   4
BRANCH   2  17
HETATM   17  C   UNK     0       3.615  -4.201 -11.650  0.00  0.00     0.219 C 
BRANCH  17  18
HETATM   18  N   UNK     0       3.915  -4.983 -10.488  0.00  0.00    -0.221 N 
HETATM   19  C   UNK     0       3.384  -6.168 -10.140  0.00  0.00     0.118 A 
HETATM   20  C   UNK     0       4.085  -6.597  -9.019  0.00  0.00     0.123 A 
HETATM   21  N   UNK     0       4.962  -5.618  -8.740  0.00  0.00    -0.129 NA
HETATM   22  C   UNK     0       3.962  -7.820  -8.317  0.00  0.00     0.021 A 
HETATM   23  N   UNK     0       4.833  -4.678  -9.622  0.00  0.00    -0.063 NA
HETATM   24  C   UNK     0       5.105  -8.434  -7.748  0.00  0.00     0.002 A 
HETATM   25  C   UNK     0       2.708  -8.462  -8.172  0.00  0.00     0.002 A 
HETATM   26  C   UNK     0       4.999  -9.658  -7.059  0.00  0.00     0.000 A 
HETATM   27  C   UNK     0       3.745 -10.277  -6.916  0.00  0.00     0.000 A 
HETATM   28  C   UNK     0       2.600  -9.679  -7.473  0.00  0.00     0.000 A 
ENDBRANCH  17  18
ENDBRANCH   2  17
TORSDOF 3
ENDMDL
MODEL 7
REMARK VINA RESULT:      -7.5      1.990      3.343
REMARK  3 active torsions:
REMARK  status: ('A' for Active; 'I' for Inactive)
REMARK    1  A    between atoms: C_9  and  N_13 
REMARK       I    between atoms: N_13  and  C_14 
REMARK    2  A    between atoms: C_14  and  C_17 
REMARK    3  A    between atoms: C_17  and  N_18 
ROOT
HETATM    1  N   UNK     0      -8.053   1.028  -2.404  0.00  0.00    -0.205 NA
HETATM    2  C   UNK     0      -9.165   0.955  -1.615  0.00  0.00     0.281 C 
HETATM    3  O   UNK     0     -10.208   0.372  -1.995  0.00  0.00    -0.268 OA
ENDROOT
BRANCH   1   4
HETATM    4  C   UNK     0      -7.907   0.477  -3.621  0.00  0.00     0.146 A 
HETATM    5  C   UNK     0      -8.118   1.242  -4.721  0.00  0.00     0.162 A 
HETATM    6  C   UNK     0      -7.994   0.711  -6.013  0.00  0.00     0.217 A 
HETATM    7  N   UNK     0      -8.467   2.517  -4.599  0.00  0.00    -0.143 N 
HETATM    8  C   UNK     0      -7.722  -0.677  -6.196  0.00  0.00     0.044 A 
HETATM    9  O   UNK     0      -8.124   1.461  -7.011  0.00  0.00    -0.285 OA
HETATM   10  C   UNK     0      -7.710  -1.274  -7.481  0.00  0.00     0.003 A 
HETATM   11  C   UNK     0      -7.461  -1.480  -5.051  0.00  0.00     0.044 A 
HETATM   12  C   UNK     0      -7.433  -2.644  -7.631  0.00  0.00     0.000 A 
HETATM   13  C   UNK     0      -7.154  -3.432  -6.504  0.00  0.00     0.000 A 
HETATM   14  C   UNK     0      -7.163  -2.855  -5.222  0.00  0.00     0.003 A 
HETATM   15  C   UNK     0      -7.511  -0.867  -3.761  0.00  0.00     0.215 A 
HETATM   16  O   UNK     0      -7.166  -1.524  -2.749  0.00  0.00    -0.285 OA
ENDBRANCH   1   4
BRANCH   2  17
HETATM   17  C   UNK     0      -9.151   1.565  -0.270  0.00  0.00     0.219 C 
BRANCH  17  18
HETATM   18  N   UNK     0      -9.419   2.971  -0.257  0.00  0.00    -0.221 N 
HETATM   19  C   UNK     0      -8.549   3.969  -0.020  0.00  0.00     0.118 A 
HETATM   20  C   UNK     0      -9.238   5.153  -0.256  0.00  0.00     0.123 A 
HETATM   21  N   UNK     0     -10.491   4.789  -0.575  0.00  0.00    -0.129 NA
HETATM   22  C   UNK     0      -8.746   6.481  -0.221  0.00  0.00     0.021 A 
HETATM   23  N   UNK     0     -10.567   3.497  -0.561  0.00  0.00    -0.063 NA
HETATM   24  C   UNK     0      -9.244   7.449  -1.129  0.00  0.00     0.002 A 
HETATM   25  C   UNK     0      -7.749   6.872   0.705  0.00  0.00     0.002 A 
HETATM   26  C   UNK     0      -8.754   8.769  -1.115  0.00  0.00     0.000 A 
HETATM   27  C   UNK     0      -7.771   9.144  -0.183  0.00  0.00     0.000 A 
HETATM   28  C   UNK     0      -7.268   8.194   0.726  0.00  0.00     0.000 A 
ENDBRANCH  17  18
ENDBRANCH   2  17
TORSDOF 3
ENDMDL
MODEL 8
REMARK VINA RESULT:      -7.5      2.078      9.224
REMARK  3 active torsions:
REMARK  status: ('A' for Active; 'I' for Inactive)
REMARK    1  A    between atoms: C_9  and  N_13 
REMARK       I    between atoms: N_13  and  C_14 
REMARK    2  A    between atoms: C_14  and  C_17 
REMARK    3  A    between atoms: C_17  and  N_18 
ROOT
HETATM    1  N   UNK     0      -9.278   3.475  -0.771  0.00  0.00    -0.205 NA
HETATM    2  C   UNK     0      -8.377   2.621  -1.341  0.00  0.00     0.281 C 
HETATM    3  O   UNK     0      -7.448   3.035  -2.077  0.00  0.00    -0.268 OA
ENDROOT
BRANCH   1   4
HETATM    4  C   UNK     0      -9.275   4.815  -0.874  0.00  0.00     0.146 A 
HETATM    5  C   UNK     0      -9.985   5.402  -1.869  0.00  0.00     0.162 A 
HETATM    6  C   UNK     0     -10.002   6.795  -2.029  0.00  0.00     0.217 A 
HETATM    7  N   UNK     0     -10.674   4.664  -2.732  0.00  0.00    -0.143 N 
HETATM    8  C   UNK     0      -9.198   7.624  -1.192  0.00  0.00     0.044 A 
HETATM    9  O   UNK     0     -10.727   7.313  -2.913  0.00  0.00    -0.285 OA
HETATM   10  C   UNK     0      -9.094   9.022  -1.400  0.00  0.00     0.003 A 
HETATM   11  C   UNK     0      -8.479   7.023  -0.121  0.00  0.00     0.044 A 
HETATM   12  C   UNK     0      -8.299   9.814  -0.555  0.00  0.00     0.000 A 
HETATM   13  C   UNK     0      -7.607   9.225   0.514  0.00  0.00     0.000 A 
HETATM   14  C   UNK     0      -7.699   7.840   0.734  0.00  0.00     0.003 A 
HETATM   15  C   UNK     0      -8.570   5.607   0.053  0.00  0.00     0.215 A 
HETATM   16  O   UNK     0      -8.044   5.071   1.059  0.00  0.00    -0.285 OA
ENDBRANCH   1   4
BRANCH   2  17
HETATM   17  C   UNK     0      -8.479   1.170  -1.086  0.00  0.00     0.219 C 
BRANCH  17  18
HETATM   18  N   UNK     0      -8.104   0.348  -2.197  0.00  0.00    -0.221 N 
HETATM   19  C   UNK     0      -8.849   0.033  -3.270  0.00  0.00     0.118 A 
HETATM   20  C   UNK     0      -8.014  -0.664  -4.136  0.00  0.00     0.123 A 
HETATM   21  N   UNK     0      -6.833  -0.761  -3.504  0.00  0.00    -0.129 NA
HETATM   22  C   UNK     0      -8.298  -1.147  -5.436  0.00  0.00     0.021 A 
HETATM   23  N   UNK     0      -6.920  -0.160  -2.360  0.00  0.00    -0.063 NA
HETATM   24  C   UNK     0      -7.290  -1.146  -6.433  0.00  0.00     0.002 A 
HETATM   25  C   UNK     0      -9.584  -1.632  -5.776  0.00  0.00     0.002 A 
HETATM   26  C   UNK     0      -7.562  -1.611  -7.733  0.00  0.00     0.000 A 
HETATM   27  C   UNK     0      -8.842  -2.098  -8.053  0.00  0.00     0.000 A 
HETATM   28  C   UNK     0      -9.852  -2.108  -7.074  0.00  0.00     0.000 A 
ENDBRANCH  17  18
ENDBRANCH   2  17
TORSDOF 3
ENDMDL
MODEL 9
REMARK VINA RESULT:      -7.5     13.251     16.288
REMARK  3 active torsions:
REMARK  status: ('A' for Active; 'I' for Inactive)
REMARK    1  A    between atoms: C_9  and  N_13 
REMARK       I    between atoms: N_13  and  C_14 
REMARK    2  A    between atoms: C_14  and  C_17 
REMARK    3  A    between atoms: C_17  and  N_18 
ROOT
HETATM    1  N   UNK     0       4.496  -2.713 -11.251  0.00  0.00    -0.205 NA
HETATM    2  C   UNK     0       4.013  -1.517 -10.802  0.00  0.00     0.281 C 
HETATM    3  O   UNK     0       3.934  -1.254  -9.577  0.00  0.00    -0.268 OA
ENDROOT
BRANCH   1   4
HETATM    4  C   UNK     0       4.972  -3.712 -10.489  0.00  0.00     0.146 A 
HETATM    5  C   UNK     0       6.307  -3.792 -10.263  0.00  0.00     0.162 A 
HETATM    6  C   UNK     0       6.856  -4.824  -9.489  0.00  0.00     0.217 A 
HETATM    7  N   UNK     0       7.135  -2.896 -10.789  0.00  0.00    -0.143 N 
HETATM    8  C   UNK     0       6.022  -5.867  -8.987  0.00  0.00     0.044 A 
HETATM    9  O   UNK     0       8.086  -4.830  -9.237  0.00  0.00    -0.285 OA
HETATM   10  C   UNK     0       6.555  -6.989  -8.305  0.00  0.00     0.003 A 
HETATM   11  C   UNK     0       4.616  -5.774  -9.184  0.00  0.00     0.044 A 
HETATM   12  C   UNK     0       5.708  -7.998  -7.817  0.00  0.00     0.000 A 
HETATM   13  C   UNK     0       4.319  -7.895  -7.992  0.00  0.00     0.000 A 
HETATM   14  C   UNK     0       3.775  -6.790  -8.667  0.00  0.00     0.003 A 
HETATM   15  C   UNK     0       4.101  -4.651  -9.904  0.00  0.00     0.215 A 
HETATM   16  O   UNK     0       2.859  -4.485  -9.985  0.00  0.00    -0.285 OA
ENDBRANCH   1   4
BRANCH   2  17
HETATM   17  C   UNK     0       3.579  -0.491 -11.770  0.00  0.00     0.219 C 
BRANCH  17  18
HETATM   18  N   UNK     0       2.161  -0.310 -11.842  0.00  0.00    -0.221 N 
HETATM   19  C   UNK     0       1.490   0.845 -11.995  0.00  0.00     0.118 A 
HETATM   20  C   UNK     0       0.152   0.503 -12.150  0.00  0.00     0.123 A 
HETATM   21  N   UNK     0       0.101  -0.834 -12.034  0.00  0.00    -0.129 NA
HETATM   22  C   UNK     0      -0.950   1.352 -12.419  0.00  0.00     0.021 A 
HETATM   23  N   UNK     0       1.301  -1.283 -11.847  0.00  0.00    -0.063 NA
HETATM   24  C   UNK     0      -2.012   0.902 -13.242  0.00  0.00     0.002 A 
HETATM   25  C   UNK     0      -1.016   2.662 -11.886  0.00  0.00     0.002 A 
HETATM   26  C   UNK     0      -3.106   1.740 -13.529  0.00  0.00     0.000 A 
HETATM   27  C   UNK     0      -3.162   3.034 -12.985  0.00  0.00     0.000 A 
HETATM   28  C   UNK     0      -2.117   3.495 -12.164  0.00  0.00     0.000 A 
ENDBRANCH  17  18
ENDBRANCH   2  17
TORSDOF 3
ENDMDL
