MODEL 1
REMARK VINA RESULT:      -6.7      0.000      0.000
REMARK  5 active torsions:
REMARK  status: ('A' for Active; 'I' for Inactive)
REMARK    1  A    between atoms: C_9  and  N_13 
REMARK       I    between atoms: N_13  and  C_14 
REMARK    2  A    between atoms: C_14  and  C_17 
REMARK    3  A    between atoms: C_17  and  N_18 
REMARK    4  A    between atoms: C_20  and  C_23 
REMARK    5  A    between atoms: C_23  and  C_24 
ROOT
HETATM    1  N   UNK     0      -6.756  -0.666  -3.939  0.00  0.00    -0.205 NA
HETATM    2  C   UNK     0      -7.426  -0.596  -2.752  0.00  0.00     0.281 C 
HETATM    3  O   UNK     0      -6.760  -0.180  -1.777  0.00  0.00    -0.268 OA
ENDROOT
BRANCH   2   4
HETATM    4  C   UNK     0      -8.858  -0.919  -2.522  0.00  0.00     0.219 C 
BRANCH   4   5
HETATM    5  N   UNK     0      -9.056  -2.330  -2.387  0.00  0.00    -0.221 N 
HETATM    6  C   UNK     0      -9.984  -3.084  -3.006  0.00  0.00     0.114 A 
HETATM    7  C   UNK     0      -9.762  -4.390  -2.591  0.00  0.00     0.101 A 
HETATM    8  N   UNK     0      -8.731  -4.338  -1.733  0.00  0.00    -0.133 NA
HETATM    9  N   UNK     0      -8.333  -3.106  -1.639  0.00  0.00    -0.064 NA
BRANCH   7  10
HETATM   10  C   UNK     0     -10.482  -5.620  -2.997  0.00  0.00     0.049 C 
BRANCH  10  11
HETATM   11  C   UNK     0     -10.393  -5.952  -4.525  0.00  0.00     0.006 C 
HETATM   12  C   UNK     0     -11.816  -5.973  -5.176  0.00  0.00     0.000 C 
HETATM   13  C   UNK     0     -11.791  -6.354  -6.683  0.00  0.00     0.000 C 
HETATM   14  C   UNK     0     -11.056  -7.697  -6.925  0.00  0.00     0.000 C 
HETATM   15  C   UNK     0      -9.634  -7.681  -6.310  0.00  0.00     0.000 C 
HETATM   16  C   UNK     0      -9.666  -7.309  -4.803  0.00  0.00     0.000 C 
ENDBRANCH  10  11
ENDBRANCH   7  10
ENDBRANCH   4   5
ENDBRANCH   2   4
BRANCH   1  17
HETATM   17  C   UNK     0      -7.260  -1.046  -5.121  0.00  0.00     0.146 C 
HETATM   18  C   UNK     0      -7.751  -0.100  -5.959  0.00  0.00     0.162 C 
HETATM   19  C   UNK     0      -8.321  -0.451  -7.189  0.00  0.00     0.217 C 
HETATM   20  N   UNK     0      -7.733   1.185  -5.627  0.00  0.00    -0.143 N 
HETATM   21  C   UNK     0      -8.560  -1.823  -7.497  0.00  0.00     0.044 A 
HETATM   22  O   UNK     0      -8.632   0.443  -8.014  0.00  0.00    -0.285 OA
HETATM   23  C   UNK     0      -9.349  -2.213  -8.607  0.00  0.00     0.003 A 
HETATM   24  C   UNK     0      -8.004  -2.820  -6.645  0.00  0.00     0.044 A 
HETATM   25  C   UNK     0      -9.571  -3.574  -8.878  0.00  0.00     0.000 A 
HETATM   26  C   UNK     0      -8.994  -4.558  -8.058  0.00  0.00     0.000 A 
HETATM   27  C   UNK     0      -8.208  -4.186  -6.953  0.00  0.00     0.003 A 
HETATM   28  C   UNK     0      -7.273  -2.401  -5.490  0.00  0.00     0.215 C 
HETATM   29  O   UNK     0      -6.655  -3.242  -4.790  0.00  0.00    -0.285 OA
ENDBRANCH   1  17
TORSDOF 5
ENDMDL
MODEL 2
REMARK VINA RESULT:      -6.7      2.892      7.492
REMARK  5 active torsions:
REMARK  status: ('A' for Active; 'I' for Inactive)
REMARK    1  A    between atoms: C_9  and  N_13 
REMARK       I    between atoms: N_13  and  C_14 
REMARK    2  A    between atoms: C_14  and  C_17 
REMARK    3  A    between atoms: C_17  and  N_18 
REMARK    4  A    between atoms: C_20  and  C_23 
REMARK    5  A    between atoms: C_23  and  C_24 
ROOT
HETATM    1  N   UNK     0      -7.082  -2.827  -5.177  0.00  0.00    -0.205 NA
HETATM    2  C   UNK     0      -7.564  -2.503  -6.412  0.00  0.00     0.281 C 
HETATM    3  O   UNK     0      -6.845  -2.838  -7.381  0.00  0.00    -0.268 OA
ENDROOT
BRANCH   2   4
HETATM    4  C   UNK     0      -8.861  -1.842  -6.713  0.00  0.00     0.219 C 
BRANCH   4   5
HETATM    5  N   UNK     0      -8.825  -0.452  -6.373  0.00  0.00    -0.221 N 
HETATM    6  C   UNK     0      -9.762   0.245  -5.706  0.00  0.00     0.114 A 
HETATM    7  C   UNK     0      -9.270   1.538  -5.585  0.00  0.00     0.101 A 
HETATM    8  N   UNK     0      -8.080   1.543  -6.206  0.00  0.00    -0.133 NA
HETATM    9  N   UNK     0      -7.844   0.349  -6.656  0.00  0.00    -0.064 NA
BRANCH   7  10
HETATM   10  C   UNK     0      -9.891   2.700  -4.907  0.00  0.00     0.049 C 
BRANCH  10  11
HETATM   11  C   UNK     0      -9.511   2.852  -3.395  0.00  0.00     0.006 C 
HETATM   12  C   UNK     0     -10.606   3.661  -2.622  0.00  0.00     0.000 C 
HETATM   13  C   UNK     0     -10.252   3.889  -1.126  0.00  0.00     0.000 C 
HETATM   14  C   UNK     0      -8.859   4.549  -0.958  0.00  0.00     0.000 C 
HETATM   15  C   UNK     0      -7.760   3.743  -1.696  0.00  0.00     0.000 C 
HETATM   16  C   UNK     0      -8.114   3.526  -3.192  0.00  0.00     0.000 C 
ENDBRANCH  10  11
ENDBRANCH   7  10
ENDBRANCH   4   5
ENDBRANCH   2   4
BRANCH   1  17
HETATM   17  C   UNK     0      -7.682  -2.605  -4.001  0.00  0.00     0.146 C 
HETATM   18  C   UNK     0      -8.531  -3.541  -3.510  0.00  0.00     0.162 C 
HETATM   19  C   UNK     0      -9.210  -3.337  -2.302  0.00  0.00     0.217 C 
HETATM   20  N   UNK     0      -8.767  -4.666  -4.173  0.00  0.00    -0.143 N 
HETATM   21  C   UNK     0      -9.158  -2.063  -1.663  0.00  0.00     0.044 A 
HETATM   22  O   UNK     0      -9.873  -4.273  -1.790  0.00  0.00    -0.285 OA
HETATM   23  C   UNK     0     -10.015  -1.734  -0.584  0.00  0.00     0.003 A 
HETATM   24  C   UNK     0      -8.232  -1.095  -2.145  0.00  0.00     0.044 A 
HETATM   25  C   UNK     0      -9.944  -0.467   0.020  0.00  0.00     0.000 A 
HETATM   26  C   UNK     0      -9.006   0.476  -0.434  0.00  0.00     0.000 A 
HETATM   27  C   UNK     0      -8.149   0.164  -1.504  0.00  0.00     0.003 A 
HETATM   28  C   UNK     0      -7.430  -1.424  -3.282  0.00  0.00     0.215 C 
HETATM   29  O   UNK     0      -6.511  -0.654  -3.655  0.00  0.00    -0.285 OA
ENDBRANCH   1  17
TORSDOF 5
ENDMDL
MODEL 3
REMARK VINA RESULT:      -6.5      1.742      2.555
REMARK  5 active torsions:
REMARK  status: ('A' for Active; 'I' for Inactive)
REMARK    1  A    between atoms: C_9  and  N_13 
REMARK       I    between atoms: N_13  and  C_14 
REMARK    2  A    between atoms: C_14  and  C_17 
REMARK    3  A    between atoms: C_17  and  N_18 
REMARK    4  A    between atoms: C_20  and  C_23 
REMARK    5  A    between atoms: C_23  and  C_24 
ROOT
HETATM    1  N   UNK     0      -7.345   1.600  -5.037  0.00  0.00    -0.205 NA
HETATM    2  C   UNK     0      -8.093   2.186  -4.057  0.00  0.00     0.281 C 
HETATM    3  O   UNK     0      -7.650   3.268  -3.610  0.00  0.00    -0.268 OA
ENDROOT
BRANCH   2   4
HETATM    4  C   UNK     0      -9.384   1.692  -3.513  0.00  0.00     0.219 C 
BRANCH   4   5
HETATM    5  N   UNK     0      -9.202   0.495  -2.750  0.00  0.00    -0.221 N 
HETATM    6  C   UNK     0      -9.935  -0.631  -2.818  0.00  0.00     0.114 A 
HETATM    7  C   UNK     0      -9.360  -1.523  -1.922  0.00  0.00     0.101 A 
HETATM    8  N   UNK     0      -8.333  -0.870  -1.356  0.00  0.00    -0.133 NA
HETATM    9  N   UNK     0      -8.264   0.319  -1.872  0.00  0.00    -0.064 NA
BRANCH   7  10
HETATM   10  C   UNK     0      -9.757  -2.920  -1.630  0.00  0.00     0.049 C 
BRANCH  10  11
HETATM   11  C   UNK     0     -10.005  -3.806  -2.897  0.00  0.00     0.006 C 
HETATM   12  C   UNK     0     -11.373  -3.449  -3.570  0.00  0.00     0.000 C 
HETATM   13  C   UNK     0     -11.695  -4.339  -4.803  0.00  0.00     0.000 C 
HETATM   14  C   UNK     0     -11.629  -5.849  -4.457  0.00  0.00     0.000 C 
HETATM   15  C   UNK     0     -10.269  -6.222  -3.815  0.00  0.00     0.000 C 
HETATM   16  C   UNK     0      -9.956  -5.337  -2.579  0.00  0.00     0.000 C 
ENDBRANCH  10  11
ENDBRANCH   7  10
ENDBRANCH   4   5
ENDBRANCH   2   4
BRANCH   1  17
HETATM   17  C   UNK     0      -7.628   0.465  -5.689  0.00  0.00     0.146 C 
HETATM   18  C   UNK     0      -8.388   0.525  -6.810  0.00  0.00     0.162 C 
HETATM   19  C   UNK     0      -8.741  -0.638  -7.506  0.00  0.00     0.217 C 
HETATM   20  N   UNK     0      -8.844   1.685  -7.267  0.00  0.00    -0.143 N 
HETATM   21  C   UNK     0      -8.461  -1.918  -6.942  0.00  0.00     0.044 A 
HETATM   22  O   UNK     0      -9.316  -0.553  -8.619  0.00  0.00    -0.285 OA
HETATM   23  C   UNK     0      -9.010  -3.108  -7.479  0.00  0.00     0.003 A 
HETATM   24  C   UNK     0      -7.623  -1.987  -5.793  0.00  0.00     0.044 A 
HETATM   25  C   UNK     0      -8.720  -4.352  -6.896  0.00  0.00     0.000 A 
HETATM   26  C   UNK     0      -7.866  -4.424  -5.783  0.00  0.00     0.000 A 
HETATM   27  C   UNK     0      -7.313  -3.252  -5.237  0.00  0.00     0.003 A 
HETATM   28  C   UNK     0      -7.141  -0.768  -5.223  0.00  0.00     0.215 C 
HETATM   29  O   UNK     0      -6.294  -0.791  -4.296  0.00  0.00    -0.285 OA
ENDBRANCH   1  17
TORSDOF 5
ENDMDL
MODEL 4
REMARK VINA RESULT:      -6.3      1.485      1.786
REMARK  5 active torsions:
REMARK  status: ('A' for Active; 'I' for Inactive)
REMARK    1  A    between atoms: C_9  and  N_13 
REMARK       I    between atoms: N_13  and  C_14 
REMARK    2  A    between atoms: C_14  and  C_17 
REMARK    3  A    between atoms: C_17  and  N_18 
REMARK    4  A    between atoms: C_20  and  C_23 
REMARK    5  A    between atoms: C_23  and  C_24 
ROOT
HETATM    1  N   UNK     0      -7.735   1.432  -3.644  0.00  0.00    -0.205 NA
HETATM    2  C   UNK     0      -8.549   1.424  -2.548  0.00  0.00     0.281 C 
HETATM    3  O   UNK     0      -8.238   2.222  -1.635  0.00  0.00    -0.268 OA
ENDROOT
BRANCH   2   4
HETATM    4  C   UNK     0      -9.774   0.604  -2.360  0.00  0.00     0.219 C 
BRANCH   4   5
HETATM    5  N   UNK     0      -9.455  -0.788  -2.256  0.00  0.00    -0.221 N 
HETATM    6  C   UNK     0     -10.074  -1.811  -2.872  0.00  0.00     0.114 A 
HETATM    7  C   UNK     0      -9.392  -2.960  -2.494  0.00  0.00     0.101 A 
HETATM    8  N   UNK     0      -8.422  -2.559  -1.657  0.00  0.00    -0.133 NA
HETATM    9  N   UNK     0      -8.484  -1.268  -1.542  0.00  0.00    -0.064 NA
BRANCH   7  10
HETATM   10  C   UNK     0      -9.641  -4.359  -2.913  0.00  0.00     0.049 C 
BRANCH  10  11
HETATM   11  C   UNK     0      -9.752  -4.565  -4.462  0.00  0.00     0.006 C 
HETATM   12  C   UNK     0     -11.190  -4.213  -4.972  0.00  0.00     0.000 C 
HETATM   13  C   UNK     0     -11.371  -4.453  -6.497  0.00  0.00     0.000 C 
HETATM   14  C   UNK     0     -10.982  -5.898  -6.902  0.00  0.00     0.000 C 
HETATM   15  C   UNK     0      -9.550  -6.252  -6.428  0.00  0.00     0.000 C 
HETATM   16  C   UNK     0      -9.377  -6.019  -4.902  0.00  0.00     0.000 C 
ENDBRANCH  10  11
ENDBRANCH   7  10
ENDBRANCH   4   5
ENDBRANCH   2   4
BRANCH   1  17
HETATM   17  C   UNK     0      -7.880   0.697  -4.754  0.00  0.00     0.146 C 
HETATM   18  C   UNK     0      -8.698   1.149  -5.737  0.00  0.00     0.162 C 
HETATM   19  C   UNK     0      -8.911   0.399  -6.900  0.00  0.00     0.217 C 
HETATM   20  N   UNK     0      -9.344   2.301  -5.613  0.00  0.00    -0.143 N 
HETATM   21  C   UNK     0      -8.415  -0.935  -6.988  0.00  0.00     0.044 A 
HETATM   22  O   UNK     0      -9.549   0.898  -7.860  0.00  0.00    -0.285 OA
HETATM   23  C   UNK     0      -8.809  -1.812  -8.028  0.00  0.00     0.003 A 
HETATM   24  C   UNK     0      -7.517  -1.396  -5.983  0.00  0.00     0.044 A 
HETATM   25  C   UNK     0      -8.307  -3.124  -8.082  0.00  0.00     0.000 A 
HETATM   26  C   UNK     0      -7.394  -3.567  -7.110  0.00  0.00     0.000 A 
HETATM   27  C   UNK     0      -6.994  -2.709  -6.071  0.00  0.00     0.003 A 
HETATM   28  C   UNK     0      -7.192  -0.518  -4.902  0.00  0.00     0.215 C 
HETATM   29  O   UNK     0      -6.304  -0.835  -4.073  0.00  0.00    -0.285 OA
ENDBRANCH   1  17
TORSDOF 5
ENDMDL
MODEL 5
REMARK VINA RESULT:      -6.3      3.037      7.205
REMARK  5 active torsions:
REMARK  status: ('A' for Active; 'I' for Inactive)
REMARK    1  A    between atoms: C_9  and  N_13 
REMARK       I    between atoms: N_13  and  C_14 
REMARK    2  A    between atoms: C_14  and  C_17 
REMARK    3  A    between atoms: C_17  and  N_18 
REMARK    4  A    between atoms: C_20  and  C_23 
REMARK    5  A    between atoms: C_23  and  C_24 
ROOT
HETATM    1  N   UNK     0      -7.311  -3.116  -3.534  0.00  0.00    -0.205 NA
HETATM    2  C   UNK     0      -7.669  -3.398  -4.821  0.00  0.00     0.281 C 
HETATM    3  O   UNK     0      -6.922  -4.197  -5.430  0.00  0.00    -0.268 OA
ENDROOT
BRANCH   2   4
HETATM    4  C   UNK     0      -8.867  -2.891  -5.539  0.00  0.00     0.219 C 
BRANCH   4   5
HETATM    5  N   UNK     0      -8.772  -1.482  -5.775  0.00  0.00    -0.221 N 
HETATM    6  C   UNK     0      -9.719  -0.554  -5.546  0.00  0.00     0.114 A 
HETATM    7  C   UNK     0      -9.156   0.667  -5.892  0.00  0.00     0.101 A 
HETATM    8  N   UNK     0      -7.916   0.396  -6.329  0.00  0.00    -0.133 NA
HETATM    9  N   UNK     0      -7.719  -0.884  -6.242  0.00  0.00    -0.064 NA
BRANCH   7  10
HETATM   10  C   UNK     0      -9.759   2.018  -5.802  0.00  0.00     0.049 C 
BRANCH  10  11
HETATM   11  C   UNK     0     -10.494   2.315  -4.452  0.00  0.00     0.006 C 
HETATM   12  C   UNK     0     -11.883   1.594  -4.400  0.00  0.00     0.000 C 
HETATM   13  C   UNK     0     -12.681   1.901  -3.102  0.00  0.00     0.000 C 
HETATM   14  C   UNK     0     -12.843   3.425  -2.872  0.00  0.00     0.000 C 
HETATM   15  C   UNK     0     -11.473   4.148  -2.892  0.00  0.00     0.000 C 
HETATM   16  C   UNK     0     -10.684   3.846  -4.195  0.00  0.00     0.000 C 
ENDBRANCH  10  11
ENDBRANCH   7  10
ENDBRANCH   4   5
ENDBRANCH   2   4
BRANCH   1  17
HETATM   17  C   UNK     0      -7.966  -2.323  -2.677  0.00  0.00     0.146 C 
HETATM   18  C   UNK     0      -8.981  -2.844  -1.944  0.00  0.00     0.162 C 
HETATM   19  C   UNK     0      -9.719  -2.046  -1.062  0.00  0.00     0.217 C 
HETATM   20  N   UNK     0      -9.324  -4.121  -2.063  0.00  0.00    -0.143 N 
HETATM   21  C   UNK     0      -9.534  -0.632  -1.057  0.00  0.00     0.044 A 
HETATM   22  O   UNK     0     -10.552  -2.575  -0.285  0.00  0.00    -0.285 OA
HETATM   23  C   UNK     0     -10.419   0.235  -0.370  0.00  0.00     0.003 A 
HETATM   24  C   UNK     0      -8.440  -0.085  -1.786  0.00  0.00     0.044 A 
HETATM   25  C   UNK     0     -10.213   1.625  -0.391  0.00  0.00     0.000 A 
HETATM   26  C   UNK     0      -9.113   2.162  -1.082  0.00  0.00     0.000 A 
HETATM   27  C   UNK     0      -8.227   1.314  -1.769  0.00  0.00     0.003 A 
HETATM   28  C   UNK     0      -7.604  -0.973  -2.533  0.00  0.00     0.215 C 
HETATM   29  O   UNK     0      -6.555  -0.549  -3.077  0.00  0.00    -0.285 OA
ENDBRANCH   1  17
TORSDOF 5
ENDMDL
MODEL 6
REMARK VINA RESULT:      -6.2      2.182      3.225
REMARK  5 active torsions:
REMARK  status: ('A' for Active; 'I' for Inactive)
REMARK    1  A    between atoms: C_9  and  N_13 
REMARK       I    between atoms: N_13  and  C_14 
REMARK    2  A    between atoms: C_14  and  C_17 
REMARK    3  A    between atoms: C_17  and  N_18 
REMARK    4  A    between atoms: C_20  and  C_23 
REMARK    5  A    between atoms: C_23  and  C_24 
ROOT
HETATM    1  N   UNK     0      -7.687   1.034  -3.628  0.00  0.00    -0.205 NA
HETATM    2  C   UNK     0      -7.946   0.093  -2.674  0.00  0.00     0.281 C 
HETATM    3  O   UNK     0      -7.275   0.188  -1.621  0.00  0.00    -0.268 OA
ENDROOT
BRANCH   2   4
HETATM    4  C   UNK     0      -8.963  -0.988  -2.747  0.00  0.00     0.219 C 
BRANCH   4   5
HETATM    5  N   UNK     0      -8.487  -2.097  -3.518  0.00  0.00    -0.221 N 
HETATM    6  C   UNK     0      -9.143  -2.747  -4.497  0.00  0.00     0.114 A 
HETATM    7  C   UNK     0      -8.269  -3.716  -4.971  0.00  0.00     0.101 A 
HETATM    8  N   UNK     0      -7.153  -3.604  -4.233  0.00  0.00    -0.133 NA
HETATM    9  N   UNK     0      -7.313  -2.633  -3.387  0.00  0.00    -0.064 NA
BRANCH   7  10
HETATM   10  C   UNK     0      -8.479  -4.687  -6.070  0.00  0.00     0.049 C 
BRANCH  10  11
HETATM   11  C   UNK     0      -9.069  -4.068  -7.382  0.00  0.00     0.006 C 
HETATM   12  C   UNK     0     -10.626  -4.227  -7.425  0.00  0.00     0.000 C 
HETATM   13  C   UNK     0     -11.258  -3.678  -8.735  0.00  0.00     0.000 C 
HETATM   14  C   UNK     0     -10.607  -4.304  -9.995  0.00  0.00     0.000 C 
HETATM   15  C   UNK     0      -9.067  -4.129  -9.980  0.00  0.00     0.000 C 
HETATM   16  C   UNK     0      -8.439  -4.687  -8.674  0.00  0.00     0.000 C 
ENDBRANCH  10  11
ENDBRANCH   7  10
ENDBRANCH   4   5
ENDBRANCH   2   4
BRANCH   1  17
HETATM   17  C   UNK     0      -8.295   1.157  -4.815  0.00  0.00     0.146 C 
HETATM   18  C   UNK     0      -9.298   2.060  -4.947  0.00  0.00     0.162 C 
HETATM   19  C   UNK     0      -9.988   2.200  -6.157  0.00  0.00     0.217 C 
HETATM   20  N   UNK     0      -9.676   2.818  -3.925  0.00  0.00    -0.143 N 
HETATM   21  C   UNK     0      -9.769   1.268  -7.214  0.00  0.00     0.044 A 
HETATM   22  O   UNK     0     -10.808   3.140  -6.307  0.00  0.00    -0.285 OA
HETATM   23  C   UNK     0     -10.609   1.218  -8.353  0.00  0.00     0.003 A 
HETATM   24  C   UNK     0      -8.685   0.350  -7.100  0.00  0.00     0.044 A 
HETATM   25  C   UNK     0     -10.370   0.281  -9.373  0.00  0.00     0.000 A 
HETATM   26  C   UNK     0      -9.281  -0.601  -9.277  0.00  0.00     0.000 A 
HETATM   27  C   UNK     0      -8.438  -0.563  -8.152  0.00  0.00     0.003 A 
HETATM   28  C   UNK     0      -7.896   0.370  -5.908  0.00  0.00     0.215 C 
HETATM   29  O   UNK     0      -6.854  -0.326  -5.825  0.00  0.00    -0.285 OA
ENDBRANCH   1  17
TORSDOF 5
ENDMDL
MODEL 7
REMARK VINA RESULT:      -6.2      0.954      1.388
REMARK  5 active torsions:
REMARK  status: ('A' for Active; 'I' for Inactive)
REMARK    1  A    between atoms: C_9  and  N_13 
REMARK       I    between atoms: N_13  and  C_14 
REMARK    2  A    between atoms: C_14  and  C_17 
REMARK    3  A    between atoms: C_17  and  N_18 
REMARK    4  A    between atoms: C_20  and  C_23 
REMARK    5  A    between atoms: C_23  and  C_24 
ROOT
HETATM    1  N   UNK     0      -6.782  -0.587  -3.692  0.00  0.00    -0.205 NA
HETATM    2  C   UNK     0      -7.461  -0.582  -2.508  0.00  0.00     0.281 C 
HETATM    3  O   UNK     0      -6.791  -0.269  -1.498  0.00  0.00    -0.268 OA
ENDROOT
BRANCH   2   4
HETATM    4  C   UNK     0      -8.907  -0.865  -2.315  0.00  0.00     0.219 C 
BRANCH   4   5
HETATM    5  N   UNK     0      -9.207  -2.240  -2.576  0.00  0.00    -0.221 N 
HETATM    6  C   UNK     0     -10.093  -2.724  -3.465  0.00  0.00     0.114 A 
HETATM    7  C   UNK     0     -10.005  -4.107  -3.386  0.00  0.00     0.101 A 
HETATM    8  N   UNK     0      -9.091  -4.369  -2.439  0.00  0.00    -0.133 NA
HETATM    9  N   UNK     0      -8.633  -3.242  -1.984  0.00  0.00    -0.064 NA
BRANCH   7  10
HETATM   10  C   UNK     0     -10.741  -5.123  -4.173  0.00  0.00     0.049 C 
BRANCH  10  11
HETATM   11  C   UNK     0     -10.273  -6.598  -3.934  0.00  0.00     0.006 C 
HETATM   12  C   UNK     0      -9.710  -7.227  -5.253  0.00  0.00     0.000 C 
HETATM   13  C   UNK     0      -9.281  -8.712  -5.085  0.00  0.00     0.000 C 
HETATM   14  C   UNK     0     -10.427  -9.580  -4.507  0.00  0.00     0.000 C 
HETATM   15  C   UNK     0     -10.976  -8.985  -3.186  0.00  0.00     0.000 C 
HETATM   16  C   UNK     0     -11.412  -7.505  -3.361  0.00  0.00     0.000 C 
ENDBRANCH  10  11
ENDBRANCH   7  10
ENDBRANCH   4   5
ENDBRANCH   2   4
BRANCH   1  17
HETATM   17  C   UNK     0      -7.287  -0.854  -4.903  0.00  0.00     0.146 C 
HETATM   18  C   UNK     0      -7.780   0.165  -5.648  0.00  0.00     0.162 C 
HETATM   19  C   UNK     0      -8.352  -0.069  -6.904  0.00  0.00     0.217 C 
HETATM   20  N   UNK     0      -7.763   1.413  -5.196  0.00  0.00    -0.143 N 
HETATM   21  C   UNK     0      -8.589  -1.406  -7.340  0.00  0.00     0.044 A 
HETATM   22  O   UNK     0      -8.666   0.898  -7.641  0.00  0.00    -0.285 OA
HETATM   23  C   UNK     0      -9.380  -1.691  -8.480  0.00  0.00     0.003 A 
HETATM   24  C   UNK     0      -8.031  -2.478  -6.587  0.00  0.00     0.044 A 
HETATM   25  C   UNK     0      -9.601  -3.021  -8.879  0.00  0.00     0.000 A 
HETATM   26  C   UNK     0      -9.022  -4.076  -8.156  0.00  0.00     0.000 A 
HETATM   27  C   UNK     0      -8.235  -3.810  -7.022  0.00  0.00     0.003 A 
HETATM   28  C   UNK     0      -7.299  -2.169  -5.398  0.00  0.00     0.215 C 
HETATM   29  O   UNK     0      -6.679  -3.071  -4.782  0.00  0.00    -0.285 OA
ENDBRANCH   1  17
TORSDOF 5
ENDMDL
MODEL 8
REMARK VINA RESULT:      -6.2      3.829      8.399
REMARK  5 active torsions:
REMARK  status: ('A' for Active; 'I' for Inactive)
REMARK    1  A    between atoms: C_9  and  N_13 
REMARK       I    between atoms: N_13  and  C_14 
REMARK    2  A    between atoms: C_14  and  C_17 
REMARK    3  A    between atoms: C_17  and  N_18 
REMARK    4  A    between atoms: C_20  and  C_23 
REMARK    5  A    between atoms: C_23  and  C_24 
ROOT
HETATM    1  N   UNK     0      -7.243  -1.384  -3.919  0.00  0.00    -0.205 NA
HETATM    2  C   UNK     0      -7.430  -0.548  -4.981  0.00  0.00     0.281 C 
HETATM    3  O   UNK     0      -6.520  -0.549  -5.841  0.00  0.00    -0.268 OA
ENDROOT
BRANCH   2   4
HETATM    4  C   UNK     0      -8.613   0.316  -5.231  0.00  0.00     0.219 C 
BRANCH   4   5
HETATM    5  N   UNK     0      -8.612   1.459  -4.368  0.00  0.00    -0.221 N 
HETATM    6  C   UNK     0      -9.609   1.870  -3.563  0.00  0.00     0.114 A 
HETATM    7  C   UNK     0      -9.133   2.993  -2.900  0.00  0.00     0.101 A 
HETATM    8  N   UNK     0      -7.890   3.200  -3.363  0.00  0.00    -0.133 NA
HETATM    9  N   UNK     0      -7.610   2.272  -4.226  0.00  0.00    -0.064 NA
BRANCH   7  10
HETATM   10  C   UNK     0      -9.816   3.816  -1.875  0.00  0.00     0.049 C 
BRANCH  10  11
HETATM   11  C   UNK     0      -9.070   3.896  -0.500  0.00  0.00     0.006 C 
HETATM   12  C   UNK     0     -10.075   3.745   0.691  0.00  0.00     0.000 C 
HETATM   13  C   UNK     0      -9.394   3.872   2.083  0.00  0.00     0.000 C 
HETATM   14  C   UNK     0      -8.585   5.189   2.209  0.00  0.00     0.000 C 
HETATM   15  C   UNK     0      -7.566   5.339   1.051  0.00  0.00     0.000 C 
HETATM   16  C   UNK     0      -8.252   5.220  -0.336  0.00  0.00     0.000 C 
ENDBRANCH  10  11
ENDBRANCH   7  10
ENDBRANCH   4   5
ENDBRANCH   2   4
BRANCH   1  17
HETATM   17  C   UNK     0      -8.085  -1.580  -2.896  0.00  0.00     0.146 C 
HETATM   18  C   UNK     0      -8.928  -2.641  -2.935  0.00  0.00     0.162 C 
HETATM   19  C   UNK     0      -9.852  -2.866  -1.908  0.00  0.00     0.217 C 
HETATM   20  N   UNK     0      -8.924  -3.481  -3.963  0.00  0.00    -0.143 N 
HETATM   21  C   UNK     0     -10.045  -1.881  -0.895  0.00  0.00     0.044 A 
HETATM   22  O   UNK     0     -10.519  -3.931  -1.886  0.00  0.00    -0.285 OA
HETATM   23  C   UNK     0     -11.128  -1.948   0.017  0.00  0.00     0.003 A 
HETATM   24  C   UNK     0      -9.131  -0.791  -0.821  0.00  0.00     0.044 A 
HETATM   25  C   UNK     0     -11.293  -0.956   0.999  0.00  0.00     0.000 A 
HETATM   26  C   UNK     0     -10.372   0.100   1.093  0.00  0.00     0.000 A 
HETATM   27  C   UNK     0      -9.292   0.180   0.196  0.00  0.00     0.003 A 
HETATM   28  C   UNK     0      -8.090  -0.705  -1.797  0.00  0.00     0.215 C 
HETATM   29  O   UNK     0      -7.187   0.160  -1.687  0.00  0.00    -0.285 OA
ENDBRANCH   1  17
TORSDOF 5
ENDMDL
MODEL 9
REMARK VINA RESULT:      -6.1      2.670      5.880
REMARK  5 active torsions:
REMARK  status: ('A' for Active; 'I' for Inactive)
REMARK    1  A    between atoms: C_9  and  N_13 
REMARK       I    between atoms: N_13  and  C_14 
REMARK    2  A    between atoms: C_14  and  C_17 
REMARK    3  A    between atoms: C_17  and  N_18 
REMARK    4  A    between atoms: C_20  and  C_23 
REMARK    5  A    between atoms: C_23  and  C_24 
ROOT
HETATM    1  N   UNK     0      -6.865  -1.833  -5.377  0.00  0.00    -0.205 NA
HETATM    2  C   UNK     0      -7.136  -3.165  -5.259  0.00  0.00     0.281 C 
HETATM    3  O   UNK     0      -6.188  -3.938  -5.525  0.00  0.00    -0.268 OA
ENDROOT
BRANCH   2   4
HETATM    4  C   UNK     0      -8.415  -3.773  -4.809  0.00  0.00     0.219 C 
BRANCH   4   5
HETATM    5  N   UNK     0      -8.684  -3.460  -3.438  0.00  0.00    -0.221 N 
HETATM    6  C   UNK     0      -9.688  -2.703  -2.959  0.00  0.00     0.114 A 
HETATM    7  C   UNK     0      -9.560  -2.719  -1.577  0.00  0.00     0.101 A 
HETATM    8  N   UNK     0      -8.475  -3.463  -1.312  0.00  0.00    -0.133 NA
HETATM    9  N   UNK     0      -7.984  -3.892  -2.434  0.00  0.00    -0.064 NA
BRANCH   7  10
HETATM   10  C   UNK     0     -10.427  -2.072  -0.565  0.00  0.00     0.049 C 
BRANCH  10  11
HETATM   11  C   UNK     0     -10.522  -0.513  -0.688  0.00  0.00     0.006 C 
HETATM   12  C   UNK     0     -10.311   0.172   0.704  0.00  0.00     0.000 C 
HETATM   13  C   UNK     0     -10.451   1.719   0.648  0.00  0.00     0.000 C 
HETATM   14  C   UNK     0     -11.800   2.153   0.021  0.00  0.00     0.000 C 
HETATM   15  C   UNK     0     -12.010   1.504  -1.371  0.00  0.00     0.000 C 
HETATM   16  C   UNK     0     -11.879  -0.042  -1.309  0.00  0.00     0.000 C 
ENDBRANCH  10  11
ENDBRANCH   7  10
ENDBRANCH   4   5
ENDBRANCH   2   4
BRANCH   1  17
HETATM   17  C   UNK     0      -7.701  -0.820  -5.117  0.00  0.00     0.146 C 
HETATM   18  C   UNK     0      -8.606  -0.458  -6.060  0.00  0.00     0.162 C 
HETATM   19  C   UNK     0      -9.477   0.617  -5.850  0.00  0.00     0.217 C 
HETATM   20  N   UNK     0      -8.674  -1.094  -7.223  0.00  0.00    -0.143 N 
HETATM   21  C   UNK     0      -9.302   1.464  -4.715  0.00  0.00     0.044 A 
HETATM   22  O   UNK     0     -10.404   0.843  -6.666  0.00  0.00    -0.285 OA
HETATM   23  C   UNK     0      -9.991   2.695  -4.588  0.00  0.00     0.003 A 
HETATM   24  C   UNK     0      -8.388   1.062  -3.699  0.00  0.00     0.044 A 
HETATM   25  C   UNK     0      -9.791   3.510  -3.460  0.00  0.00     0.000 A 
HETATM   26  C   UNK     0      -8.915   3.097  -2.442  0.00  0.00     0.000 A 
HETATM   27  C   UNK     0      -8.224   1.878  -2.554  0.00  0.00     0.003 A 
HETATM   28  C   UNK     0      -7.649  -0.147  -3.885  0.00  0.00     0.215 C 
HETATM   29  O   UNK     0      -6.937  -0.605  -2.957  0.00  0.00    -0.285 OA
ENDBRANCH   1  17
TORSDOF 5
ENDMDL
