MODEL 1
REMARK VINA RESULT:      -7.8      0.000      0.000
REMARK  6 active torsions:
REMARK  status: ('A' for Active; 'I' for Inactive)
REMARK    1  A    between atoms: C_9  and  N_13 
REMARK       I    between atoms: N_13  and  C_14 
REMARK    2  A    between atoms: C_14  and  C_17 
REMARK    3  A    between atoms: C_17  and  N_18 
REMARK    4  A    between atoms: C_20  and  C_23 
REMARK    5  A    between atoms: C_23  and  C_24 
REMARK    6  A    between atoms: C_24  and  C_25 
ROOT
HETATM    1  N   UNK     0      -4.782  -2.914  -7.913  0.00  0.00    -0.205 NA
HETATM    2  C   UNK     0      -4.350  -1.627  -7.764  0.00  0.00     0.281 C 
HETATM    3  O   UNK     0      -5.077  -0.745  -8.274  0.00  0.00    -0.268 OA
ENDROOT
BRANCH   2   4
HETATM    4  C   UNK     0      -3.155  -1.177  -7.008  0.00  0.00     0.219 C 
BRANCH   4   5
HETATM    5  N   UNK     0      -2.143  -0.694  -7.896  0.00  0.00    -0.221 N 
HETATM    6  C   UNK     0      -2.080   0.529  -8.456  0.00  0.00     0.114 A 
HETATM    7  C   UNK     0      -0.917   0.546  -9.212  0.00  0.00     0.101 A 
HETATM    8  N   UNK     0      -0.362  -0.667  -9.069  0.00  0.00    -0.133 NA
HETATM    9  N   UNK     0      -1.109  -1.376  -8.281  0.00  0.00    -0.064 NA
BRANCH   7  10
HETATM   10  C   UNK     0      -0.361   1.653 -10.017  0.00  0.00     0.054 C 
BRANCH  10  11
HETATM   11  C   UNK     0       1.157   1.863  -9.763  0.00  0.00     0.033 C 
BRANCH  11  12
HETATM   12  C   UNK     0       1.407   2.893  -8.716  0.00  0.00    -0.022 A 
HETATM   13  C   UNK     0       1.369   4.273  -9.032  0.00  0.00    -0.004 A 
HETATM   14  C   UNK     0       1.583   5.246  -8.038  0.00  0.00    -0.000 A 
HETATM   15  C   UNK     0       1.842   4.854  -6.713  0.00  0.00     0.000 A 
HETATM   16  C   UNK     0       1.894   3.487  -6.384  0.00  0.00    -0.000 A 
HETATM   17  C   UNK     0       1.679   2.514  -7.379  0.00  0.00    -0.004 A 
ENDBRANCH  11  12
ENDBRANCH  10  11
ENDBRANCH   7  10
ENDBRANCH   4   5
ENDBRANCH   2   4
BRANCH   1  18
HETATM   18  C   UNK     0      -4.195  -4.014  -7.425  0.00  0.00     0.146 C 
HETATM   19  C   UNK     0      -3.248  -4.644  -8.161  0.00  0.00     0.162 C 
HETATM   20  C   UNK     0      -2.687  -5.853  -7.734  0.00  0.00     0.217 C 
HETATM   21  N   UNK     0      -2.859  -4.152  -9.331  0.00  0.00    -0.143 N 
HETATM   22  C   UNK     0      -3.235  -6.529  -6.603  0.00  0.00     0.044 A 
HETATM   23  O   UNK     0      -1.716  -6.349  -8.355  0.00  0.00    -0.285 OA
HETATM   24  C   UNK     0      -2.885  -7.862  -6.282  0.00  0.00     0.003 A 
HETATM   25  C   UNK     0      -4.187  -5.847  -5.795  0.00  0.00     0.044 A 
HETATM   26  C   UNK     0      -3.471  -8.510  -5.180  0.00  0.00     0.000 A 
HETATM   27  C   UNK     0      -4.397  -7.829  -4.372  0.00  0.00     0.000 A 
HETATM   28  C   UNK     0      -4.748  -6.502  -4.672  0.00  0.00     0.003 A 
HETATM   29  C   UNK     0      -4.573  -4.526  -6.172  0.00  0.00     0.215 C 
HETATM   30  O   UNK     0      -5.261  -3.824  -5.391  0.00  0.00    -0.285 OA
ENDBRANCH   1  18
TORSDOF 6
ENDMDL
MODEL 2
REMARK VINA RESULT:      -7.7      1.991      2.866
REMARK  6 active torsions:
REMARK  status: ('A' for Active; 'I' for Inactive)
REMARK    1  A    between atoms: C_9  and  N_13 
REMARK       I    between atoms: N_13  and  C_14 
REMARK    2  A    between atoms: C_14  and  C_17 
REMARK    3  A    between atoms: C_17  and  N_18 
REMARK    4  A    between atoms: C_20  and  C_23 
REMARK    5  A    between atoms: C_23  and  C_24 
REMARK    6  A    between atoms: C_24  and  C_25 
ROOT
HETATM    1  N   UNK     0      -4.310  -5.504  -7.687  0.00  0.00    -0.205 NA
HETATM    2  C   UNK     0      -3.343  -4.671  -8.171  0.00  0.00     0.281 C 
HETATM    3  O   UNK     0      -3.461  -4.335  -9.371  0.00  0.00    -0.268 OA
ENDROOT
BRANCH   2   4
HETATM    4  C   UNK     0      -2.219  -4.081  -7.402  0.00  0.00     0.219 C 
BRANCH   4   5
HETATM    5  N   UNK     0      -2.287  -2.651  -7.417  0.00  0.00    -0.221 N 
HETATM    6  C   UNK     0      -1.948  -1.839  -8.436  0.00  0.00     0.114 A 
HETATM    7  C   UNK     0      -2.208  -0.548  -8.001  0.00  0.00     0.101 A 
HETATM    8  N   UNK     0      -2.673  -0.664  -6.748  0.00  0.00    -0.133 NA
HETATM    9  N   UNK     0      -2.712  -1.921  -6.433  0.00  0.00    -0.064 NA
BRANCH   7  10
HETATM   10  C   UNK     0      -2.032   0.722  -8.736  0.00  0.00     0.054 C 
BRANCH  10  11
HETATM   11  C   UNK     0      -0.644   0.817  -9.426  0.00  0.00     0.033 C 
BRANCH  11  12
HETATM   12  C   UNK     0       0.127   2.004  -8.960  0.00  0.00    -0.022 A 
HETATM   13  C   UNK     0      -0.314   3.317  -9.256  0.00  0.00    -0.004 A 
HETATM   14  C   UNK     0       0.402   4.438  -8.795  0.00  0.00    -0.000 A 
HETATM   15  C   UNK     0       1.573   4.263  -8.037  0.00  0.00     0.000 A 
HETATM   16  C   UNK     0       2.031   2.965  -7.744  0.00  0.00    -0.000 A 
HETATM   17  C   UNK     0       1.313   1.844  -8.203  0.00  0.00    -0.004 A 
ENDBRANCH  11  12
ENDBRANCH  10  11
ENDBRANCH   7  10
ENDBRANCH   4   5
ENDBRANCH   2   4
BRANCH   1  18
HETATM   18  C   UNK     0      -4.413  -5.964  -6.433  0.00  0.00     0.146 C 
HETATM   19  C   UNK     0      -3.861  -7.160  -6.117  0.00  0.00     0.162 C 
HETATM   20  C   UNK     0      -4.036  -7.724  -4.848  0.00  0.00     0.217 C 
HETATM   21  N   UNK     0      -3.175  -7.851  -7.020  0.00  0.00    -0.143 N 
HETATM   22  C   UNK     0      -4.949  -7.128  -3.927  0.00  0.00     0.044 A 
HETATM   23  O   UNK     0      -3.406  -8.761  -4.529  0.00  0.00    -0.285 OA
HETATM   24  C   UNK     0      -5.359  -7.786  -2.743  0.00  0.00     0.003 A 
HETATM   25  C   UNK     0      -5.485  -5.845  -4.230  0.00  0.00     0.044 A 
HETATM   26  C   UNK     0      -6.288  -7.184  -1.876  0.00  0.00     0.000 A 
HETATM   27  C   UNK     0      -6.802  -5.909  -2.167  0.00  0.00     0.000 A 
HETATM   28  C   UNK     0      -6.398  -5.240  -3.333  0.00  0.00     0.003 A 
HETATM   29  C   UNK     0      -5.107  -5.226  -5.459  0.00  0.00     0.215 C 
HETATM   30  O   UNK     0      -5.405  -4.027  -5.677  0.00  0.00    -0.285 OA
ENDBRANCH   1  18
TORSDOF 6
ENDMDL
MODEL 3
REMARK VINA RESULT:      -7.7      2.221      3.473
REMARK  6 active torsions:
REMARK  status: ('A' for Active; 'I' for Inactive)
REMARK    1  A    between atoms: C_9  and  N_13 
REMARK       I    between atoms: N_13  and  C_14 
REMARK    2  A    between atoms: C_14  and  C_17 
REMARK    3  A    between atoms: C_17  and  N_18 
REMARK    4  A    between atoms: C_20  and  C_23 
REMARK    5  A    between atoms: C_23  and  C_24 
REMARK    6  A    between atoms: C_24  and  C_25 
ROOT
HETATM    1  N   UNK     0      -4.360  -5.576  -7.603  0.00  0.00    -0.205 NA
HETATM    2  C   UNK     0      -3.373  -4.769  -8.091  0.00  0.00     0.281 C 
HETATM    3  O   UNK     0      -3.480  -4.441  -9.294  0.00  0.00    -0.268 OA
ENDROOT
BRANCH   2   4
HETATM    4  C   UNK     0      -2.238  -4.198  -7.324  0.00  0.00     0.219 C 
BRANCH   4   5
HETATM    5  N   UNK     0      -2.242  -2.769  -7.397  0.00  0.00    -0.221 N 
HETATM    6  C   UNK     0      -1.729  -2.011  -8.384  0.00  0.00     0.114 A 
HETATM    7  C   UNK     0      -1.992  -0.695  -8.035  0.00  0.00     0.101 A 
HETATM    8  N   UNK     0      -2.633  -0.743  -6.858  0.00  0.00    -0.133 NA
HETATM    9  N   UNK     0      -2.769  -1.984  -6.509  0.00  0.00    -0.064 NA
BRANCH   7  10
HETATM   10  C   UNK     0      -1.661   0.537  -8.781  0.00  0.00     0.054 C 
BRANCH  10  11
HETATM   11  C   UNK     0      -0.791   0.253 -10.035  0.00  0.00     0.033 C 
BRANCH  11  12
HETATM   12  C   UNK     0       0.665   0.340  -9.733  0.00  0.00    -0.022 A 
HETATM   13  C   UNK     0       1.535  -0.736 -10.036  0.00  0.00    -0.004 A 
HETATM   14  C   UNK     0       2.915  -0.643  -9.771  0.00  0.00    -0.000 A 
HETATM   15  C   UNK     0       3.444   0.525  -9.194  0.00  0.00     0.000 A 
HETATM   16  C   UNK     0       2.592   1.598  -8.878  0.00  0.00    -0.000 A 
HETATM   17  C   UNK     0       1.213   1.506  -9.144  0.00  0.00    -0.004 A 
ENDBRANCH  11  12
ENDBRANCH  10  11
ENDBRANCH   7  10
ENDBRANCH   4   5
ENDBRANCH   2   4
BRANCH   1  18
HETATM   18  C   UNK     0      -4.478  -6.023  -6.346  0.00  0.00     0.146 C 
HETATM   19  C   UNK     0      -3.946  -7.224  -6.015  0.00  0.00     0.162 C 
HETATM   20  C   UNK     0      -4.136  -7.773  -4.742  0.00  0.00     0.217 C 
HETATM   21  N   UNK     0      -3.264  -7.933  -6.907  0.00  0.00    -0.143 N 
HETATM   22  C   UNK     0      -5.045  -7.155  -3.832  0.00  0.00     0.044 A 
HETATM   23  O   UNK     0      -3.524  -8.816  -4.409  0.00  0.00    -0.285 OA
HETATM   24  C   UNK     0      -5.473  -7.795  -2.645  0.00  0.00     0.003 A 
HETATM   25  C   UNK     0      -5.560  -5.867  -4.151  0.00  0.00     0.044 A 
HETATM   26  C   UNK     0      -6.397  -7.171  -1.789  0.00  0.00     0.000 A 
HETATM   27  C   UNK     0      -6.891  -5.892  -2.094  0.00  0.00     0.000 A 
HETATM   28  C   UNK     0      -6.469  -5.239  -3.265  0.00  0.00     0.003 A 
HETATM   29  C   UNK     0      -5.166  -5.265  -5.383  0.00  0.00     0.215 C 
HETATM   30  O   UNK     0      -5.444  -4.063  -5.613  0.00  0.00    -0.285 OA
ENDBRANCH   1  18
TORSDOF 6
ENDMDL
MODEL 4
REMARK VINA RESULT:      -7.6      3.418      6.149
REMARK  6 active torsions:
REMARK  status: ('A' for Active; 'I' for Inactive)
REMARK    1  A    between atoms: C_9  and  N_13 
REMARK       I    between atoms: N_13  and  C_14 
REMARK    2  A    between atoms: C_14  and  C_17 
REMARK    3  A    between atoms: C_17  and  N_18 
REMARK    4  A    between atoms: C_20  and  C_23 
REMARK    5  A    between atoms: C_23  and  C_24 
REMARK    6  A    between atoms: C_24  and  C_25 
ROOT
HETATM    1  N   UNK     0      -1.283  -6.384  -8.753  0.00  0.00    -0.205 NA
HETATM    2  C   UNK     0      -2.494  -6.825  -8.303  0.00  0.00     0.281 C 
HETATM    3  O   UNK     0      -2.468  -7.832  -7.561  0.00  0.00    -0.268 OA
ENDROOT
BRANCH   2   4
HETATM    4  C   UNK     0      -3.814  -6.193  -8.553  0.00  0.00     0.219 C 
BRANCH   4   5
HETATM    5  N   UNK     0      -3.922  -4.949  -7.855  0.00  0.00    -0.221 N 
HETATM    6  C   UNK     0      -4.055  -3.726  -8.402  0.00  0.00     0.114 A 
HETATM    7  C   UNK     0      -4.149  -2.838  -7.342  0.00  0.00     0.101 A 
HETATM    8  N   UNK     0      -4.055  -3.578  -6.227  0.00  0.00    -0.133 NA
HETATM    9  N   UNK     0      -3.926  -4.823  -6.564  0.00  0.00    -0.064 NA
BRANCH   7  10
HETATM   10  C   UNK     0      -4.326  -1.371  -7.385  0.00  0.00     0.054 C 
BRANCH  10  11
HETATM   11  C   UNK     0      -2.971  -0.613  -7.412  0.00  0.00     0.033 C 
BRANCH  11  12
HETATM   12  C   UNK     0      -2.660  -0.082  -8.769  0.00  0.00    -0.022 A 
HETATM   13  C   UNK     0      -1.910   1.109  -8.927  0.00  0.00    -0.004 A 
HETATM   14  C   UNK     0      -1.597   1.598 -10.209  0.00  0.00    -0.000 A 
HETATM   15  C   UNK     0      -2.033   0.906 -11.353  0.00  0.00     0.000 A 
HETATM   16  C   UNK     0      -2.789  -0.272 -11.213  0.00  0.00    -0.000 A 
HETATM   17  C   UNK     0      -3.100  -0.762  -9.930  0.00  0.00    -0.004 A 
ENDBRANCH  11  12
ENDBRANCH  10  11
ENDBRANCH   7  10
ENDBRANCH   4   5
ENDBRANCH   2   4
BRANCH   1  18
HETATM   18  C   UNK     0      -1.060  -5.311  -9.523  0.00  0.00     0.146 C 
HETATM   19  C   UNK     0      -1.197  -5.419 -10.866  0.00  0.00     0.162 C 
HETATM   20  C   UNK     0      -0.873  -4.353 -11.713  0.00  0.00     0.217 C 
HETATM   21  N   UNK     0      -1.603  -6.556 -11.419  0.00  0.00    -0.143 N 
HETATM   22  C   UNK     0      -0.223  -3.198 -11.183  0.00  0.00     0.044 A 
HETATM   23  O   UNK     0      -1.137  -4.420 -12.938  0.00  0.00    -0.285 OA
HETATM   24  C   UNK     0       0.357  -2.212 -12.016  0.00  0.00     0.003 A 
HETATM   25  C   UNK     0      -0.129  -3.056  -9.770  0.00  0.00     0.044 A 
HETATM   26  C   UNK     0       1.021  -1.105 -11.459  0.00  0.00     0.000 A 
HETATM   27  C   UNK     0       1.097  -0.956 -10.064  0.00  0.00     0.000 A 
HETATM   28  C   UNK     0       0.519  -1.922  -9.224  0.00  0.00     0.003 A 
HETATM   29  C   UNK     0      -0.664  -4.092  -8.948  0.00  0.00     0.215 C 
HETATM   30  O   UNK     0      -0.770  -3.921  -7.709  0.00  0.00    -0.285 OA
ENDBRANCH   1  18
TORSDOF 6
ENDMDL
MODEL 5
REMARK VINA RESULT:      -7.5      3.341      5.847
REMARK  6 active torsions:
REMARK  status: ('A' for Active; 'I' for Inactive)
REMARK    1  A    between atoms: C_9  and  N_13 
REMARK       I    between atoms: N_13  and  C_14 
REMARK    2  A    between atoms: C_14  and  C_17 
REMARK    3  A    between atoms: C_17  and  N_18 
REMARK    4  A    between atoms: C_20  and  C_23 
REMARK    5  A    between atoms: C_23  and  C_24 
REMARK    6  A    between atoms: C_24  and  C_25 
ROOT
HETATM    1  N   UNK     0      -2.693  -6.710  -6.808  0.00  0.00    -0.205 NA
HETATM    2  C   UNK     0      -2.845  -7.596  -7.836  0.00  0.00     0.281 C 
HETATM    3  O   UNK     0      -2.402  -8.749  -7.634  0.00  0.00    -0.268 OA
ENDROOT
BRANCH   2   4
HETATM    4  C   UNK     0      -3.537  -7.345  -9.125  0.00  0.00     0.219 C 
BRANCH   4   5
HETATM    5  N   UNK     0      -2.699  -6.604 -10.017  0.00  0.00    -0.221 N 
HETATM    6  C   UNK     0      -3.007  -5.455 -10.646  0.00  0.00     0.114 A 
HETATM    7  C   UNK     0      -1.882  -5.101 -11.374  0.00  0.00     0.101 A 
HETATM    8  N   UNK     0      -0.975  -6.062 -11.149  0.00  0.00    -0.133 NA
HETATM    9  N   UNK     0      -1.486  -6.935 -10.338  0.00  0.00    -0.064 NA
BRANCH   7  10
HETATM   10  C   UNK     0      -1.677  -3.913 -12.230  0.00  0.00     0.054 C 
BRANCH  10  11
HETATM   11  C   UNK     0      -0.189  -3.473 -12.282  0.00  0.00     0.033 C 
BRANCH  11  12
HETATM   12  C   UNK     0       0.103  -2.385 -11.308  0.00  0.00    -0.022 A 
HETATM   13  C   UNK     0       0.792  -2.657 -10.101  0.00  0.00    -0.004 A 
HETATM   14  C   UNK     0       1.089  -1.624  -9.193  0.00  0.00    -0.000 A 
HETATM   15  C   UNK     0       0.695  -0.303  -9.474  0.00  0.00     0.000 A 
HETATM   16  C   UNK     0       0.000  -0.018 -10.663  0.00  0.00    -0.000 A 
HETATM   17  C   UNK     0      -0.294  -1.052 -11.573  0.00  0.00    -0.004 A 
ENDBRANCH  11  12
ENDBRANCH  10  11
ENDBRANCH   7  10
ENDBRANCH   4   5
ENDBRANCH   2   4
BRANCH   1  18
HETATM   18  C   UNK     0      -3.118  -5.441  -6.779  0.00  0.00     0.146 C 
HETATM   19  C   UNK     0      -4.280  -5.144  -6.149  0.00  0.00     0.162 C 
HETATM   20  C   UNK     0      -4.811  -3.850  -6.185  0.00  0.00     0.217 C 
HETATM   21  N   UNK     0      -4.968  -6.086  -5.515  0.00  0.00    -0.143 N 
HETATM   22  C   UNK     0      -4.227  -2.867  -7.038  0.00  0.00     0.044 A 
HETATM   23  O   UNK     0      -5.811  -3.561  -5.483  0.00  0.00    -0.285 OA
HETATM   24  C   UNK     0      -4.865  -1.633  -7.313  0.00  0.00     0.003 A 
HETATM   25  C   UNK     0      -2.978  -3.154  -7.656  0.00  0.00     0.044 A 
HETATM   26  C   UNK     0      -4.277  -0.702  -8.186  0.00  0.00     0.000 A 
HETATM   27  C   UNK     0      -3.034  -0.980  -8.781  0.00  0.00     0.000 A 
HETATM   28  C   UNK     0      -2.384  -2.195  -8.512  0.00  0.00     0.003 A 
HETATM   29  C   UNK     0      -2.381  -4.428  -7.417  0.00  0.00     0.215 C 
HETATM   30  O   UNK     0      -1.202  -4.650  -7.786  0.00  0.00    -0.285 OA
ENDBRANCH   1  18
TORSDOF 6
ENDMDL
MODEL 6
REMARK VINA RESULT:      -7.4     13.445     15.709
REMARK  6 active torsions:
REMARK  status: ('A' for Active; 'I' for Inactive)
REMARK    1  A    between atoms: C_9  and  N_13 
REMARK       I    between atoms: N_13  and  C_14 
REMARK    2  A    between atoms: C_14  and  C_17 
REMARK    3  A    between atoms: C_17  and  N_18 
REMARK    4  A    between atoms: C_20  and  C_23 
REMARK    5  A    between atoms: C_23  and  C_24 
REMARK    6  A    between atoms: C_24  and  C_25 
ROOT
HETATM    1  N   UNK     0       9.105  -0.812   5.763  0.00  0.00    -0.205 NA
HETATM    2  C   UNK     0       9.416  -1.830   4.908  0.00  0.00     0.281 C 
HETATM    3  O   UNK     0      10.636  -2.059   4.751  0.00  0.00    -0.268 OA
ENDROOT
BRANCH   2   4
HETATM    4  C   UNK     0       8.456  -2.721   4.209  0.00  0.00     0.219 C 
BRANCH   4   5
HETATM    5  N   UNK     0       7.968  -2.106   3.013  0.00  0.00    -0.221 N 
HETATM    6  C   UNK     0       8.685  -1.398   2.120  0.00  0.00     0.114 A 
HETATM    7  C   UNK     0       7.797  -1.028   1.122  0.00  0.00     0.101 A 
HETATM    8  N   UNK     0       6.604  -1.523   1.481  0.00  0.00    -0.133 NA
HETATM    9  N   UNK     0       6.738  -2.159   2.603  0.00  0.00    -0.064 NA
BRANCH   7  10
HETATM   10  C   UNK     0       8.068  -0.254  -0.108  0.00  0.00     0.054 C 
BRANCH  10  11
HETATM   11  C   UNK     0       8.371   1.240   0.189  0.00  0.00     0.033 C 
BRANCH  11  12
HETATM   12  C   UNK     0       8.025   2.117  -0.965  0.00  0.00    -0.022 A 
HETATM   13  C   UNK     0       8.324   3.501  -0.940  0.00  0.00    -0.004 A 
HETATM   14  C   UNK     0       8.018   4.324  -2.040  0.00  0.00    -0.000 A 
HETATM   15  C   UNK     0       7.404   3.777  -3.180  0.00  0.00     0.000 A 
HETATM   16  C   UNK     0       7.090   2.406  -3.216  0.00  0.00    -0.000 A 
HETATM   17  C   UNK     0       7.398   1.582  -2.117  0.00  0.00    -0.004 A 
ENDBRANCH  11  12
ENDBRANCH  10  11
ENDBRANCH   7  10
ENDBRANCH   4   5
ENDBRANCH   2   4
BRANCH   1  18
HETATM   18  C   UNK     0       7.876  -0.412   6.115  0.00  0.00     0.146 C 
HETATM   19  C   UNK     0       7.285   0.595   5.428  0.00  0.00     0.162 C 
HETATM   20  C   UNK     0       6.048   1.112   5.828  0.00  0.00     0.217 C 
HETATM   21  N   UNK     0       7.885   1.147   4.380  0.00  0.00    -0.143 N 
HETATM   22  C   UNK     0       5.477   0.706   7.071  0.00  0.00     0.044 A 
HETATM   23  O   UNK     0       5.451   1.945   5.103  0.00  0.00    -0.285 OA
HETATM   24  C   UNK     0       4.372   1.377   7.647  0.00  0.00     0.003 A 
HETATM   25  C   UNK     0       6.063  -0.389   7.766  0.00  0.00     0.044 A 
HETATM   26  C   UNK     0       3.858   0.972   8.891  0.00  0.00     0.000 A 
HETATM   27  C   UNK     0       4.425  -0.121   9.567  0.00  0.00     0.000 A 
HETATM   28  C   UNK     0       5.517  -0.803   9.005  0.00  0.00     0.003 A 
HETATM   29  C   UNK     0       7.215  -1.011   7.200  0.00  0.00     0.215 C 
HETATM   30  O   UNK     0       7.647  -2.089   7.678  0.00  0.00    -0.285 OA
ENDBRANCH   1  18
TORSDOF 6
ENDMDL
MODEL 7
REMARK VINA RESULT:      -7.4      4.013      6.335
REMARK  6 active torsions:
REMARK  status: ('A' for Active; 'I' for Inactive)
REMARK    1  A    between atoms: C_9  and  N_13 
REMARK       I    between atoms: N_13  and  C_14 
REMARK    2  A    between atoms: C_14  and  C_17 
REMARK    3  A    between atoms: C_17  and  N_18 
REMARK    4  A    between atoms: C_20  and  C_23 
REMARK    5  A    between atoms: C_23  and  C_24 
REMARK    6  A    between atoms: C_24  and  C_25 
ROOT
HETATM    1  N   UNK     0      -3.287  -7.401  -6.165  0.00  0.00    -0.205 NA
HETATM    2  C   UNK     0      -3.546  -8.335  -7.127  0.00  0.00     0.281 C 
HETATM    3  O   UNK     0      -3.191  -9.506  -6.860  0.00  0.00    -0.268 OA
ENDROOT
BRANCH   2   4
HETATM    4  C   UNK     0      -4.257  -8.110  -8.410  0.00  0.00     0.219 C 
BRANCH   4   5
HETATM    5  N   UNK     0      -3.374  -7.557  -9.391  0.00  0.00    -0.221 N 
HETATM    6  C   UNK     0      -3.576  -6.444 -10.120  0.00  0.00     0.114 A 
HETATM    7  C   UNK     0      -2.446  -6.291 -10.909  0.00  0.00     0.101 A 
HETATM    8  N   UNK     0      -1.643  -7.324 -10.614  0.00  0.00    -0.133 NA
HETATM    9  N   UNK     0      -2.219  -8.054  -9.710  0.00  0.00    -0.064 NA
BRANCH   7  10
HETATM   10  C   UNK     0      -2.141  -5.220 -11.881  0.00  0.00     0.054 C 
BRANCH  10  11
HETATM   11  C   UNK     0      -0.619  -4.932 -11.984  0.00  0.00     0.033 C 
BRANCH  11  12
HETATM   12  C   UNK     0      -0.188  -3.874 -11.028  0.00  0.00    -0.022 A 
HETATM   13  C   UNK     0      -0.384  -2.503 -11.325  0.00  0.00    -0.004 A 
HETATM   14  C   UNK     0       0.003  -1.505 -10.411  0.00  0.00    -0.000 A 
HETATM   15  C   UNK     0       0.596  -1.863  -9.187  0.00  0.00     0.000 A 
HETATM   16  C   UNK     0       0.808  -3.219  -8.881  0.00  0.00    -0.000 A 
HETATM   17  C   UNK     0       0.419  -4.217  -9.795  0.00  0.00    -0.004 A 
ENDBRANCH  11  12
ENDBRANCH  10  11
ENDBRANCH   7  10
ENDBRANCH   4   5
ENDBRANCH   2   4
BRANCH   1  18
HETATM   18  C   UNK     0      -3.606  -6.101  -6.209  0.00  0.00     0.146 C 
HETATM   19  C   UNK     0      -4.706  -5.665  -5.550  0.00  0.00     0.162 C 
HETATM   20  C   UNK     0      -5.132  -4.336  -5.656  0.00  0.00     0.217 C 
HETATM   21  N   UNK     0      -5.436  -6.500  -4.819  0.00  0.00    -0.143 N 
HETATM   22  C   UNK     0      -4.514  -3.467  -6.603  0.00  0.00     0.044 A 
HETATM   23  O   UNK     0      -6.068  -3.917  -4.932  0.00  0.00    -0.285 OA
HETATM   24  C   UNK     0      -5.063  -2.205  -6.937  0.00  0.00     0.003 A 
HETATM   25  C   UNK     0      -3.325  -3.900  -7.254  0.00  0.00     0.044 A 
HETATM   26  C   UNK     0      -4.446  -1.389  -7.901  0.00  0.00     0.000 A 
HETATM   27  C   UNK     0      -3.262  -1.810  -8.529  0.00  0.00     0.000 A 
HETATM   28  C   UNK     0      -2.700  -3.056  -8.202  0.00  0.00     0.003 A 
HETATM   29  C   UNK     0      -2.822  -5.200  -6.950  0.00  0.00     0.215 C 
HETATM   30  O   UNK     0      -1.685  -5.546  -7.354  0.00  0.00    -0.285 OA
ENDBRANCH   1  18
TORSDOF 6
ENDMDL
MODEL 8
REMARK VINA RESULT:      -7.4      3.696      8.457
REMARK  6 active torsions:
REMARK  status: ('A' for Active; 'I' for Inactive)
REMARK    1  A    between atoms: C_9  and  N_13 
REMARK       I    between atoms: N_13  and  C_14 
REMARK    2  A    between atoms: C_14  and  C_17 
REMARK    3  A    between atoms: C_17  and  N_18 
REMARK    4  A    between atoms: C_20  and  C_23 
REMARK    5  A    between atoms: C_23  and  C_24 
REMARK    6  A    between atoms: C_24  and  C_25 
ROOT
HETATM    1  N   UNK     0      -1.410  -1.709  -8.080  0.00  0.00    -0.205 NA
HETATM    2  C   UNK     0      -2.706  -1.501  -7.704  0.00  0.00     0.281 C 
HETATM    3  O   UNK     0      -2.894  -0.579  -6.878  0.00  0.00    -0.268 OA
ENDROOT
BRANCH   2   4
HETATM    4  C   UNK     0      -3.902  -2.209  -8.224  0.00  0.00     0.219 C 
BRANCH   4   5
HETATM    5  N   UNK     0      -4.401  -3.142  -7.261  0.00  0.00    -0.221 N 
HETATM    6  C   UNK     0      -4.177  -4.469  -7.234  0.00  0.00     0.114 A 
HETATM    7  C   UNK     0      -4.834  -4.948  -6.111  0.00  0.00     0.101 A 
HETATM    8  N   UNK     0      -5.420  -3.884  -5.541  0.00  0.00    -0.133 NA
HETATM    9  N   UNK     0      -5.141  -2.830  -6.243  0.00  0.00    -0.064 NA
BRANCH   7  10
HETATM   10  C   UNK     0      -4.896  -6.334  -5.603  0.00  0.00     0.054 C 
BRANCH  10  11
HETATM   11  C   UNK     0      -4.776  -6.402  -4.056  0.00  0.00     0.033 C 
BRANCH  11  12
HETATM   12  C   UNK     0      -6.109  -6.500  -3.399  0.00  0.00    -0.022 A 
HETATM   13  C   UNK     0      -7.045  -7.484  -3.801  0.00  0.00    -0.004 A 
HETATM   14  C   UNK     0      -8.296  -7.592  -3.163  0.00  0.00    -0.000 A 
HETATM   15  C   UNK     0      -8.631  -6.713  -2.118  0.00  0.00     0.000 A 
HETATM   16  C   UNK     0      -7.717  -5.723  -1.714  0.00  0.00    -0.000 A 
HETATM   17  C   UNK     0      -6.465  -5.618  -2.351  0.00  0.00    -0.004 A 
ENDBRANCH  11  12
ENDBRANCH  10  11
ENDBRANCH   7  10
ENDBRANCH   4   5
ENDBRANCH   2   4
BRANCH   1  18
HETATM   18  C   UNK     0      -0.972  -2.607  -8.972  0.00  0.00     0.146 C 
HETATM   19  C   UNK     0      -0.640  -2.195 -10.219  0.00  0.00     0.162 C 
HETATM   20  C   UNK     0      -0.278  -3.115 -11.210  0.00  0.00     0.217 C 
HETATM   21  N   UNK     0      -0.690  -0.910 -10.546  0.00  0.00    -0.143 N 
HETATM   22  C   UNK     0      -0.429  -4.513 -10.970  0.00  0.00     0.044 A 
HETATM   23  O   UNK     0       0.160  -2.709 -12.314  0.00  0.00    -0.285 OA
HETATM   24  C   UNK     0      -0.328  -5.470 -12.007  0.00  0.00     0.003 A 
HETATM   25  C   UNK     0      -0.721  -4.951  -9.648  0.00  0.00     0.044 A 
HETATM   26  C   UNK     0      -0.517  -6.838 -11.740  0.00  0.00     0.000 A 
HETATM   27  C   UNK     0      -0.788  -7.270 -10.431  0.00  0.00     0.000 A 
HETATM   28  C   UNK     0      -0.882  -6.334  -9.389  0.00  0.00     0.003 A 
HETATM   29  C   UNK     0      -0.881  -3.966  -8.628  0.00  0.00     0.215 C 
HETATM   30  O   UNK     0      -0.952  -4.313  -7.423  0.00  0.00    -0.285 OA
ENDBRANCH   1  18
TORSDOF 6
ENDMDL
MODEL 9
REMARK VINA RESULT:      -7.4      4.909      9.738
REMARK  6 active torsions:
REMARK  status: ('A' for Active; 'I' for Inactive)
REMARK    1  A    between atoms: C_9  and  N_13 
REMARK       I    between atoms: N_13  and  C_14 
REMARK    2  A    between atoms: C_14  and  C_17 
REMARK    3  A    between atoms: C_17  and  N_18 
REMARK    4  A    between atoms: C_20  and  C_23 
REMARK    5  A    between atoms: C_23  and  C_24 
REMARK    6  A    between atoms: C_24  and  C_25 
ROOT
HETATM    1  N   UNK     0       3.898   3.408  -8.759  0.00  0.00    -0.205 NA
HETATM    2  C   UNK     0       2.547   3.591  -8.685  0.00  0.00     0.281 C 
HETATM    3  O   UNK     0       2.041   4.292  -9.589  0.00  0.00    -0.268 OA
ENDROOT
BRANCH   2   4
HETATM    4  C   UNK     0       1.627   2.991  -7.687  0.00  0.00     0.219 C 
BRANCH   4   5
HETATM    5  N   UNK     0       0.927   1.875  -8.246  0.00  0.00    -0.221 N 
HETATM    6  C   UNK     0      -0.349   1.857  -8.675  0.00  0.00     0.114 A 
HETATM    7  C   UNK     0      -0.575   0.577  -9.157  0.00  0.00     0.101 A 
HETATM    8  N   UNK     0       0.572  -0.096  -8.977  0.00  0.00    -0.133 NA
HETATM    9  N   UNK     0       1.442   0.701  -8.439  0.00  0.00    -0.064 NA
BRANCH   7  10
HETATM   10  C   UNK     0      -1.806   0.026  -9.761  0.00  0.00     0.054 C 
BRANCH  10  11
HETATM   11  C   UNK     0      -3.047   0.213  -8.847  0.00  0.00     0.033 C 
BRANCH  11  12
HETATM   12  C   UNK     0      -3.360  -1.023  -8.076  0.00  0.00    -0.022 A 
HETATM   13  C   UNK     0      -2.335  -1.929  -7.710  0.00  0.00    -0.004 A 
HETATM   14  C   UNK     0      -2.628  -3.085  -6.961  0.00  0.00    -0.000 A 
HETATM   15  C   UNK     0      -3.952  -3.355  -6.573  0.00  0.00     0.000 A 
HETATM   16  C   UNK     0      -4.984  -2.471  -6.939  0.00  0.00    -0.000 A 
HETATM   17  C   UNK     0      -4.690  -1.314  -7.685  0.00  0.00    -0.004 A 
ENDBRANCH  11  12
ENDBRANCH  10  11
ENDBRANCH   7  10
ENDBRANCH   4   5
ENDBRANCH   2   4
BRANCH   1  18
HETATM   18  C   UNK     0       4.650   2.671  -7.931  0.00  0.00     0.146 C 
HETATM   19  C   UNK     0       4.978   3.166  -6.713  0.00  0.00     0.162 C 
HETATM   20  C   UNK     0       5.846   2.474  -5.861  0.00  0.00     0.217 C 
HETATM   21  N   UNK     0       4.516   4.345  -6.313  0.00  0.00    -0.143 N 
HETATM   22  C   UNK     0       6.540   1.322  -6.339  0.00  0.00     0.044 A 
HETATM   23  O   UNK     0       6.028   2.877  -4.687  0.00  0.00    -0.285 OA
HETATM   24  C   UNK     0       7.612   0.738  -5.623  0.00  0.00     0.003 A 
HETATM   25  C   UNK     0       6.158   0.766  -7.592  0.00  0.00     0.044 A 
HETATM   26  C   UNK     0       8.296  -0.375  -6.140  0.00  0.00     0.000 A 
HETATM   27  C   UNK     0       7.906  -0.935  -7.369  0.00  0.00     0.000 A 
HETATM   28  C   UNK     0       6.837  -0.373  -8.087  0.00  0.00     0.003 A 
HETATM   29  C   UNK     0       5.117   1.406  -8.328  0.00  0.00     0.215 C 
HETATM   30  O   UNK     0       4.624   0.847  -9.338  0.00  0.00    -0.285 OA
ENDBRANCH   1  18
TORSDOF 6
ENDMDL
