MODEL 1
REMARK VINA RESULT:      -7.0      0.000      0.000
REMARK  5 active torsions:
REMARK  status: ('A' for Active; 'I' for Inactive)
REMARK    1  A    between atoms: C_9  and  N_13 
REMARK       I    between atoms: N_13  and  C_14 
REMARK    2  A    between atoms: C_14  and  C_17 
REMARK    3  A    between atoms: C_17  and  N_18 
REMARK    4  A    between atoms: C_20  and  C_23 
REMARK    5  A    between atoms: C_23  and  C_24 
ROOT
HETATM    1  C   UNK     0      -6.217  -5.239  -3.276  0.00  0.00     0.003 A 
HETATM    2  C   UNK     0      -6.554  -5.895  -2.079  0.00  0.00     0.000 A 
HETATM    3  C   UNK     0      -6.056  -7.182  -1.814  0.00  0.00     0.000 A 
HETATM    4  C   UNK     0      -5.204  -7.810  -2.738  0.00  0.00     0.003 A 
HETATM    5  C   UNK     0      -4.857  -7.163  -3.948  0.00  0.00     0.044 A 
HETATM    6  C   UNK     0      -5.389  -5.871  -4.233  0.00  0.00     0.044 A 
HETATM    7  C   UNK     0      -4.001  -7.775  -4.912  0.00  0.00     0.217 C 
HETATM    8  C   UNK     0      -3.877  -7.219  -6.190  0.00  0.00     0.162 C 
HETATM    9  C   UNK     0      -4.420  -6.012  -6.484  0.00  0.00     0.146 C 
HETATM   10  C   UNK     0      -5.083  -5.270  -5.493  0.00  0.00     0.215 C 
HETATM   11  O   UNK     0      -5.420  -4.083  -5.727  0.00  0.00    -0.285 OA
HETATM   12  O   UNK     0      -3.367  -8.819  -4.617  0.00  0.00    -0.285 OA
HETATM   13  N   UNK     0      -3.237  -7.924  -7.116  0.00  0.00    -0.143 N 
ENDROOT
BRANCH   9  14
HETATM   14  N   UNK     0      -4.308  -5.536  -7.730  0.00  0.00    -0.205 NA
HETATM   15  C   UNK     0      -3.338  -4.697  -8.198  0.00  0.00     0.281 C 
HETATM   16  O   UNK     0      -3.450  -4.352  -9.397  0.00  0.00    -0.268 OA
BRANCH  15  17
HETATM   17  C   UNK     0      -2.206  -4.130  -7.421  0.00  0.00     0.219 C 
BRANCH  17  18
HETATM   18  N   UNK     0      -2.184  -2.700  -7.503  0.00  0.00    -0.221 N 
HETATM   19  C   UNK     0      -1.598  -1.949  -8.453  0.00  0.00     0.114 A 
HETATM   20  C   UNK     0      -1.876  -0.628  -8.128  0.00  0.00     0.102 A 
HETATM   21  N   UNK     0      -2.589  -0.666  -6.992  0.00  0.00    -0.133 NA
HETATM   22  N   UNK     0      -2.759  -1.907  -6.652  0.00  0.00    -0.064 NA
BRANCH  20  23
HETATM   23  C   UNK     0      -1.494   0.601  -8.863  0.00  0.00     0.062 C 
BRANCH  23  24
HETATM   24  C   UNK     0      -2.652   1.478  -9.376  0.00  0.00     0.074 C 
HETATM   25 Br   UNK     0      -3.778   0.852 -10.218  0.00  0.00    -0.081 Br
ENDBRANCH  23  24
ENDBRANCH  20  23
ENDBRANCH  17  18
ENDBRANCH  15  17
ENDBRANCH   9  14
TORSDOF 5
ENDMDL
MODEL 2
REMARK VINA RESULT:      -6.9      3.570      7.643
REMARK  5 active torsions:
REMARK  status: ('A' for Active; 'I' for Inactive)
REMARK    1  A    between atoms: C_9  and  N_13 
REMARK       I    between atoms: N_13  and  C_14 
REMARK    2  A    between atoms: C_14  and  C_17 
REMARK    3  A    between atoms: C_17  and  N_18 
REMARK    4  A    between atoms: C_20  and  C_23 
REMARK    5  A    between atoms: C_23  and  C_24 
ROOT
HETATM    1  C   UNK     0      -0.493  -5.612  -9.207  0.00  0.00     0.003 A 
HETATM    2  C   UNK     0       0.510  -4.717  -9.622  0.00  0.00     0.000 A 
HETATM    3  C   UNK     0       0.471  -3.374  -9.213  0.00  0.00     0.000 A 
HETATM    4  C   UNK     0      -0.560  -2.924  -8.373  0.00  0.00     0.003 A 
HETATM    5  C   UNK     0      -1.577  -3.812  -7.947  0.00  0.00     0.044 A 
HETATM    6  C   UNK     0      -1.558  -5.167  -8.389  0.00  0.00     0.044 A 
HETATM    7  C   UNK     0      -2.644  -3.386  -7.100  0.00  0.00     0.217 C 
HETATM    8  C   UNK     0      -3.752  -4.216  -6.901  0.00  0.00     0.162 C 
HETATM    9  C   UNK     0      -3.762  -5.493  -7.359  0.00  0.00     0.146 C 
HETATM   10  C   UNK     0      -2.635  -6.025  -8.006  0.00  0.00     0.215 C 
HETATM   11  O   UNK     0      -2.588  -7.253  -8.261  0.00  0.00    -0.285 OA
HETATM   12  O   UNK     0      -2.593  -2.262  -6.542  0.00  0.00    -0.285 OA
HETATM   13  N   UNK     0      -4.807  -3.706  -6.277  0.00  0.00    -0.143 N 
ENDROOT
BRANCH   9  14
HETATM   14  N   UNK     0      -4.859  -6.239  -7.177  0.00  0.00    -0.205 NA
HETATM   15  C   UNK     0      -5.090  -7.112  -6.154  0.00  0.00     0.281 C 
HETATM   16  O   UNK     0      -6.177  -7.733  -6.204  0.00  0.00    -0.268 OA
BRANCH  15  17
HETATM   17  C   UNK     0      -4.171  -7.425  -5.030  0.00  0.00     0.219 C 
BRANCH  17  18
HETATM   18  N   UNK     0      -4.754  -7.076  -3.769  0.00  0.00    -0.221 N 
HETATM   19  C   UNK     0      -5.324  -7.908  -2.879  0.00  0.00     0.114 A 
HETATM   20  C   UNK     0      -5.707  -7.119  -1.802  0.00  0.00     0.102 A 
HETATM   21  N   UNK     0      -5.367  -5.861  -2.123  0.00  0.00    -0.133 NA
HETATM   22  N   UNK     0      -4.800  -5.870  -3.290  0.00  0.00    -0.064 NA
BRANCH  20  23
HETATM   23  C   UNK     0      -6.351  -7.539  -0.536  0.00  0.00     0.062 C 
BRANCH  23  24
HETATM   24  C   UNK     0      -7.869  -7.798  -0.593  0.00  0.00     0.074 C 
HETATM   25 Br   UNK     0      -8.782  -6.850  -1.391  0.00  0.00    -0.081 Br
ENDBRANCH  23  24
ENDBRANCH  20  23
ENDBRANCH  17  18
ENDBRANCH  15  17
ENDBRANCH   9  14
TORSDOF 5
ENDMDL
MODEL 3
REMARK VINA RESULT:      -6.9      2.375      3.034
REMARK  5 active torsions:
REMARK  status: ('A' for Active; 'I' for Inactive)
REMARK    1  A    between atoms: C_9  and  N_13 
REMARK       I    between atoms: N_13  and  C_14 
REMARK    2  A    between atoms: C_14  and  C_17 
REMARK    3  A    between atoms: C_17  and  N_18 
REMARK    4  A    between atoms: C_20  and  C_23 
REMARK    5  A    between atoms: C_23  and  C_24 
ROOT
HETATM    1  C   UNK     0      -4.429  -7.799  -4.154  0.00  0.00     0.003 A 
HETATM    2  C   UNK     0      -4.063  -9.148  -3.999  0.00  0.00     0.000 A 
HETATM    3  C   UNK     0      -3.368  -9.813  -5.022  0.00  0.00     0.000 A 
HETATM    4  C   UNK     0      -3.020  -9.127  -6.197  0.00  0.00     0.003 A 
HETATM    5  C   UNK     0      -3.382  -7.769  -6.369  0.00  0.00     0.044 A 
HETATM    6  C   UNK     0      -4.117  -7.103  -5.346  0.00  0.00     0.044 A 
HETATM    7  C   UNK     0      -3.052  -7.044  -7.553  0.00  0.00     0.217 C 
HETATM    8  C   UNK     0      -3.632  -5.794  -7.791  0.00  0.00     0.162 C 
HETATM    9  C   UNK     0      -4.372  -5.172  -6.840  0.00  0.00     0.146 C 
HETATM   10  C   UNK     0      -4.536  -5.755  -5.573  0.00  0.00     0.215 C 
HETATM   11  O   UNK     0      -5.066  -5.092  -4.648  0.00  0.00    -0.285 OA
HETATM   12  O   UNK     0      -2.250  -7.534  -8.387  0.00  0.00    -0.285 OA
HETATM   13  N   UNK     0      -3.460  -5.246  -8.989  0.00  0.00    -0.143 N 
ENDROOT
BRANCH   9  14
HETATM   14  N   UNK     0      -4.938  -3.993  -7.126  0.00  0.00    -0.205 NA
HETATM   15  C   UNK     0      -4.352  -2.764  -7.033  0.00  0.00     0.281 C 
HETATM   16  O   UNK     0      -5.084  -1.789  -7.319  0.00  0.00    -0.268 OA
BRANCH  15  17
HETATM   17  C   UNK     0      -2.964  -2.475  -6.588  0.00  0.00     0.219 C 
BRANCH  17  18
HETATM   18  N   UNK     0      -2.285  -1.628  -7.521  0.00  0.00    -0.221 N 
HETATM   19  C   UNK     0      -1.557  -2.011  -8.586  0.00  0.00     0.114 A 
HETATM   20  C   UNK     0      -1.131  -0.843  -9.204  0.00  0.00     0.102 A 
HETATM   21  N   UNK     0      -1.607   0.167  -8.460  0.00  0.00    -0.133 NA
HETATM   22  N   UNK     0      -2.290  -0.331  -7.475  0.00  0.00    -0.064 NA
BRANCH  20  23
HETATM   23  C   UNK     0      -0.326  -0.695 -10.439  0.00  0.00     0.062 C 
BRANCH  23  24
HETATM   24  C   UNK     0       1.118  -0.191 -10.258  0.00  0.00     0.074 C 
HETATM   25 Br   UNK     0       2.099  -0.968  -9.360  0.00  0.00    -0.081 Br
ENDBRANCH  23  24
ENDBRANCH  20  23
ENDBRANCH  17  18
ENDBRANCH  15  17
ENDBRANCH   9  14
TORSDOF 5
ENDMDL
MODEL 4
REMARK VINA RESULT:      -6.8      3.516      7.176
REMARK  5 active torsions:
REMARK  status: ('A' for Active; 'I' for Inactive)
REMARK    1  A    between atoms: C_9  and  N_13 
REMARK       I    between atoms: N_13  and  C_14 
REMARK    2  A    between atoms: C_14  and  C_17 
REMARK    3  A    between atoms: C_17  and  N_18 
REMARK    4  A    between atoms: C_20  and  C_23 
REMARK    5  A    between atoms: C_23  and  C_24 
ROOT
HETATM    1  C   UNK     0      -0.936  -6.423  -9.206  0.00  0.00     0.003 A 
HETATM    2  C   UNK     0      -0.823  -7.391 -10.220  0.00  0.00     0.000 A 
HETATM    3  C   UNK     0      -0.604  -6.998 -11.550  0.00  0.00     0.000 A 
HETATM    4  C   UNK     0      -0.478  -5.636 -11.870  0.00  0.00     0.003 A 
HETATM    5  C   UNK     0      -0.590  -4.649 -10.861  0.00  0.00     0.044 A 
HETATM    6  C   UNK     0      -0.846  -5.045  -9.516  0.00  0.00     0.044 A 
HETATM    7  C   UNK     0      -0.475  -3.257 -11.151  0.00  0.00     0.217 C 
HETATM    8  C   UNK     0      -0.831  -2.310 -10.185  0.00  0.00     0.162 C 
HETATM    9  C   UNK     0      -1.123  -2.681  -8.914  0.00  0.00     0.146 C 
HETATM   10  C   UNK     0      -1.028  -4.028  -8.528  0.00  0.00     0.215 C 
HETATM   11  O   UNK     0      -1.123  -4.334  -7.314  0.00  0.00    -0.285 OA
HETATM   12  O   UNK     0      -0.065  -2.881 -12.278  0.00  0.00    -0.285 OA
HETATM   13  N   UNK     0      -0.905  -1.037 -10.559  0.00  0.00    -0.143 N 
ENDROOT
BRANCH   9  14
HETATM   14  N   UNK     0      -1.493  -1.744  -8.033  0.00  0.00    -0.205 NA
HETATM   15  C   UNK     0      -2.769  -1.447  -7.646  0.00  0.00     0.281 C 
HETATM   16  O   UNK     0      -2.883  -0.503  -6.831  0.00  0.00    -0.268 OA
BRANCH  15  17
HETATM   17  C   UNK     0      -4.015  -2.097  -8.128  0.00  0.00     0.219 C 
BRANCH  17  18
HETATM   18  N   UNK     0      -4.445  -3.126  -7.230  0.00  0.00    -0.221 N 
HETATM   19  C   UNK     0      -4.197  -4.444  -7.326  0.00  0.00     0.114 A 
HETATM   20  C   UNK     0      -4.783  -5.031  -6.213  0.00  0.00     0.102 A 
HETATM   21  N   UNK     0      -5.368  -4.033  -5.531  0.00  0.00    -0.133 NA
HETATM   22  N   UNK     0      -5.144  -2.919  -6.157  0.00  0.00    -0.064 NA
BRANCH  20  23
HETATM   23  C   UNK     0      -4.779  -6.458  -5.814  0.00  0.00     0.062 C 
BRANCH  23  24
HETATM   24  C   UNK     0      -3.415  -7.172  -5.844  0.00  0.00     0.074 C 
HETATM   25 Br   UNK     0      -3.207  -8.398  -6.751  0.00  0.00    -0.081 Br
ENDBRANCH  23  24
ENDBRANCH  20  23
ENDBRANCH  17  18
ENDBRANCH  15  17
ENDBRANCH   9  14
TORSDOF 5
ENDMDL
MODEL 5
REMARK VINA RESULT:      -6.7      2.909      4.039
REMARK  5 active torsions:
REMARK  status: ('A' for Active; 'I' for Inactive)
REMARK    1  A    between atoms: C_9  and  N_13 
REMARK       I    between atoms: N_13  and  C_14 
REMARK    2  A    between atoms: C_14  and  C_17 
REMARK    3  A    between atoms: C_17  and  N_18 
REMARK    4  A    between atoms: C_20  and  C_23 
REMARK    5  A    between atoms: C_23  and  C_24 
ROOT
HETATM    1  C   UNK     0      -4.797  -5.215  -5.691  0.00  0.00     0.003 A 
HETATM    2  C   UNK     0      -4.546  -6.461  -5.090  0.00  0.00     0.000 A 
HETATM    3  C   UNK     0      -3.493  -7.269  -5.552  0.00  0.00     0.000 A 
HETATM    4  C   UNK     0      -2.676  -6.825  -6.605  0.00  0.00     0.003 A 
HETATM    5  C   UNK     0      -2.916  -5.574  -7.221  0.00  0.00     0.044 A 
HETATM    6  C   UNK     0      -4.005  -4.769  -6.776  0.00  0.00     0.044 A 
HETATM    7  C   UNK     0      -2.111  -5.096  -8.297  0.00  0.00     0.217 C 
HETATM    8  C   UNK     0      -2.523  -3.982  -9.037  0.00  0.00     0.162 C 
HETATM    9  C   UNK     0      -3.586  -3.237  -8.647  0.00  0.00     0.146 C 
HETATM   10  C   UNK     0      -4.273  -3.544  -7.461  0.00  0.00     0.215 C 
HETATM   11  O   UNK     0      -5.135  -2.745  -7.019  0.00  0.00    -0.285 OA
HETATM   12  O   UNK     0      -1.039  -5.683  -8.589  0.00  0.00    -0.285 OA
HETATM   13  N   UNK     0      -1.857  -3.694 -10.150  0.00  0.00    -0.143 N 
ENDROOT
BRANCH   9  14
HETATM   14  N   UNK     0      -3.965  -2.201  -9.406  0.00  0.00    -0.205 NA
HETATM   15  C   UNK     0      -3.655  -0.887  -9.206  0.00  0.00     0.281 C 
HETATM   16  O   UNK     0      -4.150  -0.080 -10.026  0.00  0.00    -0.268 OA
BRANCH  15  17
HETATM   17  C   UNK     0      -2.835  -0.328  -8.099  0.00  0.00     0.219 C 
BRANCH  17  18
HETATM   18  N   UNK     0      -1.509  -0.019  -8.540  0.00  0.00    -0.221 N 
HETATM   19  C   UNK     0      -1.030   1.188  -8.892  0.00  0.00     0.114 A 
HETATM   20  C   UNK     0       0.309   0.997  -9.208  0.00  0.00     0.102 A 
HETATM   21  N   UNK     0       0.544  -0.316  -9.051  0.00  0.00    -0.133 NA
HETATM   22  N   UNK     0      -0.550  -0.886  -8.650  0.00  0.00    -0.064 NA
BRANCH  20  23
HETATM   23  C   UNK     0       1.310   2.006  -9.625  0.00  0.00     0.062 C 
BRANCH  23  24
HETATM   24  C   UNK     0       1.279   3.351  -8.876  0.00  0.00     0.074 C 
HETATM   25 Br   UNK     0       1.723   3.423  -7.403  0.00  0.00    -0.081 Br
ENDBRANCH  23  24
ENDBRANCH  20  23
ENDBRANCH  17  18
ENDBRANCH  15  17
ENDBRANCH   9  14
TORSDOF 5
ENDMDL
MODEL 6
REMARK VINA RESULT:      -6.6      3.373      7.721
REMARK  5 active torsions:
REMARK  status: ('A' for Active; 'I' for Inactive)
REMARK    1  A    between atoms: C_9  and  N_13 
REMARK       I    between atoms: N_13  and  C_14 
REMARK    2  A    between atoms: C_14  and  C_17 
REMARK    3  A    between atoms: C_17  and  N_18 
REMARK    4  A    between atoms: C_20  and  C_23 
REMARK    5  A    between atoms: C_23  and  C_24 
ROOT
HETATM    1  C   UNK     0      -0.283  -3.670  -9.964  0.00  0.00     0.003 A 
HETATM    2  C   UNK     0       0.540  -2.562 -10.233  0.00  0.00     0.000 A 
HETATM    3  C   UNK     0       0.281  -1.326  -9.620  0.00  0.00     0.000 A 
HETATM    4  C   UNK     0      -0.792  -1.196  -8.722  0.00  0.00     0.003 A 
HETATM    5  C   UNK     0      -1.630  -2.302  -8.442  0.00  0.00     0.044 A 
HETATM    6  C   UNK     0      -1.389  -3.549  -9.090  0.00  0.00     0.044 A 
HETATM    7  C   UNK     0      -2.732  -2.204  -7.541  0.00  0.00     0.217 C 
HETATM    8  C   UNK     0      -3.676  -3.235  -7.477  0.00  0.00     0.162 C 
HETATM    9  C   UNK     0      -3.478  -4.408  -8.128  0.00  0.00     0.146 C 
HETATM   10  C   UNK     0      -2.292  -4.630  -8.848  0.00  0.00     0.215 C 
HETATM   11  O   UNK     0      -2.040  -5.777  -9.291  0.00  0.00    -0.285 OA
HETATM   12  O   UNK     0      -2.862  -1.187  -6.815  0.00  0.00    -0.285 OA
HETATM   13  N   UNK     0      -4.788  -3.018  -6.783  0.00  0.00    -0.143 N 
ENDROOT
BRANCH   9  14
HETATM   14  N   UNK     0      -4.425  -5.352  -8.068  0.00  0.00    -0.205 NA
HETATM   15  C   UNK     0      -4.553  -6.318  -7.112  0.00  0.00     0.281 C 
HETATM   16  O   UNK     0      -5.499  -7.122  -7.275  0.00  0.00    -0.268 OA
BRANCH  15  17
HETATM   17  C   UNK     0      -3.664  -6.530  -5.941  0.00  0.00     0.219 C 
BRANCH  17  18
HETATM   18  N   UNK     0      -4.402  -6.495  -4.714  0.00  0.00    -0.221 N 
HETATM   19  C   UNK     0      -4.648  -7.525  -3.884  0.00  0.00     0.114 A 
HETATM   20  C   UNK     0      -5.365  -7.000  -2.818  0.00  0.00     0.102 A 
HETATM   21  N   UNK     0      -5.528  -5.694  -3.085  0.00  0.00    -0.133 NA
HETATM   22  N   UNK     0      -4.942  -5.427  -4.211  0.00  0.00    -0.064 NA
BRANCH  20  23
HETATM   23  C   UNK     0      -5.859  -7.697  -1.607  0.00  0.00     0.062 C 
BRANCH  23  24
HETATM   24  C   UNK     0      -7.246  -7.270  -1.090  0.00  0.00     0.074 C 
HETATM   25 Br   UNK     0      -8.517  -7.728  -1.828  0.00  0.00    -0.081 Br
ENDBRANCH  23  24
ENDBRANCH  20  23
ENDBRANCH  17  18
ENDBRANCH  15  17
ENDBRANCH   9  14
TORSDOF 5
ENDMDL
MODEL 7
REMARK VINA RESULT:      -6.6      3.227      5.529
REMARK  5 active torsions:
REMARK  status: ('A' for Active; 'I' for Inactive)
REMARK    1  A    between atoms: C_9  and  N_13 
REMARK       I    between atoms: N_13  and  C_14 
REMARK    2  A    between atoms: C_14  and  C_17 
REMARK    3  A    between atoms: C_17  and  N_18 
REMARK    4  A    between atoms: C_20  and  C_23 
REMARK    5  A    between atoms: C_23  and  C_24 
ROOT
HETATM    1  C   UNK     0      -1.386  -3.789 -11.742  0.00  0.00     0.003 A 
HETATM    2  C   UNK     0      -0.244  -4.227 -12.436  0.00  0.00     0.000 A 
HETATM    3  C   UNK     0       0.372  -5.440 -12.086  0.00  0.00     0.000 A 
HETATM    4  C   UNK     0      -0.161  -6.228 -11.053  0.00  0.00     0.003 A 
HETATM    5  C   UNK     0      -1.309  -5.800 -10.344  0.00  0.00     0.044 A 
HETATM    6  C   UNK     0      -1.916  -4.554 -10.676  0.00  0.00     0.044 A 
HETATM    7  C   UNK     0      -1.872  -6.572  -9.285  0.00  0.00     0.217 C 
HETATM    8  C   UNK     0      -2.847  -6.010  -8.453  0.00  0.00     0.162 C 
HETATM    9  C   UNK     0      -3.397  -4.803  -8.734  0.00  0.00     0.146 C 
HETATM   10  C   UNK     0      -3.030  -4.109  -9.898  0.00  0.00     0.215 C 
HETATM   11  O   UNK     0      -3.673  -3.086 -10.240  0.00  0.00    -0.285 OA
HETATM   12  O   UNK     0      -1.485  -7.752  -9.091  0.00  0.00    -0.285 OA
HETATM   13  N   UNK     0      -3.196  -6.683  -7.362  0.00  0.00    -0.143 N 
ENDROOT
BRANCH   9  14
HETATM   14  N   UNK     0      -4.300  -4.289  -7.890  0.00  0.00    -0.205 NA
HETATM   15  C   UNK     0      -4.063  -3.394  -6.887  0.00  0.00     0.281 C 
HETATM   16  O   UNK     0      -5.057  -3.075  -6.197  0.00  0.00    -0.268 OA
BRANCH  15  17
HETATM   17  C   UNK     0      -2.749  -2.807  -6.516  0.00  0.00     0.219 C 
BRANCH  17  18
HETATM   18  N   UNK     0      -2.386  -1.743  -7.403  0.00  0.00    -0.221 N 
HETATM   19  C   UNK     0      -3.082  -0.618  -7.652  0.00  0.00     0.114 A 
HETATM   20  C   UNK     0      -2.318   0.121  -8.545  0.00  0.00     0.102 A 
HETATM   21  N   UNK     0      -1.224  -0.616  -8.797  0.00  0.00    -0.133 NA
HETATM   22  N   UNK     0      -1.293  -1.709  -8.102  0.00  0.00    -0.064 NA
BRANCH  20  23
HETATM   23  C   UNK     0      -2.605   1.456  -9.118  0.00  0.00     0.062 C 
BRANCH  23  24
HETATM   24  C   UNK     0      -2.914   1.501 -10.627  0.00  0.00     0.074 C 
HETATM   25 Br   UNK     0      -3.885   0.479 -11.245  0.00  0.00    -0.081 Br
ENDBRANCH  23  24
ENDBRANCH  20  23
ENDBRANCH  17  18
ENDBRANCH  15  17
ENDBRANCH   9  14
TORSDOF 5
ENDMDL
MODEL 8
REMARK VINA RESULT:      -6.5      4.477      6.235
REMARK  5 active torsions:
REMARK  status: ('A' for Active; 'I' for Inactive)
REMARK    1  A    between atoms: C_9  and  N_13 
REMARK       I    between atoms: N_13  and  C_14 
REMARK    2  A    between atoms: C_14  and  C_17 
REMARK    3  A    between atoms: C_17  and  N_18 
REMARK    4  A    between atoms: C_20  and  C_23 
REMARK    5  A    between atoms: C_23  and  C_24 
ROOT
HETATM    1  C   UNK     0      -4.040  -0.882  -8.090  0.00  0.00     0.003 A 
HETATM    2  C   UNK     0      -5.089  -1.417  -7.321  0.00  0.00     0.000 A 
HETATM    3  C   UNK     0      -4.979  -2.707  -6.779  0.00  0.00     0.000 A 
HETATM    4  C   UNK     0      -3.813  -3.462  -6.988  0.00  0.00     0.003 A 
HETATM    5  C   UNK     0      -2.749  -2.938  -7.760  0.00  0.00     0.044 A 
HETATM    6  C   UNK     0      -2.873  -1.641  -8.340  0.00  0.00     0.044 A 
HETATM    7  C   UNK     0      -1.553  -3.679  -7.998  0.00  0.00     0.217 C 
HETATM    8  C   UNK     0      -0.636  -3.237  -8.958  0.00  0.00     0.162 C 
HETATM    9  C   UNK     0      -0.772  -2.024  -9.549  0.00  0.00     0.146 C 
HETATM   10  C   UNK     0      -1.817  -1.163  -9.176  0.00  0.00     0.215 C 
HETATM   11  O   UNK     0      -1.827   0.020  -9.595  0.00  0.00    -0.285 OA
HETATM   12  O   UNK     0      -1.330  -4.735  -7.355  0.00  0.00    -0.285 OA
HETATM   13  N   UNK     0       0.355  -4.054  -9.294  0.00  0.00    -0.143 N 
ENDROOT
BRANCH   9  14
HETATM   14  N   UNK     0       0.110  -1.658 -10.488  0.00  0.00    -0.205 NA
HETATM   15  C   UNK     0       1.324  -1.069 -10.281  0.00  0.00     0.281 C 
HETATM   16  O   UNK     0       1.971  -0.780 -11.314  0.00  0.00    -0.268 OA
BRANCH  15  17
HETATM   17  C   UNK     0       1.920  -0.704  -8.970  0.00  0.00     0.219 C 
BRANCH  17  18
HETATM   18  N   UNK     0       1.833   0.705  -8.734  0.00  0.00    -0.221 N 
HETATM   19  C   UNK     0       2.715   1.649  -9.110  0.00  0.00     0.114 A 
HETATM   20  C   UNK     0       2.186   2.863  -8.692  0.00  0.00     0.102 A 
HETATM   21  N   UNK     0       1.033   2.571  -8.069  0.00  0.00    -0.133 NA
HETATM   22  N   UNK     0       0.851   1.288  -8.117  0.00  0.00    -0.064 NA
BRANCH  20  23
HETATM   23  C   UNK     0       2.740   4.223  -8.883  0.00  0.00     0.062 C 
BRANCH  23  24
HETATM   24  C   UNK     0       2.692   5.159  -7.660  0.00  0.00     0.074 C 
HETATM   25 Br   UNK     0       3.675   4.953  -6.494  0.00  0.00    -0.081 Br
ENDBRANCH  23  24
ENDBRANCH  20  23
ENDBRANCH  17  18
ENDBRANCH  15  17
ENDBRANCH   9  14
TORSDOF 5
ENDMDL
MODEL 9
REMARK VINA RESULT:      -6.5      4.039      5.794
REMARK  5 active torsions:
REMARK  status: ('A' for Active; 'I' for Inactive)
REMARK    1  A    between atoms: C_9  and  N_13 
REMARK       I    between atoms: N_13  and  C_14 
REMARK    2  A    between atoms: C_14  and  C_17 
REMARK    3  A    between atoms: C_17  and  N_18 
REMARK    4  A    between atoms: C_20  and  C_23 
REMARK    5  A    between atoms: C_23  and  C_24 
ROOT
HETATM    1  C   UNK     0      -4.894  -2.690  -7.051  0.00  0.00     0.003 A 
HETATM    2  C   UNK     0      -4.999  -3.842  -6.251  0.00  0.00     0.000 A 
HETATM    3  C   UNK     0      -3.953  -4.779  -6.222  0.00  0.00     0.000 A 
HETATM    4  C   UNK     0      -2.790  -4.559  -6.978  0.00  0.00     0.003 A 
HETATM    5  C   UNK     0      -2.669  -3.404  -7.788  0.00  0.00     0.044 A 
HETATM    6  C   UNK     0      -3.744  -2.470  -7.845  0.00  0.00     0.044 A 
HETATM    7  C   UNK     0      -1.505  -3.153  -8.575  0.00  0.00     0.217 C 
HETATM    8  C   UNK     0      -1.520  -2.142  -9.541  0.00  0.00     0.162 C 
HETATM    9  C   UNK     0      -2.560  -1.277  -9.634  0.00  0.00     0.146 C 
HETATM   10  C   UNK     0      -3.629  -1.350  -8.726  0.00  0.00     0.215 C 
HETATM   11  O   UNK     0      -4.491  -0.438  -8.707  0.00  0.00    -0.285 OA
HETATM   12  O   UNK     0      -0.471  -3.848  -8.408  0.00  0.00    -0.285 OA
HETATM   13  N   UNK     0      -0.497  -2.074 -10.386  0.00  0.00    -0.143 N 
ENDROOT
BRANCH   9  14
HETATM   14  N   UNK     0      -2.547  -0.347 -10.597  0.00  0.00    -0.205 NA
HETATM   15  C   UNK     0      -2.334   0.991 -10.437  0.00  0.00     0.281 C 
HETATM   16  O   UNK     0      -2.402   1.682 -11.479  0.00  0.00    -0.268 OA
BRANCH  15  17
HETATM   17  C   UNK     0      -2.078   1.701  -9.156  0.00  0.00     0.219 C 
BRANCH  17  18
HETATM   18  N   UNK     0      -0.675   1.807  -8.893  0.00  0.00    -0.221 N 
HETATM   19  C   UNK     0       0.089   2.911  -8.985  0.00  0.00     0.114 A 
HETATM   20  C   UNK     0       1.367   2.531  -8.598  0.00  0.00     0.102 A 
HETATM   21  N   UNK     0       1.298   1.220  -8.322  0.00  0.00    -0.133 NA
HETATM   22  N   UNK     0       0.076   0.823  -8.500  0.00  0.00    -0.064 NA
BRANCH  20  23
HETATM   23  C   UNK     0       2.583   3.371  -8.487  0.00  0.00     0.062 C 
BRANCH  23  24
HETATM   24  C   UNK     0       3.121   3.610  -7.064  0.00  0.00     0.074 C 
HETATM   25 Br   UNK     0       2.145   3.901  -5.910  0.00  0.00    -0.081 Br
ENDBRANCH  23  24
ENDBRANCH  20  23
ENDBRANCH  17  18
ENDBRANCH  15  17
ENDBRANCH   9  14
TORSDOF 5
ENDMDL
