MODEL 1
REMARK VINA RESULT:      -7.2      0.000      0.000
REMARK  4 active torsions:
REMARK  status: ('A' for Active; 'I' for Inactive)
REMARK    1  A    between atoms: C_9  and  N_13 
REMARK       I    between atoms: N_13  and  C_14 
REMARK    2  A    between atoms: C_14  and  C_17 
REMARK    3  A    between atoms: C_17  and  N_18 
REMARK    4  A    between atoms: C_20  and  C_23 
ROOT
HETATM    1  C   UNK     0      -6.159  -5.872  -4.005  0.00  0.00     0.003 A 
HETATM    2  C   UNK     0      -6.372  -7.050  -3.270  0.00  0.00     0.000 A 
HETATM    3  C   UNK     0      -5.544  -8.165  -3.475  0.00  0.00     0.000 A 
HETATM    4  C   UNK     0      -4.502  -8.103  -4.416  0.00  0.00     0.003 A 
HETATM    5  C   UNK     0      -4.280  -6.929  -5.176  0.00  0.00     0.044 A 
HETATM    6  C   UNK     0      -5.119  -5.799  -4.963  0.00  0.00     0.044 A 
HETATM    7  C   UNK     0      -3.246  -6.837  -6.161  0.00  0.00     0.217 C 
HETATM    8  C   UNK     0      -3.153  -5.706  -6.987  0.00  0.00     0.162 C 
HETATM    9  C   UNK     0      -3.974  -4.644  -6.806  0.00  0.00     0.146 C 
HETATM   10  C   UNK     0      -4.879  -4.624  -5.734  0.00  0.00     0.215 C 
HETATM   11  O   UNK     0      -5.449  -3.549  -5.425  0.00  0.00    -0.285 OA
HETATM   12  O   UNK     0      -2.421  -7.774  -6.290  0.00  0.00    -0.285 OA
HETATM   13  N   UNK     0      -2.257  -5.700  -7.968  0.00  0.00    -0.143 N 
ENDROOT
BRANCH   9  14
HETATM   14  N   UNK     0      -3.910  -3.600  -7.647  0.00  0.00    -0.205 NA
HETATM   15  C   UNK     0      -3.147  -2.477  -7.468  0.00  0.00     0.281 C 
HETATM   16  O   UNK     0      -2.493  -2.289  -6.414  0.00  0.00    -0.268 OA
BRANCH  15  17
HETATM   17  C   UNK     0      -3.087  -1.462  -8.539  0.00  0.00     0.219 C 
BRANCH  17  18
HETATM   18  N   UNK     0      -1.747  -1.014  -8.748  0.00  0.00    -0.221 N 
HETATM   19  C   UNK     0      -0.737  -1.729  -9.265  0.00  0.00     0.114 A 
HETATM   20  C   UNK     0       0.370  -0.896  -9.244  0.00  0.00     0.101 A 
HETATM   21  N   UNK     0      -0.041   0.272  -8.730  0.00  0.00    -0.133 NA
HETATM   22  N   UNK     0      -1.305   0.170  -8.450  0.00  0.00    -0.064 NA
BRANCH  20  23
HETATM   23  C   UNK     0       1.727  -1.202  -9.725  0.00  0.00     0.044 A 
HETATM   24  C   UNK     0       2.157  -0.646 -11.095  0.00  0.00     0.006 A 
HETATM   25  C   UNK     0       2.731  -0.040  -9.811  0.00  0.00     0.006 A 
ENDBRANCH  20  23
ENDBRANCH  17  18
ENDBRANCH  15  17
ENDBRANCH   9  14
TORSDOF 4
ENDMDL
MODEL 2
REMARK VINA RESULT:      -7.2      2.505      8.508
REMARK  4 active torsions:
REMARK  status: ('A' for Active; 'I' for Inactive)
REMARK    1  A    between atoms: C_9  and  N_13 
REMARK       I    between atoms: N_13  and  C_14 
REMARK    2  A    between atoms: C_14  and  C_17 
REMARK    3  A    between atoms: C_17  and  N_18 
REMARK    4  A    between atoms: C_20  and  C_23 
ROOT
HETATM    1  C   UNK     0      -0.379  -2.778  -9.682  0.00  0.00     0.003 A 
HETATM    2  C   UNK     0      -0.046  -1.965 -10.778  0.00  0.00     0.000 A 
HETATM    3  C   UNK     0      -0.877  -0.890 -11.132  0.00  0.00     0.000 A 
HETATM    4  C   UNK     0      -2.042  -0.627 -10.389  0.00  0.00     0.003 A 
HETATM    5  C   UNK     0      -2.400  -1.444  -9.290  0.00  0.00     0.044 A 
HETATM    6  C   UNK     0      -1.553  -2.531  -8.931  0.00  0.00     0.044 A 
HETATM    7  C   UNK     0      -3.590  -1.224  -8.526  0.00  0.00     0.217 C 
HETATM    8  C   UNK     0      -3.976  -2.141  -7.536  0.00  0.00     0.162 C 
HETATM    9  C   UNK     0      -3.187  -3.194  -7.218  0.00  0.00     0.146 C 
HETATM   10  C   UNK     0      -1.927  -3.340  -7.819  0.00  0.00     0.215 C 
HETATM   11  O   UNK     0      -1.107  -4.163  -7.343  0.00  0.00    -0.285 OA
HETATM   12  O   UNK     0      -4.294  -0.208  -8.746  0.00  0.00    -0.285 OA
HETATM   13  N   UNK     0      -5.144  -1.970  -6.925  0.00  0.00    -0.143 N 
ENDROOT
BRANCH   9  14
HETATM   14  N   UNK     0      -3.605  -4.093  -6.313  0.00  0.00    -0.205 NA
HETATM   15  C   UNK     0      -4.278  -5.251  -6.593  0.00  0.00     0.281 C 
HETATM   16  O   UNK     0      -4.653  -5.528  -7.758  0.00  0.00    -0.268 OA
BRANCH  15  17
HETATM   17  C   UNK     0      -4.569  -6.203  -5.502  0.00  0.00     0.219 C 
BRANCH  17  18
HETATM   18  N   UNK     0      -5.497  -5.648  -4.569  0.00  0.00    -0.221 N 
HETATM   19  C   UNK     0      -6.004  -6.259  -3.488  0.00  0.00     0.114 A 
HETATM   20  C   UNK     0      -6.877  -5.351  -2.911  0.00  0.00     0.101 A 
HETATM   21  N   UNK     0      -6.833  -4.246  -3.668  0.00  0.00    -0.133 NA
HETATM   22  N   UNK     0      -6.000  -4.453  -4.642  0.00  0.00    -0.064 NA
BRANCH  20  23
HETATM   23  C   UNK     0      -7.673  -5.532  -1.685  0.00  0.00     0.044 A 
HETATM   24  C   UNK     0      -9.074  -6.158  -1.811  0.00  0.00     0.006 A 
HETATM   25  C   UNK     0      -7.925  -6.971  -1.205  0.00  0.00     0.006 A 
ENDBRANCH  20  23
ENDBRANCH  17  18
ENDBRANCH  15  17
ENDBRANCH   9  14
TORSDOF 4
ENDMDL
MODEL 3
REMARK VINA RESULT:      -7.1      1.972      3.076
REMARK  4 active torsions:
REMARK  status: ('A' for Active; 'I' for Inactive)
REMARK    1  A    between atoms: C_9  and  N_13 
REMARK       I    between atoms: N_13  and  C_14 
REMARK    2  A    between atoms: C_14  and  C_17 
REMARK    3  A    between atoms: C_17  and  N_18 
REMARK    4  A    between atoms: C_20  and  C_23 
ROOT
HETATM    1  C   UNK     0      -3.015  -7.389  -6.539  0.00  0.00     0.003 A 
HETATM    2  C   UNK     0      -3.309  -8.210  -5.438  0.00  0.00     0.000 A 
HETATM    3  C   UNK     0      -4.204  -7.767  -4.452  0.00  0.00     0.000 A 
HETATM    4  C   UNK     0      -4.806  -6.502  -4.566  0.00  0.00     0.003 A 
HETATM    5  C   UNK     0      -4.512  -5.655  -5.661  0.00  0.00     0.044 A 
HETATM    6  C   UNK     0      -3.607  -6.109  -6.663  0.00  0.00     0.044 A 
HETATM    7  C   UNK     0      -5.084  -4.351  -5.799  0.00  0.00     0.217 C 
HETATM    8  C   UNK     0      -4.657  -3.494  -6.825  0.00  0.00     0.162 C 
HETATM    9  C   UNK     0      -3.770  -3.914  -7.758  0.00  0.00     0.146 C 
HETATM   10  C   UNK     0      -3.325  -5.245  -7.760  0.00  0.00     0.215 C 
HETATM   11  O   UNK     0      -2.710  -5.689  -8.761  0.00  0.00    -0.285 OA
HETATM   12  O   UNK     0      -5.970  -3.970  -4.996  0.00  0.00    -0.285 OA
HETATM   13  N   UNK     0      -5.123  -2.250  -6.856  0.00  0.00    -0.143 N 
ENDROOT
BRANCH   9  14
HETATM   14  N   UNK     0      -3.327  -3.058  -8.692  0.00  0.00    -0.205 NA
HETATM   15  C   UNK     0      -2.273  -2.197  -8.548  0.00  0.00     0.281 C 
HETATM   16  O   UNK     0      -1.673  -2.070  -7.452  0.00  0.00    -0.268 OA
BRANCH  15  17
HETATM   17  C   UNK     0      -1.825  -1.398  -9.706  0.00  0.00     0.219 C 
BRANCH  17  18
HETATM   18  N   UNK     0      -0.807  -0.471  -9.328  0.00  0.00    -0.221 N 
HETATM   19  C   UNK     0      -0.958   0.848  -9.137  0.00  0.00     0.114 A 
HETATM   20  C   UNK     0       0.299   1.334  -8.818  0.00  0.00     0.101 A 
HETATM   21  N   UNK     0       1.127   0.281  -8.821  0.00  0.00    -0.133 NA
HETATM   22  N   UNK     0       0.439  -0.777  -9.124  0.00  0.00    -0.064 NA
BRANCH  20  23
HETATM   23  C   UNK     0       0.664   2.724  -8.494  0.00  0.00     0.044 A 
HETATM   24  C   UNK     0       1.205   3.618  -9.625  0.00  0.00     0.006 A 
HETATM   25  C   UNK     0      -0.210   3.845  -9.082  0.00  0.00     0.006 A 
ENDBRANCH  20  23
ENDBRANCH  17  18
ENDBRANCH  15  17
ENDBRANCH   9  14
TORSDOF 4
ENDMDL
MODEL 4
REMARK VINA RESULT:      -7.1      2.626      8.627
REMARK  4 active torsions:
REMARK  status: ('A' for Active; 'I' for Inactive)
REMARK    1  A    between atoms: C_9  and  N_13 
REMARK       I    between atoms: N_13  and  C_14 
REMARK    2  A    between atoms: C_14  and  C_17 
REMARK    3  A    between atoms: C_17  and  N_18 
REMARK    4  A    between atoms: C_20  and  C_23 
ROOT
HETATM    1  C   UNK     0       2.408  -0.533  -9.422  0.00  0.00     0.003 A 
HETATM    2  C   UNK     0       3.612   0.148  -9.668  0.00  0.00     0.000 A 
HETATM    3  C   UNK     0       3.620   1.548  -9.762  0.00  0.00     0.000 A 
HETATM    4  C   UNK     0       2.423   2.270  -9.610  0.00  0.00     0.003 A 
HETATM    5  C   UNK     0       1.198   1.601  -9.375  0.00  0.00     0.044 A 
HETATM    6  C   UNK     0       1.194   0.181  -9.276  0.00  0.00     0.044 A 
HETATM    7  C   UNK     0      -0.044   2.298  -9.241  0.00  0.00     0.217 C 
HETATM    8  C   UNK     0      -1.250   1.587  -9.149  0.00  0.00     0.162 C 
HETATM    9  C   UNK     0      -1.257   0.234  -9.089  0.00  0.00     0.146 C 
HETATM   10  C   UNK     0      -0.047  -0.477  -9.036  0.00  0.00     0.215 C 
HETATM   11  O   UNK     0      -0.059  -1.694  -8.729  0.00  0.00    -0.285 OA
HETATM   12  O   UNK     0      -0.055   3.553  -9.209  0.00  0.00    -0.285 OA
HETATM   13  N   UNK     0      -2.394   2.263  -9.143  0.00  0.00    -0.143 N 
ENDROOT
BRANCH   9  14
HETATM   14  N   UNK     0      -2.424  -0.428  -9.067  0.00  0.00    -0.205 NA
HETATM   15  C   UNK     0      -3.135  -0.751  -7.943  0.00  0.00     0.281 C 
HETATM   16  O   UNK     0      -2.685  -0.525  -6.793  0.00  0.00    -0.268 OA
BRANCH  15  17
HETATM   17  C   UNK     0      -4.465  -1.378  -8.080  0.00  0.00     0.219 C 
BRANCH  17  18
HETATM   18  N   UNK     0      -4.535  -2.603  -7.350  0.00  0.00    -0.221 N 
HETATM   19  C   UNK     0      -3.948  -3.763  -7.678  0.00  0.00     0.114 A 
HETATM   20  C   UNK     0      -4.321  -4.670  -6.699  0.00  0.00     0.101 A 
HETATM   21  N   UNK     0      -5.097  -4.000  -5.835  0.00  0.00    -0.133 NA
HETATM   22  N   UNK     0      -5.201  -2.774  -6.248  0.00  0.00    -0.064 NA
BRANCH  20  23
HETATM   23  C   UNK     0      -3.920  -6.082  -6.591  0.00  0.00     0.044 A 
HETATM   24  C   UNK     0      -4.452  -7.074  -7.642  0.00  0.00     0.006 A 
HETATM   25  C   UNK     0      -2.982  -6.642  -7.673  0.00  0.00     0.006 A 
ENDBRANCH  20  23
ENDBRANCH  17  18
ENDBRANCH  15  17
ENDBRANCH   9  14
TORSDOF 4
ENDMDL
MODEL 5
REMARK VINA RESULT:      -7.1     13.699     14.928
REMARK  4 active torsions:
REMARK  status: ('A' for Active; 'I' for Inactive)
REMARK    1  A    between atoms: C_9  and  N_13 
REMARK       I    between atoms: N_13  and  C_14 
REMARK    2  A    between atoms: C_14  and  C_17 
REMARK    3  A    between atoms: C_17  and  N_18 
REMARK    4  A    between atoms: C_20  and  C_23 
ROOT
HETATM    1  C   UNK     0       6.118   2.165   5.045  0.00  0.00     0.003 A 
HETATM    2  C   UNK     0       5.357   2.415   6.200  0.00  0.00     0.000 A 
HETATM    3  C   UNK     0       5.248   1.431   7.194  0.00  0.00     0.000 A 
HETATM    4  C   UNK     0       5.900   0.195   7.037  0.00  0.00     0.003 A 
HETATM    5  C   UNK     0       6.660  -0.080   5.874  0.00  0.00     0.044 A 
HETATM    6  C   UNK     0       6.772   0.922   4.868  0.00  0.00     0.044 A 
HETATM    7  C   UNK     0       7.317  -1.334   5.665  0.00  0.00     0.217 C 
HETATM    8  C   UNK     0       7.940  -1.612   4.439  0.00  0.00     0.162 C 
HETATM    9  C   UNK     0       8.016  -0.671   3.469  0.00  0.00     0.146 C 
HETATM   10  C   UNK     0       7.543   0.630   3.706  0.00  0.00     0.215 C 
HETATM   11  O   UNK     0       7.842   1.551   2.908  0.00  0.00    -0.285 OA
HETATM   12  O   UNK     0       7.331  -2.191   6.582  0.00  0.00    -0.285 OA
HETATM   13  N   UNK     0       8.439  -2.827   4.234  0.00  0.00    -0.143 N 
ENDROOT
BRANCH   9  14
HETATM   14  N   UNK     0       8.560  -0.978   2.281  0.00  0.00    -0.205 NA
HETATM   15  C   UNK     0       7.876  -1.426   1.183  0.00  0.00     0.281 C 
HETATM   16  O   UNK     0       6.648  -1.683   1.233  0.00  0.00    -0.268 OA
BRANCH  15  17
HETATM   17  C   UNK     0       8.594  -1.610  -0.094  0.00  0.00     0.219 C 
BRANCH  17  18
HETATM   18  N   UNK     0       8.375  -0.505  -0.972  0.00  0.00    -0.221 N 
HETATM   19  C   UNK     0       7.991   0.731  -0.619  0.00  0.00     0.114 A 
HETATM   20  C   UNK     0       7.878   1.447  -1.799  0.00  0.00     0.101 A 
HETATM   21  N   UNK     0       8.213   0.607  -2.788  0.00  0.00    -0.133 NA
HETATM   22  N   UNK     0       8.507  -0.543  -2.263  0.00  0.00    -0.064 NA
BRANCH  20  23
HETATM   23  C   UNK     0       7.505   2.864  -1.953  0.00  0.00     0.044 A 
HETATM   24  C   UNK     0       8.598   3.930  -1.749  0.00  0.00     0.006 A 
HETATM   25  C   UNK     0       8.081   3.625  -3.159  0.00  0.00     0.006 A 
ENDBRANCH  20  23
ENDBRANCH  17  18
ENDBRANCH  15  17
ENDBRANCH   9  14
TORSDOF 4
ENDMDL
MODEL 6
REMARK VINA RESULT:      -7.0      2.469      8.406
REMARK  4 active torsions:
REMARK  status: ('A' for Active; 'I' for Inactive)
REMARK    1  A    between atoms: C_9  and  N_13 
REMARK       I    between atoms: N_13  and  C_14 
REMARK    2  A    between atoms: C_14  and  C_17 
REMARK    3  A    between atoms: C_17  and  N_18 
REMARK    4  A    between atoms: C_20  and  C_23 
ROOT
HETATM    1  C   UNK     0      -0.162  -4.238 -11.303  0.00  0.00     0.003 A 
HETATM    2  C   UNK     0       0.158  -3.287 -12.286  0.00  0.00     0.000 A 
HETATM    3  C   UNK     0      -0.060  -1.923 -12.039  0.00  0.00     0.000 A 
HETATM    4  C   UNK     0      -0.596  -1.507 -10.808  0.00  0.00     0.003 A 
HETATM    5  C   UNK     0      -0.937  -2.452  -9.810  0.00  0.00     0.044 A 
HETATM    6  C   UNK     0      -0.711  -3.836 -10.061  0.00  0.00     0.044 A 
HETATM    7  C   UNK     0      -1.508  -2.071  -8.555  0.00  0.00     0.217 C 
HETATM    8  C   UNK     0      -1.959  -3.049  -7.654  0.00  0.00     0.162 C 
HETATM    9  C   UNK     0      -1.775  -4.366  -7.910  0.00  0.00     0.146 C 
HETATM   10  C   UNK     0      -1.056  -4.773  -9.045  0.00  0.00     0.215 C 
HETATM   11  O   UNK     0      -0.676  -5.966  -9.142  0.00  0.00    -0.285 OA
HETATM   12  O   UNK     0      -1.612  -0.856  -8.260  0.00  0.00    -0.285 OA
HETATM   13  N   UNK     0      -2.589  -2.662  -6.551  0.00  0.00    -0.143 N 
ENDROOT
BRANCH   9  14
HETATM   14  N   UNK     0      -2.270  -5.285  -7.066  0.00  0.00    -0.205 NA
HETATM   15  C   UNK     0      -3.481  -5.910  -7.189  0.00  0.00     0.281 C 
HETATM   16  O   UNK     0      -4.298  -5.589  -8.087  0.00  0.00    -0.268 OA
BRANCH  15  17
HETATM   17  C   UNK     0      -3.841  -6.989  -6.247  0.00  0.00     0.219 C 
BRANCH  17  18
HETATM   18  N   UNK     0      -4.527  -6.470  -5.107  0.00  0.00    -0.221 N 
HETATM   19  C   UNK     0      -4.720  -7.098  -3.938  0.00  0.00     0.114 A 
HETATM   20  C   UNK     0      -5.457  -6.226  -3.154  0.00  0.00     0.101 A 
HETATM   21  N   UNK     0      -5.651  -5.122  -3.890  0.00  0.00    -0.133 NA
HETATM   22  N   UNK     0      -5.083  -5.298  -5.044  0.00  0.00    -0.064 NA
BRANCH  20  23
HETATM   23  C   UNK     0      -5.911  -6.434  -1.769  0.00  0.00     0.044 A 
HETATM   24  C   UNK     0      -7.192  -7.257  -1.538  0.00  0.00     0.006 A 
HETATM   25  C   UNK     0      -5.825  -7.861  -1.199  0.00  0.00     0.006 A 
ENDBRANCH  20  23
ENDBRANCH  17  18
ENDBRANCH  15  17
ENDBRANCH   9  14
TORSDOF 4
ENDMDL
MODEL 7
REMARK VINA RESULT:      -7.0      3.332      8.272
REMARK  4 active torsions:
REMARK  status: ('A' for Active; 'I' for Inactive)
REMARK    1  A    between atoms: C_9  and  N_13 
REMARK       I    between atoms: N_13  and  C_14 
REMARK    2  A    between atoms: C_14  and  C_17 
REMARK    3  A    between atoms: C_17  and  N_18 
REMARK    4  A    between atoms: C_20  and  C_23 
ROOT
HETATM    1  C   UNK     0      -4.568  -1.107  -8.087  0.00  0.00     0.003 A 
HETATM    2  C   UNK     0      -4.305  -0.194  -9.121  0.00  0.00     0.000 A 
HETATM    3  C   UNK     0      -3.581  -0.604 -10.251  0.00  0.00     0.000 A 
HETATM    4  C   UNK     0      -3.119  -1.928 -10.349  0.00  0.00     0.003 A 
HETATM    5  C   UNK     0      -3.363  -2.859  -9.311  0.00  0.00     0.044 A 
HETATM    6  C   UNK     0      -4.102  -2.442  -8.167  0.00  0.00     0.044 A 
HETATM    7  C   UNK     0      -2.888  -4.208  -9.362  0.00  0.00     0.217 C 
HETATM    8  C   UNK     0      -3.032  -5.053  -8.251  0.00  0.00     0.162 C 
HETATM    9  C   UNK     0      -3.705  -4.644  -7.149  0.00  0.00     0.146 C 
HETATM   10  C   UNK     0      -4.341  -3.393  -7.133  0.00  0.00     0.215 C 
HETATM   11  O   UNK     0      -5.163  -3.129  -6.221  0.00  0.00    -0.285 OA
HETATM   12  O   UNK     0      -2.335  -4.636 -10.404  0.00  0.00    -0.285 OA
HETATM   13  N   UNK     0      -2.478  -6.260  -8.287  0.00  0.00    -0.143 N 
ENDROOT
BRANCH   9  14
HETATM   14  N   UNK     0      -3.776  -5.444  -6.074  0.00  0.00    -0.205 NA
HETATM   15  C   UNK     0      -4.634  -6.499  -5.921  0.00  0.00     0.281 C 
HETATM   16  O   UNK     0      -5.522  -6.753  -6.771  0.00  0.00    -0.268 OA
BRANCH  15  17
HETATM   17  C   UNK     0      -4.515  -7.366  -4.731  0.00  0.00     0.219 C 
BRANCH  17  18
HETATM   18  N   UNK     0      -5.220  -6.812  -3.619  0.00  0.00    -0.221 N 
HETATM   19  C   UNK     0      -6.407  -7.218  -3.145  0.00  0.00     0.114 A 
HETATM   20  C   UNK     0      -6.705  -6.371  -2.089  0.00  0.00     0.101 A 
HETATM   21  N   UNK     0      -5.677  -5.518  -1.982  0.00  0.00    -0.133 NA
HETATM   22  N   UNK     0      -4.810  -5.810  -2.903  0.00  0.00    -0.064 NA
BRANCH  20  23
HETATM   23  C   UNK     0      -7.893  -6.413  -1.219  0.00  0.00     0.044 A 
HETATM   24  C   UNK     0      -9.190  -5.754  -1.724  0.00  0.00     0.006 A 
HETATM   25  C   UNK     0      -9.078  -7.281  -1.672  0.00  0.00     0.006 A 
ENDBRANCH  20  23
ENDBRANCH  17  18
ENDBRANCH  15  17
ENDBRANCH   9  14
TORSDOF 4
ENDMDL
MODEL 8
REMARK VINA RESULT:      -7.0      2.469      4.039
REMARK  4 active torsions:
REMARK  status: ('A' for Active; 'I' for Inactive)
REMARK    1  A    between atoms: C_9  and  N_13 
REMARK       I    between atoms: N_13  and  C_14 
REMARK    2  A    between atoms: C_14  and  C_17 
REMARK    3  A    between atoms: C_17  and  N_18 
REMARK    4  A    between atoms: C_20  and  C_23 
ROOT
HETATM    1  C   UNK     0      -2.776  -6.376  -6.742  0.00  0.00     0.003 A 
HETATM    2  C   UNK     0      -3.796  -7.021  -6.022  0.00  0.00     0.000 A 
HETATM    3  C   UNK     0      -4.919  -6.295  -5.595  0.00  0.00     0.000 A 
HETATM    4  C   UNK     0      -5.023  -4.924  -5.887  0.00  0.00     0.003 A 
HETATM    5  C   UNK     0      -3.999  -4.254  -6.599  0.00  0.00     0.044 A 
HETATM    6  C   UNK     0      -2.863  -4.994  -7.035  0.00  0.00     0.044 A 
HETATM    7  C   UNK     0      -4.056  -2.855  -6.892  0.00  0.00     0.217 C 
HETATM    8  C   UNK     0      -2.957  -2.207  -7.476  0.00  0.00     0.162 C 
HETATM    9  C   UNK     0      -1.862  -2.905  -7.859  0.00  0.00     0.146 C 
HETATM   10  C   UNK     0      -1.843  -4.305  -7.753  0.00  0.00     0.215 C 
HETATM   11  O   UNK     0      -0.942  -4.957  -8.336  0.00  0.00    -0.285 OA
HETATM   12  O   UNK     0      -5.094  -2.203  -6.622  0.00  0.00    -0.285 OA
HETATM   13  N   UNK     0      -2.997  -0.888  -7.629  0.00  0.00    -0.143 N 
ENDROOT
BRANCH   9  14
HETATM   14  N   UNK     0      -0.797  -2.257  -8.356  0.00  0.00    -0.205 NA
HETATM   15  C   UNK     0      -0.602  -1.936  -9.673  0.00  0.00     0.281 C 
HETATM   16  O   UNK     0      -1.394  -2.321 -10.567  0.00  0.00    -0.268 OA
BRANCH  15  17
HETATM   17  C   UNK     0       0.564  -1.115 -10.055  0.00  0.00     0.219 C 
BRANCH  17  18
HETATM   18  N   UNK     0       0.500   0.180  -9.455  0.00  0.00    -0.221 N 
HETATM   19  C   UNK     0      -0.253   1.213  -9.863  0.00  0.00     0.114 A 
HETATM   20  C   UNK     0       0.037   2.259  -9.004  0.00  0.00     0.101 A 
HETATM   21  N   UNK     0       0.934   1.793  -8.124  0.00  0.00    -0.133 NA
HETATM   22  N   UNK     0       1.185   0.553  -8.417  0.00  0.00    -0.064 NA
BRANCH  20  23
HETATM   23  C   UNK     0      -0.546   3.612  -9.014  0.00  0.00     0.044 A 
HETATM   24  C   UNK     0       0.251   4.744  -9.688  0.00  0.00     0.006 A 
HETATM   25  C   UNK     0      -1.002   4.181 -10.368  0.00  0.00     0.006 A 
ENDBRANCH  20  23
ENDBRANCH  17  18
ENDBRANCH  15  17
ENDBRANCH   9  14
TORSDOF 4
ENDMDL
MODEL 9
REMARK VINA RESULT:      -6.9     11.809     14.596
REMARK  4 active torsions:
REMARK  status: ('A' for Active; 'I' for Inactive)
REMARK    1  A    between atoms: C_9  and  N_13 
REMARK       I    between atoms: N_13  and  C_14 
REMARK    2  A    between atoms: C_14  and  C_17 
REMARK    3  A    between atoms: C_17  and  N_18 
REMARK    4  A    between atoms: C_20  and  C_23 
ROOT
HETATM    1  C   UNK     0       8.135  -1.250  -6.473  0.00  0.00     0.003 A 
HETATM    2  C   UNK     0       7.516  -0.895  -7.683  0.00  0.00     0.000 A 
HETATM    3  C   UNK     0       6.763   0.286  -7.765  0.00  0.00     0.000 A 
HETATM    4  C   UNK     0       6.628   1.115  -6.638  0.00  0.00     0.003 A 
HETATM    5  C   UNK     0       7.233   0.766  -5.406  0.00  0.00     0.044 A 
HETATM    6  C   UNK     0       8.000  -0.431  -5.326  0.00  0.00     0.044 A 
HETATM    7  C   UNK     0       7.097   1.569  -4.229  0.00  0.00     0.217 C 
HETATM    8  C   UNK     0       7.595   1.114  -2.999  0.00  0.00     0.162 C 
HETATM    9  C   UNK     0       8.295  -0.041  -2.917  0.00  0.00     0.146 C 
HETATM   10  C   UNK     0       8.604  -0.765  -4.080  0.00  0.00     0.215 C 
HETATM   11  O   UNK     0       9.456  -1.686  -4.027  0.00  0.00    -0.285 OA
HETATM   12  O   UNK     0       6.524   2.684  -4.298  0.00  0.00    -0.285 OA
HETATM   13  N   UNK     0       7.351   1.829  -1.905  0.00  0.00    -0.143 N 
ENDROOT
BRANCH   9  14
HETATM   14  N   UNK     0       8.707  -0.489  -1.721  0.00  0.00    -0.205 NA
HETATM   15  C   UNK     0       9.888  -0.162  -1.111  0.00  0.00     0.281 C 
HETATM   16  O   UNK     0      10.754   0.539  -1.689  0.00  0.00    -0.268 OA
BRANCH  15  17
HETATM   17  C   UNK     0      10.152  -0.639   0.262  0.00  0.00     0.219 C 
BRANCH  17  18
HETATM   18  N   UNK     0       9.254  -0.040   1.197  0.00  0.00    -0.221 N 
HETATM   19  C   UNK     0       8.625  -0.658   2.207  0.00  0.00     0.114 A 
HETATM   20  C   UNK     0       7.841   0.308   2.816  0.00  0.00     0.101 A 
HETATM   21  N   UNK     0       8.056   1.450   2.148  0.00  0.00    -0.133 NA
HETATM   22  N   UNK     0       8.903   1.210   1.194  0.00  0.00    -0.064 NA
BRANCH  20  23
HETATM   23  C   UNK     0       6.971   0.142   3.993  0.00  0.00     0.044 A 
HETATM   24  C   UNK     0       7.419   0.771   5.325  0.00  0.00     0.006 A 
HETATM   25  C   UNK     0       6.263   1.395   4.537  0.00  0.00     0.006 A 
ENDBRANCH  20  23
ENDBRANCH  17  18
ENDBRANCH  15  17
ENDBRANCH   9  14
TORSDOF 4
ENDMDL
