MODEL 1
REMARK VINA RESULT:      -8.2      0.000      0.000
REMARK  3 active torsions:
REMARK  status: ('A' for Active; 'I' for Inactive)
REMARK    1  A    between atoms: C_9  and  N_13 
REMARK       I    between atoms: N_13  and  C_14 
REMARK    2  A    between atoms: C_14  and  C_17 
REMARK    3  A    between atoms: C_17  and  N_18 
ROOT
HETATM    1  N   UNK     0      -2.554  -0.478  -8.978  0.00  0.00    -0.205 NA
HETATM    2  C   UNK     0      -3.203  -0.790  -7.818  0.00  0.00     0.281 C 
HETATM    3  O   UNK     0      -2.691  -0.569  -6.694  0.00  0.00    -0.268 OA
ENDROOT
BRANCH   1   4
HETATM    4  C   UNK     0      -1.354   0.118  -9.080  0.00  0.00     0.146 A 
HETATM    5  C   UNK     0      -1.296   1.468  -9.194  0.00  0.00     0.162 A 
HETATM    6  C   UNK     0      -0.070   2.137  -9.319  0.00  0.00     0.217 A 
HETATM    7  N   UNK     0      -2.409   2.193  -9.207  0.00  0.00    -0.143 N 
HETATM    8  C   UNK     0       1.146   1.398  -9.413  0.00  0.00     0.044 A 
HETATM    9  O   UNK     0      -0.044   3.392  -9.348  0.00  0.00    -0.285 OA
HETATM   10  C   UNK     0       2.390   2.031  -9.661  0.00  0.00     0.003 A 
HETATM   11  C   UNK     0       1.101  -0.015  -9.257  0.00  0.00     0.044 A 
HETATM   12  C   UNK     0       3.572   1.276  -9.743  0.00  0.00     0.000 A 
HETATM   13  C   UNK     0       3.532  -0.116  -9.567  0.00  0.00     0.000 A 
HETATM   14  C   UNK     0       2.306  -0.758  -9.321  0.00  0.00     0.003 A 
HETATM   15  C   UNK     0      -0.167  -0.639  -9.040  0.00  0.00     0.215 A 
HETATM   16  O   UNK     0      -0.218  -1.866  -8.779  0.00  0.00    -0.285 OA
ENDBRANCH   1   4
BRANCH   2  17
HETATM   17  C   UNK     0      -4.550  -1.393  -7.870  0.00  0.00     0.219 C 
BRANCH  17  18
HETATM   18  N   UNK     0      -4.630  -2.707  -7.309  0.00  0.00    -0.221 N 
HETATM   19  C   UNK     0      -4.121  -3.845  -7.812  0.00  0.00     0.118 A 
HETATM   20  C   UNK     0      -4.328  -4.827  -6.850  0.00  0.00     0.123 A 
HETATM   21  N   UNK     0      -4.990  -4.223  -5.849  0.00  0.00    -0.129 NA
HETATM   22  C   UNK     0      -3.907  -6.179  -6.865  0.00  0.00     0.021 A 
HETATM   23  N   UNK     0      -5.157  -2.975  -6.153  0.00  0.00    -0.063 NA
HETATM   24  C   UNK     0      -3.517  -6.817  -5.662  0.00  0.00     0.002 A 
HETATM   25  C   UNK     0      -3.858  -6.920  -8.070  0.00  0.00     0.002 A 
HETATM   26  C   UNK     0      -3.082  -8.156  -5.664  0.00  0.00     0.000 A 
HETATM   27  C   UNK     0      -3.048  -8.882  -6.867  0.00  0.00     0.000 A 
HETATM   28  C   UNK     0      -3.435  -8.263  -8.070  0.00  0.00     0.000 A 
ENDBRANCH  17  18
ENDBRANCH   2  17
TORSDOF 3
ENDMDL
MODEL 2
REMARK VINA RESULT:      -8.2      1.233      2.270
REMARK  3 active torsions:
REMARK  status: ('A' for Active; 'I' for Inactive)
REMARK    1  A    between atoms: C_9  and  N_13 
REMARK       I    between atoms: N_13  and  C_14 
REMARK    2  A    between atoms: C_14  and  C_17 
REMARK    3  A    between atoms: C_17  and  N_18 
ROOT
HETATM    1  N   UNK     0      -2.774  -1.052  -8.626  0.00  0.00    -0.205 NA
HETATM    2  C   UNK     0      -3.290  -1.370  -7.402  0.00  0.00     0.281 C 
HETATM    3  O   UNK     0      -2.623  -1.233  -6.348  0.00  0.00    -0.268 OA
ENDROOT
BRANCH   1   4
HETATM    4  C   UNK     0      -1.557  -0.533  -8.863  0.00  0.00     0.146 A 
HETATM    5  C   UNK     0      -0.517  -1.371  -9.097  0.00  0.00     0.162 A 
HETATM    6  C   UNK     0       0.775  -0.880  -9.334  0.00  0.00     0.217 A 
HETATM    7  N   UNK     0      -0.695  -2.687  -9.091  0.00  0.00    -0.143 N 
HETATM    8  C   UNK     0       1.039   0.519  -9.251  0.00  0.00     0.044 A 
HETATM    9  O   UNK     0       1.703  -1.676  -9.620  0.00  0.00    -0.285 OA
HETATM   10  C   UNK     0       2.352   1.042  -9.363  0.00  0.00     0.003 A 
HETATM   11  C   UNK     0      -0.051   1.410  -9.044  0.00  0.00     0.044 A 
HETATM   12  C   UNK     0       2.580   2.426  -9.283  0.00  0.00     0.000 A 
HETATM   13  C   UNK     0       1.502   3.306  -9.101  0.00  0.00     0.000 A 
HETATM   14  C   UNK     0       0.194   2.804  -8.986  0.00  0.00     0.003 A 
HETATM   15  C   UNK     0      -1.363   0.861  -8.899  0.00  0.00     0.215 A 
HETATM   16  O   UNK     0      -2.353   1.631  -8.838  0.00  0.00    -0.285 OA
ENDBRANCH   1   4
BRANCH   2  17
HETATM   17  C   UNK     0      -4.672  -1.879  -7.299  0.00  0.00     0.219 C 
BRANCH  17  18
HETATM   18  N   UNK     0      -4.774  -3.208  -6.775  0.00  0.00    -0.221 N 
HETATM   19  C   UNK     0      -4.213  -4.327  -7.266  0.00  0.00     0.118 A 
HETATM   20  C   UNK     0      -4.475  -5.333  -6.344  0.00  0.00     0.123 A 
HETATM   21  N   UNK     0      -5.217  -4.762  -5.381  0.00  0.00    -0.129 NA
HETATM   22  C   UNK     0      -4.035  -6.679  -6.359  0.00  0.00     0.021 A 
HETATM   23  N   UNK     0      -5.380  -3.510  -5.667  0.00  0.00    -0.063 NA
HETATM   24  C   UNK     0      -3.724  -7.341  -5.145  0.00  0.00     0.002 A 
HETATM   25  C   UNK     0      -3.886  -7.391  -7.574  0.00  0.00     0.002 A 
HETATM   26  C   UNK     0      -3.271  -8.674  -5.146  0.00  0.00     0.000 A 
HETATM   27  C   UNK     0      -3.138  -9.370  -6.360  0.00  0.00     0.000 A 
HETATM   28  C   UNK     0      -3.445  -8.728  -7.573  0.00  0.00     0.000 A 
ENDBRANCH  17  18
ENDBRANCH   2  17
TORSDOF 3
ENDMDL
MODEL 3
REMARK VINA RESULT:      -8.1      2.292      8.985
REMARK  3 active torsions:
REMARK  status: ('A' for Active; 'I' for Inactive)
REMARK    1  A    between atoms: C_9  and  N_13 
REMARK       I    between atoms: N_13  and  C_14 
REMARK    2  A    between atoms: C_14  and  C_17 
REMARK    3  A    between atoms: C_17  and  N_18 
ROOT
HETATM    1  N   UNK     0      -3.195  -3.108  -8.617  0.00  0.00    -0.205 NA
HETATM    2  C   UNK     0      -2.265  -2.124  -8.441  0.00  0.00     0.281 C 
HETATM    3  O   UNK     0      -1.719  -1.920  -7.330  0.00  0.00    -0.268 OA
ENDROOT
BRANCH   1   4
HETATM    4  C   UNK     0      -3.607  -3.985  -7.685  0.00  0.00     0.146 A 
HETATM    5  C   UNK     0      -4.564  -3.607  -6.801  0.00  0.00     0.162 A 
HETATM    6  C   UNK     0      -5.017  -4.478  -5.801  0.00  0.00     0.217 A 
HETATM    7  N   UNK     0      -5.087  -2.388  -6.853  0.00  0.00    -0.143 N 
HETATM    8  C   UNK     0      -4.416  -5.762  -5.638  0.00  0.00     0.044 A 
HETATM    9  O   UNK     0      -5.955  -4.126  -5.044  0.00  0.00    -0.285 OA
HETATM   10  C   UNK     0      -4.762  -6.620  -4.565  0.00  0.00     0.003 A 
HETATM   11  C   UNK     0      -3.438  -6.183  -6.582  0.00  0.00     0.044 A 
HETATM   12  C   UNK     0      -4.156  -7.882  -4.435  0.00  0.00     0.000 A 
HETATM   13  C   UNK     0      -3.208  -8.307  -5.379  0.00  0.00     0.000 A 
HETATM   14  C   UNK     0      -2.853  -7.467  -6.448  0.00  0.00     0.003 A 
HETATM   15  C   UNK     0      -3.079  -5.289  -7.639  0.00  0.00     0.215 A 
HETATM   16  O   UNK     0      -2.311  -5.684  -8.550  0.00  0.00    -0.285 OA
ENDBRANCH   1   4
BRANCH   2  17
HETATM   17  C   UNK     0      -1.872  -1.274  -9.583  0.00  0.00     0.219 C 
BRANCH  17  18
HETATM   18  N   UNK     0      -0.785  -0.384  -9.310  0.00  0.00    -0.221 N 
HETATM   19  C   UNK     0      -0.834   0.954  -9.182  0.00  0.00     0.118 A 
HETATM   20  C   UNK     0       0.435   1.355  -8.780  0.00  0.00     0.123 A 
HETATM   21  N   UNK     0       1.176   0.236  -8.737  0.00  0.00    -0.129 NA
HETATM   22  C   UNK     0       0.880   2.655  -8.437  0.00  0.00     0.021 A 
HETATM   23  N   UNK     0       0.429  -0.772  -9.061  0.00  0.00    -0.063 NA
HETATM   24  C   UNK     0       1.843   2.831  -7.412  0.00  0.00     0.002 A 
HETATM   25  C   UNK     0       0.376   3.803  -9.094  0.00  0.00     0.002 A 
HETATM   26  C   UNK     0       2.284   4.118  -7.050  0.00  0.00     0.000 A 
HETATM   27  C   UNK     0       1.781   5.247  -7.719  0.00  0.00     0.000 A 
HETATM   28  C   UNK     0       0.827   5.089  -8.741  0.00  0.00     0.000 A 
ENDBRANCH  17  18
ENDBRANCH   2  17
TORSDOF 3
ENDMDL
MODEL 4
REMARK VINA RESULT:      -8.0      2.400      9.318
REMARK  3 active torsions:
REMARK  status: ('A' for Active; 'I' for Inactive)
REMARK    1  A    between atoms: C_9  and  N_13 
REMARK       I    between atoms: N_13  and  C_14 
REMARK    2  A    between atoms: C_14  and  C_17 
REMARK    3  A    between atoms: C_17  and  N_18 
ROOT
HETATM    1  N   UNK     0      -4.507  -3.745  -7.386  0.00  0.00    -0.205 NA
HETATM    2  C   UNK     0      -3.819  -2.575  -7.231  0.00  0.00     0.281 C 
HETATM    3  O   UNK     0      -3.027  -2.396  -6.275  0.00  0.00    -0.268 OA
ENDROOT
BRANCH   1   4
HETATM    4  C   UNK     0      -4.407  -4.833  -6.603  0.00  0.00     0.146 A 
HETATM    5  C   UNK     0      -3.553  -5.825  -6.958  0.00  0.00     0.162 A 
HETATM    6  C   UNK     0      -3.424  -6.987  -6.184  0.00  0.00     0.217 A 
HETATM    7  N   UNK     0      -2.827  -5.727  -8.066  0.00  0.00    -0.143 N 
HETATM    8  C   UNK     0      -4.255  -7.187  -5.042  0.00  0.00     0.044 A 
HETATM    9  O   UNK     0      -2.573  -7.856  -6.499  0.00  0.00    -0.285 OA
HETATM   10  C   UNK     0      -4.239  -8.398  -4.307  0.00  0.00     0.003 A 
HETATM   11  C   UNK     0      -5.126  -6.137  -4.638  0.00  0.00     0.044 A 
HETATM   12  C   UNK     0      -5.065  -8.563  -3.182  0.00  0.00     0.000 A 
HETATM   13  C   UNK     0      -5.908  -7.519  -2.770  0.00  0.00     0.000 A 
HETATM   14  C   UNK     0      -5.936  -6.312  -3.489  0.00  0.00     0.003 A 
HETATM   15  C   UNK     0      -5.152  -4.935  -5.412  0.00  0.00     0.215 A 
HETATM   16  O   UNK     0      -5.819  -3.952  -5.007  0.00  0.00    -0.285 OA
ENDBRANCH   1   4
BRANCH   2  17
HETATM   17  C   UNK     0      -3.994  -1.487  -8.213  0.00  0.00     0.219 C 
BRANCH  17  18
HETATM   18  N   UNK     0      -2.781  -0.820  -8.577  0.00  0.00    -0.221 N 
HETATM   19  C   UNK     0      -2.537   0.502  -8.561  0.00  0.00     0.118 A 
HETATM   20  C   UNK     0      -1.187   0.655  -8.857  0.00  0.00     0.123 A 
HETATM   21  N   UNK     0      -0.719  -0.585  -9.077  0.00  0.00    -0.129 NA
HETATM   22  C   UNK     0      -0.421   1.845  -8.888  0.00  0.00     0.021 A 
HETATM   23  N   UNK     0      -1.685  -1.431  -8.909  0.00  0.00    -0.063 NA
HETATM   24  C   UNK     0       0.934   1.831  -8.472  0.00  0.00     0.002 A 
HETATM   25  C   UNK     0      -0.982   3.071  -9.321  0.00  0.00     0.002 A 
HETATM   26  C   UNK     0       1.704   3.010  -8.484  0.00  0.00     0.000 A 
HETATM   27  C   UNK     0       1.135   4.217  -8.926  0.00  0.00     0.000 A 
HETATM   28  C   UNK     0      -0.208   4.247  -9.344  0.00  0.00     0.000 A 
ENDBRANCH  17  18
ENDBRANCH   2  17
TORSDOF 3
ENDMDL
MODEL 5
REMARK VINA RESULT:      -8.0      4.106      5.854
REMARK  3 active torsions:
REMARK  status: ('A' for Active; 'I' for Inactive)
REMARK    1  A    between atoms: C_9  and  N_13 
REMARK       I    between atoms: N_13  and  C_14 
REMARK    2  A    between atoms: C_14  and  C_17 
REMARK    3  A    between atoms: C_17  and  N_18 
ROOT
HETATM    1  N   UNK     0      -3.550  -4.383  -6.112  0.00  0.00    -0.205 NA
HETATM    2  C   UNK     0      -4.170  -5.588  -6.279  0.00  0.00     0.281 C 
HETATM    3  O   UNK     0      -4.637  -5.942  -7.388  0.00  0.00    -0.268 OA
ENDROOT
BRANCH   1   4
HETATM    4  C   UNK     0      -3.323  -3.468  -7.070  0.00  0.00     0.146 A 
HETATM    5  C   UNK     0      -4.236  -2.487  -7.276  0.00  0.00     0.162 A 
HETATM    6  C   UNK     0      -4.053  -1.519  -8.273  0.00  0.00     0.217 A 
HETATM    7  N   UNK     0      -5.341  -2.429  -6.542  0.00  0.00    -0.143 N 
HETATM    8  C   UNK     0      -2.934  -1.596  -9.154  0.00  0.00     0.044 A 
HETATM    9  O   UNK     0      -4.879  -0.580  -8.391  0.00  0.00    -0.285 OA
HETATM   10  C   UNK     0      -2.780  -0.709 -10.249  0.00  0.00     0.003 A 
HETATM   11  C   UNK     0      -1.951  -2.598  -8.924  0.00  0.00     0.044 A 
HETATM   12  C   UNK     0      -1.663  -0.807 -11.096  0.00  0.00     0.000 A 
HETATM   13  C   UNK     0      -0.682  -1.780 -10.857  0.00  0.00     0.000 A 
HETATM   14  C   UNK     0      -0.820  -2.668  -9.776  0.00  0.00     0.003 A 
HETATM   15  C   UNK     0      -2.141  -3.504  -7.835  0.00  0.00     0.215 A 
HETATM   16  O   UNK     0      -1.230  -4.316  -7.539  0.00  0.00    -0.285 OA
ENDBRANCH   1   4
BRANCH   2  17
HETATM   17  C   UNK     0      -4.293  -6.514  -5.136  0.00  0.00     0.219 C 
BRANCH  17  18
HETATM   18  N   UNK     0      -5.222  -6.092  -4.131  0.00  0.00    -0.221 N 
HETATM   19  C   UNK     0      -6.560  -6.016  -4.234  0.00  0.00     0.118 A 
HETATM   20  C   UNK     0      -7.033  -5.695  -2.967  0.00  0.00     0.123 A 
HETATM   21  N   UNK     0      -5.942  -5.553  -2.195  0.00  0.00    -0.129 NA
HETATM   22  C   UNK     0      -8.375  -5.575  -2.530  0.00  0.00     0.021 A 
HETATM   23  N   UNK     0      -4.890  -5.789  -2.913  0.00  0.00    -0.063 NA
HETATM   24  C   UNK     0      -8.736  -5.974  -1.220  0.00  0.00     0.002 A 
HETATM   25  C   UNK     0      -9.383  -5.067  -3.384  0.00  0.00     0.002 A 
HETATM   26  C   UNK     0     -10.069  -5.875  -0.777  0.00  0.00     0.000 A 
HETATM   27  C   UNK     0     -11.057  -5.359  -1.634  0.00  0.00     0.000 A 
HETATM   28  C   UNK     0     -10.713  -4.956  -2.937  0.00  0.00     0.000 A 
ENDBRANCH  17  18
ENDBRANCH   2  17
TORSDOF 3
ENDMDL
MODEL 6
REMARK VINA RESULT:      -8.0      2.846      9.302
REMARK  3 active torsions:
REMARK  status: ('A' for Active; 'I' for Inactive)
REMARK    1  A    between atoms: C_9  and  N_13 
REMARK       I    between atoms: N_13  and  C_14 
REMARK    2  A    between atoms: C_14  and  C_17 
REMARK    3  A    between atoms: C_17  and  N_18 
ROOT
HETATM    1  N   UNK     0      -4.668  -4.585  -7.051  0.00  0.00    -0.205 NA
HETATM    2  C   UNK     0      -3.886  -3.468  -7.127  0.00  0.00     0.281 C 
HETATM    3  O   UNK     0      -3.128  -3.126  -6.187  0.00  0.00    -0.268 OA
ENDROOT
BRANCH   1   4
HETATM    4  C   UNK     0      -4.704  -5.459  -6.031  0.00  0.00     0.146 A 
HETATM    5  C   UNK     0      -3.945  -6.581  -6.096  0.00  0.00     0.162 A 
HETATM    6  C   UNK     0      -3.960  -7.532  -5.065  0.00  0.00     0.217 A 
HETATM    7  N   UNK     0      -3.178  -6.816  -7.153  0.00  0.00    -0.143 N 
HETATM    8  C   UNK     0      -4.844  -7.377  -3.956  0.00  0.00     0.044 A 
HETATM    9  O   UNK     0      -3.193  -8.524  -5.120  0.00  0.00    -0.285 OA
HETATM   10  C   UNK     0      -4.975  -8.374  -2.958  0.00  0.00     0.003 A 
HETATM   11  C   UNK     0      -5.616  -6.186  -3.859  0.00  0.00     0.044 A 
HETATM   12  C   UNK     0      -5.850  -8.189  -1.874  0.00  0.00     0.000 A 
HETATM   13  C   UNK     0      -6.595  -7.005  -1.766  0.00  0.00     0.000 A 
HETATM   14  C   UNK     0      -6.477  -6.007  -2.748  0.00  0.00     0.003 A 
HETATM   15  C   UNK     0      -5.494  -5.206  -4.893  0.00  0.00     0.215 A 
HETATM   16  O   UNK     0      -6.071  -4.098  -4.768  0.00  0.00    -0.285 OA
ENDBRANCH   1   4
BRANCH   2  17
HETATM   17  C   UNK     0      -3.915  -2.635  -8.346  0.00  0.00     0.219 C 
BRANCH  17  18
HETATM   18  N   UNK     0      -2.849  -1.682  -8.434  0.00  0.00    -0.221 N 
HETATM   19  C   UNK     0      -1.604  -1.887  -8.899  0.00  0.00     0.118 A 
HETATM   20  C   UNK     0      -0.984  -0.644  -8.918  0.00  0.00     0.123 A 
HETATM   21  N   UNK     0      -1.883   0.221  -8.421  0.00  0.00    -0.129 NA
HETATM   22  C   UNK     0       0.307  -0.310  -9.395  0.00  0.00     0.021 A 
HETATM   23  N   UNK     0      -2.971  -0.424  -8.140  0.00  0.00    -0.063 NA
HETATM   24  C   UNK     0       0.533   0.937 -10.029  0.00  0.00     0.002 A 
HETATM   25  C   UNK     0       1.396  -1.206  -9.261  0.00  0.00     0.002 A 
HETATM   26  C   UNK     0       1.807   1.276 -10.521  0.00  0.00     0.000 A 
HETATM   27  C   UNK     0       2.880   0.379 -10.372  0.00  0.00     0.000 A 
HETATM   28  C   UNK     0       2.673  -0.862  -9.742  0.00  0.00     0.000 A 
ENDBRANCH  17  18
ENDBRANCH   2  17
TORSDOF 3
ENDMDL
MODEL 7
REMARK VINA RESULT:      -7.9      2.241      2.938
REMARK  3 active torsions:
REMARK  status: ('A' for Active; 'I' for Inactive)
REMARK    1  A    between atoms: C_9  and  N_13 
REMARK       I    between atoms: N_13  and  C_14 
REMARK    2  A    between atoms: C_14  and  C_17 
REMARK    3  A    between atoms: C_17  and  N_18 
ROOT
HETATM    1  N   UNK     0      -2.495  -2.892  -8.926  0.00  0.00    -0.205 NA
HETATM    2  C   UNK     0      -2.896  -3.531  -7.788  0.00  0.00     0.281 C 
HETATM    3  O   UNK     0      -2.447  -3.216  -6.660  0.00  0.00    -0.268 OA
ENDROOT
BRANCH   1   4
HETATM    4  C   UNK     0      -1.639  -1.857  -8.995  0.00  0.00     0.146 A 
HETATM    5  C   UNK     0      -2.130  -0.593  -8.972  0.00  0.00     0.162 A 
HETATM    6  C   UNK     0      -1.281   0.520  -9.057  0.00  0.00     0.217 A 
HETATM    7  N   UNK     0      -3.437  -0.378  -8.885  0.00  0.00    -0.143 N 
HETATM    8  C   UNK     0       0.121   0.342  -9.255  0.00  0.00     0.044 A 
HETATM    9  O   UNK     0      -1.757   1.677  -8.960  0.00  0.00    -0.285 OA
HETATM   10  C   UNK     0       0.992   1.438  -9.467  0.00  0.00     0.003 A 
HETATM   11  C   UNK     0       0.650  -0.979  -9.242  0.00  0.00     0.044 A 
HETATM   12  C   UNK     0       2.370   1.232  -9.653  0.00  0.00     0.000 A 
HETATM   13  C   UNK     0       2.896  -0.069  -9.618  0.00  0.00     0.000 A 
HETATM   14  C   UNK     0       2.045  -1.167  -9.410  0.00  0.00     0.003 A 
HETATM   15  C   UNK     0      -0.250  -2.074  -9.060  0.00  0.00     0.215 A 
HETATM   16  O   UNK     0       0.208  -3.236  -8.924  0.00  0.00    -0.285 OA
ENDBRANCH   1   4
BRANCH   2  17
HETATM   17  C   UNK     0      -3.892  -4.618  -7.870  0.00  0.00     0.219 C 
BRANCH  17  18
HETATM   18  N   UNK     0      -4.556  -4.904  -6.634  0.00  0.00    -0.221 N 
HETATM   19  C   UNK     0      -4.546  -6.060  -5.948  0.00  0.00     0.118 A 
HETATM   20  C   UNK     0      -5.208  -5.812  -4.752  0.00  0.00     0.123 A 
HETATM   21  N   UNK     0      -5.612  -4.532  -4.817  0.00  0.00    -0.129 NA
HETATM   22  C   UNK     0      -5.399  -6.683  -3.652  0.00  0.00     0.021 A 
HETATM   23  N   UNK     0      -5.217  -4.027  -5.942  0.00  0.00    -0.063 NA
HETATM   24  C   UNK     0      -5.390  -6.175  -2.330  0.00  0.00     0.002 A 
HETATM   25  C   UNK     0      -5.594  -8.073  -3.840  0.00  0.00     0.002 A 
HETATM   26  C   UNK     0      -5.564  -7.032  -1.226  0.00  0.00     0.000 A 
HETATM   27  C   UNK     0      -5.766  -8.408  -1.430  0.00  0.00     0.000 A 
HETATM   28  C   UNK     0      -5.780  -8.928  -2.738  0.00  0.00     0.000 A 
ENDBRANCH  17  18
ENDBRANCH   2  17
TORSDOF 3
ENDMDL
MODEL 8
REMARK VINA RESULT:      -7.8      2.333      8.767
REMARK  3 active torsions:
REMARK  status: ('A' for Active; 'I' for Inactive)
REMARK    1  A    between atoms: C_9  and  N_13 
REMARK       I    between atoms: N_13  and  C_14 
REMARK    2  A    between atoms: C_14  and  C_17 
REMARK    3  A    between atoms: C_17  and  N_18 
ROOT
HETATM    1  N   UNK     0      -1.085  -2.279  -8.442  0.00  0.00    -0.205 NA
HETATM    2  C   UNK     0      -1.045  -1.968  -9.771  0.00  0.00     0.281 C 
HETATM    3  O   UNK     0      -1.881  -2.432 -10.584  0.00  0.00    -0.268 OA
ENDROOT
BRANCH   1   4
HETATM    4  C   UNK     0      -2.002  -3.052  -7.836  0.00  0.00     0.146 A 
HETATM    5  C   UNK     0      -3.103  -2.472  -7.298  0.00  0.00     0.162 A 
HETATM    6  C   UNK     0      -4.081  -3.232  -6.641  0.00  0.00     0.217 A 
HETATM    7  N   UNK     0      -3.274  -1.157  -7.366  0.00  0.00    -0.143 N 
HETATM    8  C   UNK     0      -3.894  -4.634  -6.451  0.00  0.00     0.044 A 
HETATM    9  O   UNK     0      -5.124  -2.677  -6.218  0.00  0.00    -0.285 OA
HETATM   10  C   UNK     0      -4.799  -5.413  -5.689  0.00  0.00     0.003 A 
HETATM   11  C   UNK     0      -2.762  -5.259  -7.044  0.00  0.00     0.044 A 
HETATM   12  C   UNK     0      -4.592  -6.793  -5.525  0.00  0.00     0.000 A 
HETATM   13  C   UNK     0      -3.488  -7.415  -6.127  0.00  0.00     0.000 A 
HETATM   14  C   UNK     0      -2.580  -6.656  -6.886  0.00  0.00     0.003 A 
HETATM   15  C   UNK     0      -1.843  -4.451  -7.782  0.00  0.00     0.215 A 
HETATM   16  O   UNK     0      -0.906  -4.997  -8.414  0.00  0.00    -0.285 OA
ENDBRANCH   1   4
BRANCH   2  17
HETATM   17  C   UNK     0      -0.004  -1.052 -10.279  0.00  0.00     0.219 C 
BRANCH  17  18
HETATM   18  N   UNK     0      -0.003   0.240  -9.662  0.00  0.00    -0.221 N 
HETATM   19  C   UNK     0       0.966   0.787  -8.908  0.00  0.00     0.118 A 
HETATM   20  C   UNK     0       0.576   2.097  -8.658  0.00  0.00     0.123 A 
HETATM   21  N   UNK     0      -0.626   2.238  -9.241  0.00  0.00    -0.129 NA
HETATM   22  C   UNK     0       1.287   3.113  -7.974  0.00  0.00     0.021 A 
HETATM   23  N   UNK     0      -0.942   1.123  -9.820  0.00  0.00    -0.063 NA
HETATM   24  C   UNK     0       1.183   4.462  -8.395  0.00  0.00     0.002 A 
HETATM   25  C   UNK     0       2.120   2.813  -6.869  0.00  0.00     0.002 A 
HETATM   26  C   UNK     0       1.895   5.481  -7.734  0.00  0.00     0.000 A 
HETATM   27  C   UNK     0       2.710   5.168  -6.632  0.00  0.00     0.000 A 
HETATM   28  C   UNK     0       2.822   3.833  -6.201  0.00  0.00     0.000 A 
ENDBRANCH  17  18
ENDBRANCH   2  17
TORSDOF 3
ENDMDL
MODEL 9
REMARK VINA RESULT:      -7.7      4.100      6.194
REMARK  3 active torsions:
REMARK  status: ('A' for Active; 'I' for Inactive)
REMARK    1  A    between atoms: C_9  and  N_13 
REMARK       I    between atoms: N_13  and  C_14 
REMARK    2  A    between atoms: C_14  and  C_17 
REMARK    3  A    between atoms: C_17  and  N_18 
ROOT
HETATM    1  N   UNK     0      -3.327  -4.648  -6.440  0.00  0.00    -0.205 NA
HETATM    2  C   UNK     0      -4.114  -5.762  -6.505  0.00  0.00     0.281 C 
HETATM    3  O   UNK     0      -4.744  -6.066  -7.547  0.00  0.00    -0.268 OA
ENDROOT
BRANCH   1   4
HETATM    4  C   UNK     0      -3.089  -3.785  -7.442  0.00  0.00     0.146 A 
HETATM    5  C   UNK     0      -2.053  -4.022  -8.285  0.00  0.00     0.162 A 
HETATM    6  C   UNK     0      -1.754  -3.144  -9.337  0.00  0.00     0.217 A 
HETATM    7  N   UNK     0      -1.282  -5.091  -8.123  0.00  0.00    -0.143 N 
HETATM    8  C   UNK     0      -2.488  -1.931  -9.492  0.00  0.00     0.044 A 
HETATM    9  O   UNK     0      -0.835  -3.428 -10.145  0.00  0.00    -0.285 OA
HETATM   10  C   UNK     0      -2.138  -0.963 -10.466  0.00  0.00     0.003 A 
HETATM   11  C   UNK     0      -3.600  -1.691  -8.638  0.00  0.00     0.044 A 
HETATM   12  C   UNK     0      -2.884   0.220 -10.598  0.00  0.00     0.000 A 
HETATM   13  C   UNK     0      -3.994   0.448  -9.771  0.00  0.00     0.000 A 
HETATM   14  C   UNK     0      -4.354  -0.502  -8.799  0.00  0.00     0.003 A 
HETATM   15  C   UNK     0      -3.918  -2.664  -7.640  0.00  0.00     0.215 A 
HETATM   16  O   UNK     0      -4.963  -2.533  -6.957  0.00  0.00    -0.285 OA
ENDBRANCH   1   4
BRANCH   2  17
HETATM   17  C   UNK     0      -4.229  -6.649  -5.330  0.00  0.00     0.219 C 
BRANCH  17  18
HETATM   18  N   UNK     0      -5.128  -6.176  -4.320  0.00  0.00    -0.221 N 
HETATM   19  C   UNK     0      -6.468  -6.092  -4.392  0.00  0.00     0.118 A 
HETATM   20  C   UNK     0      -6.905  -5.713  -3.128  0.00  0.00     0.123 A 
HETATM   21  N   UNK     0      -5.793  -5.551  -2.391  0.00  0.00    -0.129 NA
HETATM   22  C   UNK     0      -8.234  -5.563  -2.662  0.00  0.00     0.021 A 
HETATM   23  N   UNK     0      -4.762  -5.826  -3.125  0.00  0.00    -0.063 NA
HETATM   24  C   UNK     0      -8.564  -5.904  -1.327  0.00  0.00     0.002 A 
HETATM   25  C   UNK     0      -9.260  -5.081  -3.510  0.00  0.00     0.002 A 
HETATM   26  C   UNK     0      -9.884  -5.773  -0.856  0.00  0.00     0.000 A 
HETATM   27  C   UNK     0     -10.890  -5.284  -1.707  0.00  0.00     0.000 A 
HETATM   28  C   UNK     0     -10.577  -4.939  -3.035  0.00  0.00     0.000 A 
ENDBRANCH  17  18
ENDBRANCH   2  17
TORSDOF 3
ENDMDL
