MODEL 1
REMARK VINA RESULT:      -7.2      0.000      0.000
REMARK  6 active torsions:
REMARK  status: ('A' for Active; 'I' for Inactive)
REMARK    1  A    between atoms: C_9  and  N_13 
REMARK       I    between atoms: N_13  and  C_14 
REMARK    2  A    between atoms: C_14  and  C_17 
REMARK    3  A    between atoms: C_17  and  N_18 
REMARK    4  A    between atoms: C_20  and  C_23 
REMARK    5  A    between atoms: C_23  and  O_24 
REMARK    6  A    between atoms: O_24  and  C_26 
ROOT
HETATM    1  N   UNK     0      -2.596  -0.815  -8.890  0.00  0.00    -0.205 NA
HETATM    2  C   UNK     0      -3.224  -0.996  -7.688  0.00  0.00     0.281 C 
HETATM    3  O   UNK     0      -2.665  -0.712  -6.601  0.00  0.00    -0.268 OA
ENDROOT
BRANCH   1   4
HETATM    4  C   UNK     0      -1.390  -0.256  -9.056  0.00  0.00     0.146 C 
HETATM    5  C   UNK     0      -0.301  -1.043  -9.227  0.00  0.00     0.162 C 
HETATM    6  C   UNK     0       0.983  -0.487  -9.330  0.00  0.00     0.217 C 
HETATM    7  N   UNK     0      -0.433  -2.362  -9.273  0.00  0.00    -0.143 N 
HETATM    8  C   UNK     0       1.174   0.920  -9.151  0.00  0.00     0.044 A 
HETATM    9  O   UNK     0       1.967  -1.229  -9.566  0.00  0.00    -0.285 OA
HETATM   10  C   UNK     0       2.460   1.511  -9.108  0.00  0.00     0.003 A 
HETATM   11  C   UNK     0       0.026   1.749  -9.008  0.00  0.00     0.044 A 
HETATM   12  C   UNK     0       2.606   2.895  -8.911  0.00  0.00     0.000 A 
HETATM   13  C   UNK     0       1.473   3.709  -8.764  0.00  0.00     0.000 A 
HETATM   14  C   UNK     0       0.190   3.142  -8.819  0.00  0.00     0.003 A 
HETATM   15  C   UNK     0      -1.262   1.142  -9.063  0.00  0.00     0.215 C 
HETATM   16  O   UNK     0      -2.288   1.861  -9.156  0.00  0.00    -0.285 OA
ENDBRANCH   1   4
BRANCH   2  17
HETATM   17  C   UNK     0      -4.598  -1.535  -7.671  0.00  0.00     0.219 C 
BRANCH  17  18
HETATM   18  N   UNK     0      -4.611  -2.924  -7.340  0.00  0.00    -0.221 N 
HETATM   19  C   UNK     0      -5.015  -3.473  -6.183  0.00  0.00     0.124 A 
HETATM   20  C   UNK     0      -4.821  -4.841  -6.314  0.00  0.00     0.186 A 
HETATM   21  N   UNK     0      -4.319  -5.027  -7.545  0.00  0.00    -0.123 NA
HETATM   22  N   UNK     0      -4.210  -3.874  -8.128  0.00  0.00    -0.063 NA
BRANCH  20  23
HETATM   23  C   UNK     0      -5.088  -5.857  -5.384  0.00  0.00     0.317 C 
HETATM   24  O   UNK     0      -5.431  -6.987  -5.802  0.00  0.00    -0.257 OA
BRANCH  23  25
HETATM   25  O   UNK     0      -4.984  -5.614  -4.045  0.00  0.00    -0.297 OA
BRANCH  25  26
HETATM   26  C   UNK     0      -6.032  -5.775  -3.081  0.00  0.00     0.152 C 
HETATM   27  C   UNK     0      -7.223  -4.875  -3.448  0.00  0.00     0.035 C 
ENDBRANCH  25  26
ENDBRANCH  23  25
ENDBRANCH  20  23
ENDBRANCH  17  18
ENDBRANCH   2  17
TORSDOF 6
ENDMDL
MODEL 2
REMARK VINA RESULT:      -7.1      1.137      2.298
REMARK  6 active torsions:
REMARK  status: ('A' for Active; 'I' for Inactive)
REMARK    1  A    between atoms: C_9  and  N_13 
REMARK       I    between atoms: N_13  and  C_14 
REMARK    2  A    between atoms: C_14  and  C_17 
REMARK    3  A    between atoms: C_17  and  N_18 
REMARK    4  A    between atoms: C_20  and  C_23 
REMARK    5  A    between atoms: C_23  and  O_24 
REMARK    6  A    between atoms: O_24  and  C_26 
ROOT
HETATM    1  N   UNK     0      -2.582  -0.523  -8.977  0.00  0.00    -0.205 NA
HETATM    2  C   UNK     0      -3.247  -0.802  -7.815  0.00  0.00     0.281 C 
HETATM    3  O   UNK     0      -2.743  -0.560  -6.691  0.00  0.00    -0.268 OA
ENDROOT
BRANCH   1   4
HETATM    4  C   UNK     0      -1.396   0.096  -9.060  0.00  0.00     0.146 C 
HETATM    5  C   UNK     0      -1.348   1.444  -9.185  0.00  0.00     0.162 C 
HETATM    6  C   UNK     0      -0.125   2.111  -9.348  0.00  0.00     0.217 C 
HETATM    7  N   UNK     0      -2.470   2.153  -9.184  0.00  0.00    -0.143 N 
HETATM    8  C   UNK     0       1.088   1.365  -9.487  0.00  0.00     0.044 A 
HETATM    9  O   UNK     0      -0.098   3.365  -9.384  0.00  0.00    -0.285 OA
HETATM   10  C   UNK     0       2.326   1.982  -9.789  0.00  0.00     0.003 A 
HETATM   11  C   UNK     0       1.041  -0.047  -9.318  0.00  0.00     0.044 A 
HETATM   12  C   UNK     0       3.493   1.212  -9.938  0.00  0.00     0.000 A 
HETATM   13  C   UNK     0       3.442  -0.182  -9.777  0.00  0.00     0.000 A 
HETATM   14  C   UNK     0       2.226  -0.807  -9.463  0.00  0.00     0.003 A 
HETATM   15  C   UNK     0      -0.210  -0.653  -9.005  0.00  0.00     0.215 C 
HETATM   16  O   UNK     0      -0.249  -1.854  -8.641  0.00  0.00    -0.285 OA
ENDBRANCH   1   4
BRANCH   2  17
HETATM   17  C   UNK     0      -4.594  -1.399  -7.886  0.00  0.00     0.219 C 
BRANCH  17  18
HETATM   18  N   UNK     0      -4.573  -2.784  -7.536  0.00  0.00    -0.221 N 
HETATM   19  C   UNK     0      -4.956  -3.325  -6.368  0.00  0.00     0.124 A 
HETATM   20  C   UNK     0      -4.730  -4.690  -6.483  0.00  0.00     0.186 A 
HETATM   21  N   UNK     0      -4.233  -4.882  -7.714  0.00  0.00    -0.123 NA
HETATM   22  N   UNK     0      -4.155  -3.735  -8.313  0.00  0.00    -0.063 NA
BRANCH  20  23
HETATM   23  C   UNK     0      -4.967  -5.700  -5.537  0.00  0.00     0.317 C 
HETATM   24  O   UNK     0      -5.368  -6.819  -5.931  0.00  0.00    -0.257 OA
BRANCH  23  25
HETATM   25  O   UNK     0      -4.771  -5.461  -4.207  0.00  0.00    -0.297 OA
BRANCH  25  26
HETATM   26  C   UNK     0      -5.119  -6.348  -3.137  0.00  0.00     0.152 C 
HETATM   27  C   UNK     0      -6.497  -5.967  -2.569  0.00  0.00     0.035 C 
ENDBRANCH  25  26
ENDBRANCH  23  25
ENDBRANCH  20  23
ENDBRANCH  17  18
ENDBRANCH   2  17
TORSDOF 6
ENDMDL
MODEL 3
REMARK VINA RESULT:      -7.1      1.768      9.083
REMARK  6 active torsions:
REMARK  status: ('A' for Active; 'I' for Inactive)
REMARK    1  A    between atoms: C_9  and  N_13 
REMARK       I    between atoms: N_13  and  C_14 
REMARK    2  A    between atoms: C_14  and  C_17 
REMARK    3  A    between atoms: C_17  and  N_18 
REMARK    4  A    between atoms: C_20  and  C_23 
REMARK    5  A    between atoms: C_23  and  O_24 
REMARK    6  A    between atoms: O_24  and  C_26 
ROOT
HETATM    1  N   UNK     0      -4.648  -4.125  -7.107  0.00  0.00    -0.205 NA
HETATM    2  C   UNK     0      -3.897  -2.983  -7.093  0.00  0.00     0.281 C 
HETATM    3  O   UNK     0      -3.093  -2.732  -6.163  0.00  0.00    -0.268 OA
ENDROOT
BRANCH   1   4
HETATM    4  C   UNK     0      -4.562  -5.118  -6.212  0.00  0.00     0.146 C 
HETATM    5  C   UNK     0      -3.664  -6.115  -6.397  0.00  0.00     0.162 C 
HETATM    6  C   UNK     0      -3.602  -7.205  -5.515  0.00  0.00     0.217 C 
HETATM    7  N   UNK     0      -2.844  -6.088  -7.440  0.00  0.00    -0.143 N 
HETATM    8  C   UNK     0      -4.559  -7.331  -4.459  0.00  0.00     0.044 A 
HETATM    9  O   UNK     0      -2.711  -8.077  -5.663  0.00  0.00    -0.285 OA
HETATM   10  C   UNK     0      -4.625  -8.476  -3.629  0.00  0.00     0.003 A 
HETATM   11  C   UNK     0      -5.476  -6.265  -4.243  0.00  0.00     0.044 A 
HETATM   12  C   UNK     0      -5.593  -8.571  -2.615  0.00  0.00     0.000 A 
HETATM   13  C   UNK     0      -6.502  -7.521  -2.408  0.00  0.00     0.000 A 
HETATM   14  C   UNK     0      -6.440  -6.372  -3.212  0.00  0.00     0.003 A 
HETATM   15  C   UNK     0      -5.392  -5.115  -5.080  0.00  0.00     0.215 C 
HETATM   16  O   UNK     0      -6.036  -4.078  -4.783  0.00  0.00    -0.285 OA
ENDBRANCH   1   4
BRANCH   2  17
HETATM   17  C   UNK     0      -4.032  -2.022  -8.205  0.00  0.00     0.219 C 
BRANCH  17  18
HETATM   18  N   UNK     0      -2.797  -1.358  -8.477  0.00  0.00    -0.221 N 
HETATM   19  C   UNK     0      -2.551  -0.042  -8.379  0.00  0.00     0.124 A 
HETATM   20  C   UNK     0      -1.231   0.135  -8.767  0.00  0.00     0.186 A 
HETATM   21  N   UNK     0      -0.765  -1.087  -9.067  0.00  0.00    -0.123 NA
HETATM   22  N   UNK     0      -1.715  -1.950  -8.882  0.00  0.00    -0.063 NA
BRANCH  20  23
HETATM   23  C   UNK     0      -0.491   1.326  -8.838  0.00  0.00     0.317 C 
HETATM   24  O   UNK     0      -0.883   2.239  -9.600  0.00  0.00    -0.257 OA
BRANCH  23  25
HETATM   25  O   UNK     0       0.644   1.480  -8.095  0.00  0.00    -0.297 OA
BRANCH  25  26
HETATM   26  C   UNK     0       1.575   2.564  -8.203  0.00  0.00     0.152 C 
HETATM   27  C   UNK     0       1.835   3.171  -6.814  0.00  0.00     0.035 C 
ENDBRANCH  25  26
ENDBRANCH  23  25
ENDBRANCH  20  23
ENDBRANCH  17  18
ENDBRANCH   2  17
TORSDOF 6
ENDMDL
MODEL 4
REMARK VINA RESULT:      -7.1      1.458      2.279
REMARK  6 active torsions:
REMARK  status: ('A' for Active; 'I' for Inactive)
REMARK    1  A    between atoms: C_9  and  N_13 
REMARK       I    between atoms: N_13  and  C_14 
REMARK    2  A    between atoms: C_14  and  C_17 
REMARK    3  A    between atoms: C_17  and  N_18 
REMARK    4  A    between atoms: C_20  and  C_23 
REMARK    5  A    between atoms: C_23  and  O_24 
REMARK    6  A    between atoms: O_24  and  C_26 
ROOT
HETATM    1  N   UNK     0      -2.689  -0.933  -8.856  0.00  0.00    -0.205 NA
HETATM    2  C   UNK     0      -3.285  -1.114  -7.638  0.00  0.00     0.281 C 
HETATM    3  O   UNK     0      -2.700  -0.823  -6.566  0.00  0.00    -0.268 OA
ENDROOT
BRANCH   1   4
HETATM    4  C   UNK     0      -1.491  -0.367  -9.054  0.00  0.00     0.146 C 
HETATM    5  C   UNK     0      -0.401  -1.148  -9.246  0.00  0.00     0.162 C 
HETATM    6  C   UNK     0       0.877  -0.584  -9.382  0.00  0.00     0.217 C 
HETATM    7  N   UNK     0      -0.525  -2.468  -9.279  0.00  0.00    -0.143 N 
HETATM    8  C   UNK     0       1.062   0.825  -9.219  0.00  0.00     0.044 A 
HETATM    9  O   UNK     0       1.860  -1.321  -9.637  0.00  0.00    -0.285 OA
HETATM   10  C   UNK     0       2.345   1.425  -9.211  0.00  0.00     0.003 A 
HETATM   11  C   UNK     0      -0.088   1.647  -9.055  0.00  0.00     0.044 A 
HETATM   12  C   UNK     0       2.486   2.812  -9.027  0.00  0.00     0.000 A 
HETATM   13  C   UNK     0       1.351   3.619  -8.859  0.00  0.00     0.000 A 
HETATM   14  C   UNK     0       0.071   3.043  -8.880  0.00  0.00     0.003 A 
HETATM   15  C   UNK     0      -1.372   1.032  -9.075  0.00  0.00     0.215 C 
HETATM   16  O   UNK     0      -2.405   1.743  -9.149  0.00  0.00    -0.285 OA
ENDBRANCH   1   4
BRANCH   2  17
HETATM   17  C   UNK     0      -4.654  -1.661  -7.584  0.00  0.00     0.219 C 
BRANCH  17  18
HETATM   18  N   UNK     0      -4.681  -2.945  -6.960  0.00  0.00    -0.221 N 
HETATM   19  C   UNK     0      -4.074  -4.063  -7.390  0.00  0.00     0.124 A 
HETATM   20  C   UNK     0      -4.405  -5.058  -6.480  0.00  0.00     0.186 A 
HETATM   21  N   UNK     0      -5.184  -4.473  -5.558  0.00  0.00    -0.123 NA
HETATM   22  N   UNK     0      -5.326  -3.222  -5.867  0.00  0.00    -0.063 NA
BRANCH  20  23
HETATM   23  C   UNK     0      -4.020  -6.408  -6.480  0.00  0.00     0.317 C 
HETATM   24  O   UNK     0      -3.960  -7.020  -5.389  0.00  0.00    -0.257 OA
BRANCH  23  25
HETATM   25  O   UNK     0      -3.707  -7.038  -7.649  0.00  0.00    -0.297 OA
BRANCH  25  26
HETATM   26  C   UNK     0      -2.413  -7.537  -8.011  0.00  0.00     0.152 C 
HETATM   27  C   UNK     0      -1.672  -6.499  -8.871  0.00  0.00     0.035 C 
ENDBRANCH  25  26
ENDBRANCH  23  25
ENDBRANCH  20  23
ENDBRANCH  17  18
ENDBRANCH   2  17
TORSDOF 6
ENDMDL
MODEL 5
REMARK VINA RESULT:      -7.0      1.716      9.017
REMARK  6 active torsions:
REMARK  status: ('A' for Active; 'I' for Inactive)
REMARK    1  A    between atoms: C_9  and  N_13 
REMARK       I    between atoms: N_13  and  C_14 
REMARK    2  A    between atoms: C_14  and  C_17 
REMARK    3  A    between atoms: C_17  and  N_18 
REMARK    4  A    between atoms: C_20  and  C_23 
REMARK    5  A    between atoms: C_23  and  O_24 
REMARK    6  A    between atoms: O_24  and  C_26 
ROOT
HETATM    1  N   UNK     0      -4.675  -4.289  -7.118  0.00  0.00    -0.205 NA
HETATM    2  C   UNK     0      -3.960  -3.123  -7.113  0.00  0.00     0.281 C 
HETATM    3  O   UNK     0      -3.182  -2.828  -6.173  0.00  0.00    -0.268 OA
ENDROOT
BRANCH   1   4
HETATM    4  C   UNK     0      -4.575  -5.261  -6.200  0.00  0.00     0.146 C 
HETATM    5  C   UNK     0      -3.680  -6.263  -6.376  0.00  0.00     0.162 C 
HETATM    6  C   UNK     0      -3.605  -7.331  -5.470  0.00  0.00     0.217 C 
HETATM    7  N   UNK     0      -2.877  -6.260  -7.432  0.00  0.00    -0.143 N 
HETATM    8  C   UNK     0      -4.546  -7.431  -4.397  0.00  0.00     0.044 A 
HETATM    9  O   UNK     0      -2.717  -8.207  -5.611  0.00  0.00    -0.285 OA
HETATM   10  C   UNK     0      -4.600  -8.557  -3.539  0.00  0.00     0.003 A 
HETATM   11  C   UNK     0      -5.460  -6.359  -4.192  0.00  0.00     0.044 A 
HETATM   12  C   UNK     0      -5.553  -8.626  -2.508  0.00  0.00     0.000 A 
HETATM   13  C   UNK     0      -6.457  -7.571  -2.312  0.00  0.00     0.000 A 
HETATM   14  C   UNK     0      -6.407  -6.441  -3.144  0.00  0.00     0.003 A 
HETATM   15  C   UNK     0      -5.387  -5.230  -5.056  0.00  0.00     0.215 C 
HETATM   16  O   UNK     0      -6.025  -4.185  -4.774  0.00  0.00    -0.285 OA
ENDBRANCH   1   4
BRANCH   2  17
HETATM   17  C   UNK     0      -4.102  -2.190  -8.247  0.00  0.00     0.219 C 
BRANCH  17  18
HETATM   18  N   UNK     0      -2.907  -1.438  -8.460  0.00  0.00    -0.221 N 
HETATM   19  C   UNK     0      -1.787  -1.860  -9.069  0.00  0.00     0.124 A 
HETATM   20  C   UNK     0      -0.894  -0.799  -9.015  0.00  0.00     0.186 A 
HETATM   21  N   UNK     0      -1.537   0.195  -8.384  0.00  0.00    -0.123 NA
HETATM   22  N   UNK     0      -2.727  -0.212  -8.071  0.00  0.00    -0.063 NA
BRANCH  20  23
HETATM   23  C   UNK     0       0.417  -0.731  -9.513  0.00  0.00     0.317 C 
HETATM   24  O   UNK     0       0.643  -1.123 -10.681  0.00  0.00    -0.257 OA
BRANCH  23  25
HETATM   25  O   UNK     0       1.429  -0.255  -8.731  0.00  0.00    -0.297 OA
BRANCH  25  26
HETATM   26  C   UNK     0       2.139   0.973  -8.938  0.00  0.00     0.152 C 
HETATM   27  C   UNK     0       1.511   2.090  -8.087  0.00  0.00     0.035 C 
ENDBRANCH  25  26
ENDBRANCH  23  25
ENDBRANCH  20  23
ENDBRANCH  17  18
ENDBRANCH   2  17
TORSDOF 6
ENDMDL
MODEL 6
REMARK VINA RESULT:      -7.0      1.856      3.244
REMARK  6 active torsions:
REMARK  status: ('A' for Active; 'I' for Inactive)
REMARK    1  A    between atoms: C_9  and  N_13 
REMARK       I    between atoms: N_13  and  C_14 
REMARK    2  A    between atoms: C_14  and  C_17 
REMARK    3  A    between atoms: C_17  and  N_18 
REMARK    4  A    between atoms: C_20  and  C_23 
REMARK    5  A    between atoms: C_23  and  O_24 
REMARK    6  A    between atoms: O_24  and  C_26 
ROOT
HETATM    1  N   UNK     0      -2.563  -0.585  -8.947  0.00  0.00    -0.205 NA
HETATM    2  C   UNK     0      -3.215  -0.867  -7.778  0.00  0.00     0.281 C 
HETATM    3  O   UNK     0      -2.712  -0.601  -6.660  0.00  0.00    -0.268 OA
ENDROOT
BRANCH   1   4
HETATM    4  C   UNK     0      -1.393   0.061  -9.043  0.00  0.00     0.146 C 
HETATM    5  C   UNK     0      -1.378   1.409  -9.173  0.00  0.00     0.162 C 
HETATM    6  C   UNK     0      -0.172   2.105  -9.349  0.00  0.00     0.217 C 
HETATM    7  N   UNK     0      -2.516   2.092  -9.164  0.00  0.00    -0.143 N 
HETATM    8  C   UNK     0       1.057   1.387  -9.496  0.00  0.00     0.044 A 
HETATM    9  O   UNK     0      -0.175   3.359  -9.390  0.00  0.00    -0.285 OA
HETATM   10  C   UNK     0       2.278   2.031  -9.812  0.00  0.00     0.003 A 
HETATM   11  C   UNK     0       1.044  -0.025  -9.322  0.00  0.00     0.044 A 
HETATM   12  C   UNK     0       3.461   1.288  -9.968  0.00  0.00     0.000 A 
HETATM   13  C   UNK     0       3.444  -0.105  -9.802  0.00  0.00     0.000 A 
HETATM   14  C   UNK     0       2.246  -0.758  -9.474  0.00  0.00     0.003 A 
HETATM   15  C   UNK     0      -0.189  -0.659  -8.995  0.00  0.00     0.215 C 
HETATM   16  O   UNK     0      -0.196  -1.860  -8.626  0.00  0.00    -0.285 OA
ENDBRANCH   1   4
BRANCH   2  17
HETATM   17  C   UNK     0      -4.548  -1.497  -7.835  0.00  0.00     0.219 C 
BRANCH  17  18
HETATM   18  N   UNK     0      -4.555  -2.768  -7.183  0.00  0.00    -0.221 N 
HETATM   19  C   UNK     0      -3.895  -3.872  -7.565  0.00  0.00     0.124 A 
HETATM   20  C   UNK     0      -4.227  -4.859  -6.646  0.00  0.00     0.186 A 
HETATM   21  N   UNK     0      -5.060  -4.282  -5.768  0.00  0.00    -0.123 NA
HETATM   22  N   UNK     0      -5.232  -3.043  -6.111  0.00  0.00    -0.063 NA
BRANCH  20  23
HETATM   23  C   UNK     0      -3.796  -6.194  -6.600  0.00  0.00     0.317 C 
HETATM   24  O   UNK     0      -4.571  -7.065  -6.142  0.00  0.00    -0.257 OA
BRANCH  23  25
HETATM   25  O   UNK     0      -2.550  -6.534  -7.040  0.00  0.00    -0.297 OA
BRANCH  25  26
HETATM   26  C   UNK     0      -2.237  -7.089  -8.324  0.00  0.00     0.152 C 
HETATM   27  C   UNK     0      -1.197  -6.207  -9.035  0.00  0.00     0.035 C 
ENDBRANCH  25  26
ENDBRANCH  23  25
ENDBRANCH  20  23
ENDBRANCH  17  18
ENDBRANCH   2  17
TORSDOF 6
ENDMDL
MODEL 7
REMARK VINA RESULT:      -7.0      2.128      8.866
REMARK  6 active torsions:
REMARK  status: ('A' for Active; 'I' for Inactive)
REMARK    1  A    between atoms: C_9  and  N_13 
REMARK       I    between atoms: N_13  and  C_14 
REMARK    2  A    between atoms: C_14  and  C_17 
REMARK    3  A    between atoms: C_17  and  N_18 
REMARK    4  A    between atoms: C_20  and  C_23 
REMARK    5  A    between atoms: C_23  and  O_24 
REMARK    6  A    between atoms: O_24  and  C_26 
ROOT
HETATM    1  N   UNK     0      -3.178  -3.291  -8.732  0.00  0.00    -0.205 NA
HETATM    2  C   UNK     0      -2.184  -2.368  -8.560  0.00  0.00     0.281 C 
HETATM    3  O   UNK     0      -1.681  -2.140  -7.432  0.00  0.00    -0.268 OA
ENDROOT
BRANCH   1   4
HETATM    4  C   UNK     0      -3.660  -4.096  -7.775  0.00  0.00     0.146 C 
HETATM    5  C   UNK     0      -4.566  -3.618  -6.888  0.00  0.00     0.162 C 
HETATM    6  C   UNK     0      -5.033  -4.416  -5.832  0.00  0.00     0.217 C 
HETATM    7  N   UNK     0      -5.006  -2.371  -6.992  0.00  0.00    -0.143 N 
HETATM    8  C   UNK     0      -4.479  -5.717  -5.615  0.00  0.00     0.044 A 
HETATM    9  O   UNK     0      -5.929  -3.979  -5.070  0.00  0.00    -0.285 OA
HETATM   10  C   UNK     0      -4.816  -6.504  -4.487  0.00  0.00     0.003 A 
HETATM   11  C   UNK     0      -3.556  -6.230  -6.568  0.00  0.00     0.044 A 
HETATM   12  C   UNK     0      -4.235  -7.771  -4.299  0.00  0.00     0.000 A 
HETATM   13  C   UNK     0      -3.319  -8.272  -5.237  0.00  0.00     0.000 A 
HETATM   14  C   UNK     0      -2.987  -7.511  -6.368  0.00  0.00     0.003 A 
HETATM   15  C   UNK     0      -3.235  -5.431  -7.702  0.00  0.00     0.215 C 
HETATM   16  O   UNK     0      -2.598  -5.934  -8.661  0.00  0.00    -0.285 OA
ENDBRANCH   1   4
BRANCH   2  17
HETATM   17  C   UNK     0      -1.685  -1.624  -9.733  0.00  0.00     0.219 C 
BRANCH  17  18
HETATM   18  N   UNK     0      -0.854  -0.529  -9.344  0.00  0.00    -0.221 N 
HETATM   19  C   UNK     0      -1.188   0.771  -9.330  0.00  0.00     0.124 A 
HETATM   20  C   UNK     0      -0.057   1.457  -8.910  0.00  0.00     0.186 A 
HETATM   21  N   UNK     0       0.882   0.524  -8.691  0.00  0.00    -0.123 NA
HETATM   22  N   UNK     0       0.379  -0.642  -8.954  0.00  0.00    -0.063 NA
BRANCH  20  23
HETATM   23  C   UNK     0       0.113   2.838  -8.727  0.00  0.00     0.317 C 
HETATM   24  O   UNK     0      -0.835   3.607  -9.008  0.00  0.00    -0.257 OA
BRANCH  23  25
HETATM   25  O   UNK     0       1.295   3.333  -8.260  0.00  0.00    -0.297 OA
BRANCH  25  26
HETATM   26  C   UNK     0       1.461   4.135  -7.083  0.00  0.00     0.152 C 
HETATM   27  C   UNK     0       2.177   3.321  -5.992  0.00  0.00     0.035 C 
ENDBRANCH  25  26
ENDBRANCH  23  25
ENDBRANCH  20  23
ENDBRANCH  17  18
ENDBRANCH   2  17
TORSDOF 6
ENDMDL
MODEL 8
REMARK VINA RESULT:      -6.9      3.552      5.431
REMARK  6 active torsions:
REMARK  status: ('A' for Active; 'I' for Inactive)
REMARK    1  A    between atoms: C_9  and  N_13 
REMARK       I    between atoms: N_13  and  C_14 
REMARK    2  A    between atoms: C_14  and  C_17 
REMARK    3  A    between atoms: C_17  and  N_18 
REMARK    4  A    between atoms: C_20  and  C_23 
REMARK    5  A    between atoms: C_23  and  O_24 
REMARK    6  A    between atoms: O_24  and  C_26 
ROOT
HETATM    1  N   UNK     0      -3.690  -4.565  -6.018  0.00  0.00    -0.205 NA
HETATM    2  C   UNK     0      -4.299  -5.775  -6.206  0.00  0.00     0.281 C 
HETATM    3  O   UNK     0      -4.800  -6.098  -7.310  0.00  0.00    -0.268 OA
ENDROOT
BRANCH   1   4
HETATM    4  C   UNK     0      -3.484  -3.647  -6.972  0.00  0.00     0.146 C 
HETATM    5  C   UNK     0      -4.369  -2.636  -7.136  0.00  0.00     0.162 C 
HETATM    6  C   UNK     0      -4.217  -1.703  -8.173  0.00  0.00     0.217 C 
HETATM    7  N   UNK     0      -5.417  -2.530  -6.328  0.00  0.00    -0.143 N 
HETATM    8  C   UNK     0      -3.176  -1.866  -9.140  0.00  0.00     0.044 A 
HETATM    9  O   UNK     0      -5.006  -0.730  -8.258  0.00  0.00    -0.285 OA
HETATM   10  C   UNK     0      -3.063  -1.034 -10.280  0.00  0.00     0.003 A 
HETATM   11  C   UNK     0      -2.225  -2.907  -8.945  0.00  0.00     0.044 A 
HETATM   12  C   UNK     0      -2.037  -1.240 -11.218  0.00  0.00     0.000 A 
HETATM   13  C   UNK     0      -1.104  -2.271 -11.027  0.00  0.00     0.000 A 
HETATM   14  C   UNK     0      -1.192  -3.095  -9.895  0.00  0.00     0.003 A 
HETATM   15  C   UNK     0      -2.345  -3.730  -7.789  0.00  0.00     0.215 C 
HETATM   16  O   UNK     0      -1.410  -4.509  -7.476  0.00  0.00    -0.285 OA
ENDBRANCH   1   4
BRANCH   2  17
HETATM   17  C   UNK     0      -4.365  -6.727  -5.080  0.00  0.00     0.219 C 
BRANCH  17  18
HETATM   18  N   UNK     0      -5.221  -6.252  -4.041  0.00  0.00    -0.221 N 
HETATM   19  C   UNK     0      -6.564  -6.240  -4.046  0.00  0.00     0.124 A 
HETATM   20  C   UNK     0      -6.950  -5.665  -2.843  0.00  0.00     0.186 A 
HETATM   21  N   UNK     0      -5.815  -5.375  -2.189  0.00  0.00    -0.123 NA
HETATM   22  N   UNK     0      -4.809  -5.737  -2.923  0.00  0.00    -0.063 NA
BRANCH  20  23
HETATM   23  C   UNK     0      -8.247  -5.425  -2.362  0.00  0.00     0.317 C 
HETATM   24  O   UNK     0      -8.519  -5.724  -1.177  0.00  0.00    -0.257 OA
BRANCH  23  25
HETATM   25  O   UNK     0      -9.197  -4.885  -3.179  0.00  0.00    -0.297 OA
BRANCH  25  26
HETATM   26  C   UNK     0     -10.603  -5.164  -3.127  0.00  0.00     0.152 C 
HETATM   27  C   UNK     0     -11.183  -5.194  -4.551  0.00  0.00     0.035 C 
ENDBRANCH  25  26
ENDBRANCH  23  25
ENDBRANCH  20  23
ENDBRANCH  17  18
ENDBRANCH   2  17
TORSDOF 6
ENDMDL
MODEL 9
REMARK VINA RESULT:      -6.8      3.133      4.742
REMARK  6 active torsions:
REMARK  status: ('A' for Active; 'I' for Inactive)
REMARK    1  A    between atoms: C_9  and  N_13 
REMARK       I    between atoms: N_13  and  C_14 
REMARK    2  A    between atoms: C_14  and  C_17 
REMARK    3  A    between atoms: C_17  and  N_18 
REMARK    4  A    between atoms: C_20  and  C_23 
REMARK    5  A    between atoms: C_23  and  O_24 
REMARK    6  A    between atoms: O_24  and  C_26 
ROOT
HETATM    1  N   UNK     0      -2.284  -5.041  -6.981  0.00  0.00    -0.205 NA
HETATM    2  C   UNK     0      -3.466  -5.711  -7.139  0.00  0.00     0.281 C 
HETATM    3  O   UNK     0      -4.250  -5.454  -8.085  0.00  0.00    -0.268 OA
ENDROOT
BRANCH   1   4
HETATM    4  C   UNK     0      -1.795  -4.126  -7.828  0.00  0.00     0.146 C 
HETATM    5  C   UNK     0      -2.013  -2.809  -7.595  0.00  0.00     0.162 C 
HETATM    6  C   UNK     0      -1.576  -1.833  -8.503  0.00  0.00     0.217 C 
HETATM    7  N   UNK     0      -2.673  -2.425  -6.509  0.00  0.00    -0.143 N 
HETATM    8  C   UNK     0      -0.981  -2.221  -9.744  0.00  0.00     0.044 A 
HETATM    9  O   UNK     0      -1.721  -0.616  -8.229  0.00  0.00    -0.285 OA
HETATM   10  C   UNK     0      -0.649  -1.283 -10.752  0.00  0.00     0.003 A 
HETATM   11  C   UNK     0      -0.719  -3.601  -9.970  0.00  0.00     0.044 A 
HETATM   12  C   UNK     0      -0.083  -1.706 -11.967  0.00  0.00     0.000 A 
HETATM   13  C   UNK     0       0.168  -3.069 -12.190  0.00  0.00     0.000 A 
HETATM   14  C   UNK     0      -0.141  -4.010 -11.196  0.00  0.00     0.003 A 
HETATM   15  C   UNK     0      -1.049  -4.533  -8.945  0.00  0.00     0.215 C 
HETATM   16  O   UNK     0      -0.639  -5.718  -9.021  0.00  0.00    -0.285 OA
ENDBRANCH   1   4
BRANCH   2  17
HETATM   17  C   UNK     0      -3.826  -6.768  -6.174  0.00  0.00     0.219 C 
BRANCH  17  18
HETATM   18  N   UNK     0      -4.639  -6.257  -5.116  0.00  0.00    -0.221 N 
HETATM   19  C   UNK     0      -4.998  -6.900  -3.994  0.00  0.00     0.124 A 
HETATM   20  C   UNK     0      -5.805  -6.021  -3.285  0.00  0.00     0.186 A 
HETATM   21  N   UNK     0      -5.872  -4.903  -4.024  0.00  0.00    -0.123 NA
HETATM   22  N   UNK     0      -5.169  -5.072  -5.099  0.00  0.00    -0.063 NA
BRANCH  20  23
HETATM   23  C   UNK     0      -6.434  -6.214  -2.045  0.00  0.00     0.317 C 
HETATM   24  O   UNK     0      -5.886  -6.954  -1.197  0.00  0.00    -0.257 OA
BRANCH  23  25
HETATM   25  O   UNK     0      -7.627  -5.610  -1.774  0.00  0.00    -0.297 OA
BRANCH  25  26
HETATM   26  C   UNK     0      -8.907  -6.025  -2.270  0.00  0.00     0.152 C 
HETATM   27  C   UNK     0      -9.429  -5.002  -3.292  0.00  0.00     0.035 C 
ENDBRANCH  25  26
ENDBRANCH  23  25
ENDBRANCH  20  23
ENDBRANCH  17  18
ENDBRANCH   2  17
TORSDOF 6
ENDMDL
