MODEL 1
REMARK VINA RESULT:      -7.7      0.000      0.000
REMARK  5 active torsions:
REMARK  status: ('A' for Active; 'I' for Inactive)
REMARK    1  A    between atoms: C_9  and  N_13 
REMARK       I    between atoms: N_13  and  C_14 
REMARK    2  A    between atoms: C_14  and  C_17 
REMARK    3  A    between atoms: C_17  and  N_18 
REMARK    4  A    between atoms: C_20  and  C_23 
REMARK    5  A    between atoms: C_23  and  C_24 
ROOT
HETATM    1  N   UNK     0      -4.689  -2.729  -8.077  0.00  0.00    -0.205 NA
HETATM    2  C   UNK     0      -4.206  -1.460  -7.933  0.00  0.00     0.281 C 
HETATM    3  O   UNK     0      -4.861  -0.561  -8.507  0.00  0.00    -0.268 OA
ENDROOT
BRANCH   2   4
HETATM    4  C   UNK     0      -3.023  -1.048  -7.134  0.00  0.00     0.219 C 
BRANCH   4   5
HETATM    5  N   UNK     0      -1.985  -0.531  -7.973  0.00  0.00    -0.221 N 
HETATM    6  C   UNK     0      -1.841   0.736  -8.402  0.00  0.00     0.114 A 
HETATM    7  C   UNK     0      -0.674   0.761  -9.153  0.00  0.00     0.101 A 
HETATM    8  N   UNK     0      -0.201  -0.495  -9.149  0.00  0.00    -0.133 NA
HETATM    9  N   UNK     0      -0.997  -1.234  -8.438  0.00  0.00    -0.064 NA
BRANCH   7  10
HETATM   10  C   UNK     0      -0.037   1.916  -9.827  0.00  0.00     0.049 C 
BRANCH  10  11
HETATM   11  C   UNK     0       0.274   3.130  -8.887  0.00  0.00     0.006 C 
HETATM   12  C   UNK     0       0.777   4.362  -9.711  0.00  0.00     0.000 C 
HETATM   13  C   UNK     0       1.154   5.578  -8.820  0.00  0.00     0.000 C 
HETATM   14  C   UNK     0       2.181   5.193  -7.725  0.00  0.00     0.000 C 
HETATM   15  C   UNK     0       1.683   3.992  -6.882  0.00  0.00     0.000 C 
HETATM   16  C   UNK     0       1.317   2.776  -7.776  0.00  0.00     0.000 C 
ENDBRANCH  10  11
ENDBRANCH   7  10
ENDBRANCH   4   5
ENDBRANCH   2   4
BRANCH   1  17
HETATM   17  C   UNK     0      -4.184  -3.843  -7.534  0.00  0.00     0.146 C 
HETATM   18  C   UNK     0      -3.216  -4.519  -8.201  0.00  0.00     0.162 C 
HETATM   19  C   UNK     0      -2.683  -5.709  -7.691  0.00  0.00     0.217 C 
HETATM   20  N   UNK     0      -2.765  -4.088  -9.373  0.00  0.00    -0.143 N 
HETATM   21  C   UNK     0      -3.280  -6.326  -6.552  0.00  0.00     0.044 A 
HETATM   22  O   UNK     0      -1.688  -6.238  -8.245  0.00  0.00    -0.285 OA
HETATM   23  C   UNK     0      -2.939  -7.641  -6.150  0.00  0.00     0.003 A 
HETATM   24  C   UNK     0      -4.262  -5.599  -5.820  0.00  0.00     0.044 A 
HETATM   25  C   UNK     0      -3.552  -8.222  -5.027  0.00  0.00     0.000 A 
HETATM   26  C   UNK     0      -4.495  -7.493  -4.284  0.00  0.00     0.000 A 
HETATM   27  C   UNK     0      -4.844  -6.187  -4.671  0.00  0.00     0.003 A 
HETATM   28  C   UNK     0      -4.644  -4.304  -6.288  0.00  0.00     0.215 C 
HETATM   29  O   UNK     0      -5.403  -3.578  -5.600  0.00  0.00    -0.285 OA
ENDBRANCH   1  17
TORSDOF 5
ENDMDL
MODEL 2
REMARK VINA RESULT:      -7.6      3.675      7.961
REMARK  5 active torsions:
REMARK  status: ('A' for Active; 'I' for Inactive)
REMARK    1  A    between atoms: C_9  and  N_13 
REMARK       I    between atoms: N_13  and  C_14 
REMARK    2  A    between atoms: C_14  and  C_17 
REMARK    3  A    between atoms: C_17  and  N_18 
REMARK    4  A    between atoms: C_20  and  C_23 
REMARK    5  A    between atoms: C_23  and  C_24 
ROOT
HETATM    1  N   UNK     0      -1.470  -1.701  -8.063  0.00  0.00    -0.205 NA
HETATM    2  C   UNK     0      -2.733  -1.363  -7.669  0.00  0.00     0.281 C 
HETATM    3  O   UNK     0      -2.813  -0.414  -6.857  0.00  0.00    -0.268 OA
ENDROOT
BRANCH   2   4
HETATM    4  C   UNK     0      -4.002  -1.975  -8.140  0.00  0.00     0.219 C 
BRANCH   4   5
HETATM    5  N   UNK     0      -4.394  -3.067  -7.301  0.00  0.00    -0.221 N 
HETATM    6  C   UNK     0      -4.148  -4.374  -7.500  0.00  0.00     0.114 A 
HETATM    7  C   UNK     0      -4.688  -5.041  -6.409  0.00  0.00     0.101 A 
HETATM    8  N   UNK     0      -5.245  -4.097  -5.634  0.00  0.00    -0.133 NA
HETATM    9  N   UNK     0      -5.049  -2.940  -6.187  0.00  0.00    -0.064 NA
BRANCH   7  10
HETATM   10  C   UNK     0      -4.665  -6.493  -6.113  0.00  0.00     0.049 C 
BRANCH  10  11
HETATM   11  C   UNK     0      -3.939  -7.367  -7.191  0.00  0.00     0.006 C 
HETATM   12  C   UNK     0      -4.947  -7.861  -8.281  0.00  0.00     0.000 C 
HETATM   13  C   UNK     0      -4.289  -8.780  -9.348  0.00  0.00     0.000 C 
HETATM   14  C   UNK     0      -3.551  -9.978  -8.698  0.00  0.00     0.000 C 
HETATM   15  C   UNK     0      -2.529  -9.502  -7.635  0.00  0.00     0.000 C 
HETATM   16  C   UNK     0      -3.193  -8.592  -6.567  0.00  0.00     0.000 C 
ENDBRANCH  10  11
ENDBRANCH   7  10
ENDBRANCH   4   5
ENDBRANCH   2   4
BRANCH   1  17
HETATM   17  C   UNK     0      -1.135  -2.654  -8.942  0.00  0.00     0.146 C 
HETATM   18  C   UNK     0      -0.885  -2.301 -10.228  0.00  0.00     0.162 C 
HETATM   19  C   UNK     0      -0.567  -3.265 -11.192  0.00  0.00     0.217 C 
HETATM   20  N   UNK     0      -0.964  -1.035 -10.617  0.00  0.00    -0.143 N 
HETATM   21  C   UNK     0      -0.680  -4.652 -10.877  0.00  0.00     0.044 A 
HETATM   22  O   UNK     0      -0.194  -2.908 -12.336  0.00  0.00    -0.285 OA
HETATM   23  C   UNK     0      -0.610  -5.653 -11.876  0.00  0.00     0.003 A 
HETATM   24  C   UNK     0      -0.894  -5.027  -9.520  0.00  0.00     0.044 A 
HETATM   25  C   UNK     0      -0.733  -7.010 -11.533  0.00  0.00     0.000 A 
HETATM   26  C   UNK     0      -0.909  -7.383 -10.190  0.00  0.00     0.000 A 
HETATM   27  C   UNK     0      -0.981  -6.400  -9.187  0.00  0.00     0.003 A 
HETATM   28  C   UNK     0      -1.036  -3.996  -8.540  0.00  0.00     0.215 C 
HETATM   29  O   UNK     0      -1.090  -4.284  -7.319  0.00  0.00    -0.285 OA
ENDBRANCH   1  17
TORSDOF 5
ENDMDL
MODEL 3
REMARK VINA RESULT:      -7.5      2.440      9.317
REMARK  5 active torsions:
REMARK  status: ('A' for Active; 'I' for Inactive)
REMARK    1  A    between atoms: C_9  and  N_13 
REMARK       I    between atoms: N_13  and  C_14 
REMARK    2  A    between atoms: C_14  and  C_17 
REMARK    3  A    between atoms: C_17  and  N_18 
REMARK    4  A    between atoms: C_20  and  C_23 
REMARK    5  A    between atoms: C_23  and  C_24 
ROOT
HETATM    1  N   UNK     0      -0.854   1.276 -10.663  0.00  0.00    -0.205 NA
HETATM    2  C   UNK     0      -2.097   0.723 -10.557  0.00  0.00     0.281 C 
HETATM    3  O   UNK     0      -2.339  -0.224 -11.340  0.00  0.00    -0.268 OA
ENDROOT
BRANCH   2   4
HETATM    4  C   UNK     0      -3.157   1.101  -9.587  0.00  0.00     0.219 C 
BRANCH   4   5
HETATM    5  N   UNK     0      -3.337   0.086  -8.594  0.00  0.00    -0.221 N 
HETATM    6  C   UNK     0      -4.364  -0.777  -8.491  0.00  0.00     0.114 A 
HETATM    7  C   UNK     0      -4.081  -1.589  -7.401  0.00  0.00     0.101 A 
HETATM    8  N   UNK     0      -2.915  -1.148  -6.902  0.00  0.00    -0.133 NA
HETATM    9  N   UNK     0      -2.499  -0.161  -7.634  0.00  0.00    -0.064 NA
BRANCH   7  10
HETATM   10  C   UNK     0      -4.868  -2.725  -6.870  0.00  0.00     0.049 C 
BRANCH  10  11
HETATM   11  C   UNK     0      -4.033  -4.017  -6.578  0.00  0.00     0.006 C 
HETATM   12  C   UNK     0      -3.414  -4.593  -7.896  0.00  0.00     0.000 C 
HETATM   13  C   UNK     0      -2.618  -5.909  -7.672  0.00  0.00     0.000 C 
HETATM   14  C   UNK     0      -3.474  -6.983  -6.951  0.00  0.00     0.000 C 
HETATM   15  C   UNK     0      -4.071  -6.436  -5.630  0.00  0.00     0.000 C 
HETATM   16  C   UNK     0      -4.872  -5.126  -5.861  0.00  0.00     0.000 C 
ENDBRANCH  10  11
ENDBRANCH   7  10
ENDBRANCH   4   5
ENDBRANCH   2   4
BRANCH   1  17
HETATM   17  C   UNK     0      -0.356   2.271  -9.919  0.00  0.00     0.146 C 
HETATM   18  C   UNK     0      -0.619   3.553 -10.275  0.00  0.00     0.162 C 
HETATM   19  C   UNK     0      -0.090   4.627  -9.549  0.00  0.00     0.217 C 
HETATM   20  N   UNK     0      -1.362   3.828 -11.339  0.00  0.00    -0.143 N 
HETATM   21  C   UNK     0       0.884   4.390  -8.534  0.00  0.00     0.044 A 
HETATM   22  O   UNK     0      -0.463   5.799  -9.801  0.00  0.00    -0.285 OA
HETATM   23  C   UNK     0       1.624   5.445  -7.947  0.00  0.00     0.003 A 
HETATM   24  C   UNK     0       1.127   3.048  -8.123  0.00  0.00     0.044 A 
HETATM   25  C   UNK     0       2.581   5.177  -6.954  0.00  0.00     0.000 A 
HETATM   26  C   UNK     0       2.796   3.856  -6.524  0.00  0.00     0.000 A 
HETATM   27  C   UNK     0       2.070   2.798  -7.097  0.00  0.00     0.003 A 
HETATM   28  C   UNK     0       0.422   1.993  -8.782  0.00  0.00     0.215 C 
HETATM   29  O   UNK     0       0.506   0.813  -8.360  0.00  0.00    -0.285 OA
ENDBRANCH   1  17
TORSDOF 5
ENDMDL
MODEL 4
REMARK VINA RESULT:      -7.5      2.387      3.219
REMARK  5 active torsions:
REMARK  status: ('A' for Active; 'I' for Inactive)
REMARK    1  A    between atoms: C_9  and  N_13 
REMARK       I    between atoms: N_13  and  C_14 
REMARK    2  A    between atoms: C_14  and  C_17 
REMARK    3  A    between atoms: C_17  and  N_18 
REMARK    4  A    between atoms: C_20  and  C_23 
REMARK    5  A    between atoms: C_23  and  C_24 
ROOT
HETATM    1  N   UNK     0      -4.364  -5.329  -7.682  0.00  0.00    -0.205 NA
HETATM    2  C   UNK     0      -3.386  -4.472  -8.098  0.00  0.00     0.281 C 
HETATM    3  O   UNK     0      -3.539  -3.987  -9.242  0.00  0.00    -0.268 OA
ENDROOT
BRANCH   2   4
HETATM    4  C   UNK     0      -2.201  -4.034  -7.316  0.00  0.00     0.219 C 
BRANCH   4   5
HETATM    5  N   UNK     0      -1.604  -2.866  -7.891  0.00  0.00    -0.221 N 
HETATM    6  C   UNK     0      -0.520  -2.816  -8.687  0.00  0.00     0.114 A 
HETATM    7  C   UNK     0      -0.347  -1.480  -9.020  0.00  0.00     0.101 A 
HETATM    8  N   UNK     0      -1.321  -0.808  -8.387  0.00  0.00    -0.133 NA
HETATM    9  N   UNK     0      -2.051  -1.658  -7.732  0.00  0.00    -0.064 NA
BRANCH   7  10
HETATM   10  C   UNK     0       0.681  -0.876  -9.901  0.00  0.00     0.049 C 
BRANCH  10  11
HETATM   11  C   UNK     0       1.829  -0.127  -9.145  0.00  0.00     0.006 C 
HETATM   12  C   UNK     0       1.549   1.412  -9.085  0.00  0.00     0.000 C 
HETATM   13  C   UNK     0       2.687   2.212  -8.392  0.00  0.00     0.000 C 
HETATM   14  C   UNK     0       4.067   1.929  -9.041  0.00  0.00     0.000 C 
HETATM   15  C   UNK     0       4.370   0.410  -9.081  0.00  0.00     0.000 C 
HETATM   16  C   UNK     0       3.235  -0.384  -9.782  0.00  0.00     0.000 C 
ENDBRANCH  10  11
ENDBRANCH   7  10
ENDBRANCH   4   5
ENDBRANCH   2   4
BRANCH   1  17
HETATM   17  C   UNK     0      -4.438  -5.942  -6.494  0.00  0.00     0.146 C 
HETATM   18  C   UNK     0      -3.850  -7.155  -6.345  0.00  0.00     0.162 C 
HETATM   19  C   UNK     0      -3.931  -7.852  -5.133  0.00  0.00     0.217 C 
HETATM   20  N   UNK     0      -3.203  -7.730  -7.351  0.00  0.00    -0.143 N 
HETATM   21  C   UNK     0      -4.789  -7.381  -4.097  0.00  0.00     0.044 A 
HETATM   22  O   UNK     0      -3.257  -8.899  -4.965  0.00  0.00    -0.285 OA
HETATM   23  C   UNK     0      -5.093  -8.171  -2.961  0.00  0.00     0.003 A 
HETATM   24  C   UNK     0      -5.370  -6.087  -4.228  0.00  0.00     0.044 A 
HETATM   25  C   UNK     0      -5.949  -7.680  -1.960  0.00  0.00     0.000 A 
HETATM   26  C   UNK     0      -6.495  -6.390  -2.074  0.00  0.00     0.000 A 
HETATM   27  C   UNK     0      -6.203  -5.594  -3.195  0.00  0.00     0.003 A 
HETATM   28  C   UNK     0      -5.109  -5.338  -5.417  0.00  0.00     0.215 C 
HETATM   29  O   UNK     0      -5.489  -4.146  -5.513  0.00  0.00    -0.285 OA
ENDBRANCH   1  17
TORSDOF 5
ENDMDL
MODEL 5
REMARK VINA RESULT:      -7.5      3.675      8.412
REMARK  5 active torsions:
REMARK  status: ('A' for Active; 'I' for Inactive)
REMARK    1  A    between atoms: C_9  and  N_13 
REMARK       I    between atoms: N_13  and  C_14 
REMARK    2  A    between atoms: C_14  and  C_17 
REMARK    3  A    between atoms: C_17  and  N_18 
REMARK    4  A    between atoms: C_20  and  C_23 
REMARK    5  A    between atoms: C_23  and  C_24 
ROOT
HETATM    1  N   UNK     0      -1.398  -1.659  -8.099  0.00  0.00    -0.205 NA
HETATM    2  C   UNK     0      -2.678  -1.439  -7.680  0.00  0.00     0.281 C 
HETATM    3  O   UNK     0      -2.819  -0.556  -6.804  0.00  0.00    -0.268 OA
ENDROOT
BRANCH   2   4
HETATM    4  C   UNK     0      -3.905  -2.105  -8.190  0.00  0.00     0.219 C 
BRANCH   4   5
HETATM    5  N   UNK     0      -4.416  -3.046  -7.240  0.00  0.00    -0.221 N 
HETATM    6  C   UNK     0      -4.191  -4.373  -7.208  0.00  0.00     0.114 A 
HETATM    7  C   UNK     0      -4.863  -4.853  -6.092  0.00  0.00     0.101 A 
HETATM    8  N   UNK     0      -5.468  -3.791  -5.536  0.00  0.00    -0.133 NA
HETATM    9  N   UNK     0      -5.179  -2.737  -6.236  0.00  0.00    -0.064 NA
BRANCH   7  10
HETATM   10  C   UNK     0      -4.917  -6.240  -5.576  0.00  0.00     0.049 C 
BRANCH  10  11
HETATM   11  C   UNK     0      -5.887  -6.448  -4.364  0.00  0.00     0.006 C 
HETATM   12  C   UNK     0      -5.105  -6.410  -3.008  0.00  0.00     0.000 C 
HETATM   13  C   UNK     0      -6.013  -6.666  -1.773  0.00  0.00     0.000 C 
HETATM   14  C   UNK     0      -6.811  -7.988  -1.911  0.00  0.00     0.000 C 
HETATM   15  C   UNK     0      -7.613  -8.028  -3.236  0.00  0.00     0.000 C 
HETATM   16  C   UNK     0      -6.700  -7.780  -4.467  0.00  0.00     0.000 C 
ENDBRANCH  10  11
ENDBRANCH   7  10
ENDBRANCH   4   5
ENDBRANCH   2   4
BRANCH   1  17
HETATM   17  C   UNK     0      -1.003  -2.523  -9.042  0.00  0.00     0.146 C 
HETATM   18  C   UNK     0      -0.732  -2.056 -10.287  0.00  0.00     0.162 C 
HETATM   19  C   UNK     0      -0.351  -2.925 -11.316  0.00  0.00     0.217 C 
HETATM   20  N   UNK     0      -0.849  -0.766 -10.574  0.00  0.00    -0.143 N 
HETATM   21  C   UNK     0      -0.419  -4.336 -11.119  0.00  0.00     0.044 A 
HETATM   22  O   UNK     0       0.039  -2.461 -12.416  0.00  0.00    -0.285 OA
HETATM   23  C   UNK     0      -0.283  -5.249 -12.194  0.00  0.00     0.003 A 
HETATM   24  C   UNK     0      -0.654  -4.830  -9.804  0.00  0.00     0.044 A 
HETATM   25  C   UNK     0      -0.363  -6.633 -11.967  0.00  0.00     0.000 A 
HETATM   26  C   UNK     0      -0.560  -7.121 -10.665  0.00  0.00     0.000 A 
HETATM   27  C   UNK     0      -0.697  -6.228  -9.587  0.00  0.00     0.003 A 
HETATM   28  C   UNK     0      -0.863  -3.890  -8.748  0.00  0.00     0.215 C 
HETATM   29  O   UNK     0      -0.938  -4.279  -7.557  0.00  0.00    -0.285 OA
ENDBRANCH   1  17
TORSDOF 5
ENDMDL
MODEL 6
REMARK VINA RESULT:      -7.5      2.049      2.680
REMARK  5 active torsions:
REMARK  status: ('A' for Active; 'I' for Inactive)
REMARK    1  A    between atoms: C_9  and  N_13 
REMARK       I    between atoms: N_13  and  C_14 
REMARK    2  A    between atoms: C_14  and  C_17 
REMARK    3  A    between atoms: C_17  and  N_18 
REMARK    4  A    between atoms: C_20  and  C_23 
REMARK    5  A    between atoms: C_23  and  C_24 
ROOT
HETATM    1  N   UNK     0      -4.983  -4.027  -6.923  0.00  0.00    -0.205 NA
HETATM    2  C   UNK     0      -4.374  -2.805  -6.909  0.00  0.00     0.281 C 
HETATM    3  O   UNK     0      -5.108  -1.829  -7.186  0.00  0.00    -0.268 OA
ENDROOT
BRANCH   2   4
HETATM    4  C   UNK     0      -2.958  -2.524  -6.558  0.00  0.00     0.219 C 
BRANCH   4   5
HETATM    5  N   UNK     0      -2.340  -1.677  -7.533  0.00  0.00    -0.221 N 
HETATM    6  C   UNK     0      -1.836  -2.044  -8.725  0.00  0.00     0.114 A 
HETATM    7  C   UNK     0      -1.382  -0.879  -9.328  0.00  0.00     0.101 A 
HETATM    8  N   UNK     0      -1.619   0.111  -8.453  0.00  0.00    -0.133 NA
HETATM    9  N   UNK     0      -2.192  -0.395  -7.404  0.00  0.00    -0.064 NA
BRANCH   7  10
HETATM   10  C   UNK     0      -0.767  -0.713 -10.666  0.00  0.00     0.049 C 
BRANCH  10  11
HETATM   11  C   UNK     0       0.728  -0.249 -10.644  0.00  0.00     0.006 C 
HETATM   12  C   UNK     0       1.547  -1.052  -9.577  0.00  0.00     0.000 C 
HETATM   13  C   UNK     0       3.028  -0.592  -9.474  0.00  0.00     0.000 C 
HETATM   14  C   UNK     0       3.141   0.933  -9.221  0.00  0.00     0.000 C 
HETATM   15  C   UNK     0       2.358   1.742 -10.286  0.00  0.00     0.000 C 
HETATM   16  C   UNK     0       0.877   1.285 -10.379  0.00  0.00     0.000 C 
ENDBRANCH  10  11
ENDBRANCH   7  10
ENDBRANCH   4   5
ENDBRANCH   2   4
BRANCH   1  17
HETATM   17  C   UNK     0      -4.418  -5.205  -6.631  0.00  0.00     0.146 C 
HETATM   18  C   UNK     0      -3.654  -5.817  -7.570  0.00  0.00     0.162 C 
HETATM   19  C   UNK     0      -3.073  -7.067  -7.325  0.00  0.00     0.217 C 
HETATM   20  N   UNK     0      -3.458  -5.263  -8.760  0.00  0.00    -0.143 N 
HETATM   21  C   UNK     0      -3.427  -7.799  -6.153  0.00  0.00     0.044 A 
HETATM   22  O   UNK     0      -2.250  -7.547  -8.143  0.00  0.00    -0.285 OA
HETATM   23  C   UNK     0      -3.062  -9.157  -5.982  0.00  0.00     0.003 A 
HETATM   24  C   UNK     0      -4.188  -7.144  -5.143  0.00  0.00     0.044 A 
HETATM   25  C   UNK     0      -3.432  -9.852  -4.818  0.00  0.00     0.000 A 
HETATM   26  C   UNK     0      -4.153  -9.196  -3.807  0.00  0.00     0.000 A 
HETATM   27  C   UNK     0      -4.523  -7.848  -3.962  0.00  0.00     0.003 A 
HETATM   28  C   UNK     0      -4.608  -5.796  -5.371  0.00  0.00     0.215 C 
HETATM   29  O   UNK     0      -5.161  -5.141  -4.454  0.00  0.00    -0.285 OA
ENDBRANCH   1  17
TORSDOF 5
ENDMDL
MODEL 7
REMARK VINA RESULT:      -7.4      3.494      5.102
REMARK  5 active torsions:
REMARK  status: ('A' for Active; 'I' for Inactive)
REMARK    1  A    between atoms: C_9  and  N_13 
REMARK       I    between atoms: N_13  and  C_14 
REMARK    2  A    between atoms: C_14  and  C_17 
REMARK    3  A    between atoms: C_17  and  N_18 
REMARK    4  A    between atoms: C_20  and  C_23 
REMARK    5  A    between atoms: C_23  and  C_24 
ROOT
HETATM    1  N   UNK     0      -4.935  -4.019  -7.072  0.00  0.00    -0.205 NA
HETATM    2  C   UNK     0      -4.338  -2.796  -6.978  0.00  0.00     0.281 C 
HETATM    3  O   UNK     0      -5.032  -1.823  -7.351  0.00  0.00    -0.268 OA
ENDROOT
BRANCH   2   4
HETATM    4  C   UNK     0      -2.983  -2.509  -6.440  0.00  0.00     0.219 C 
BRANCH   4   5
HETATM    5  N   UNK     0      -2.069  -2.172  -7.489  0.00  0.00    -0.221 N 
HETATM    6  C   UNK     0      -1.362  -3.023  -8.255  0.00  0.00     0.114 A 
HETATM    7  C   UNK     0      -0.651  -2.238  -9.152  0.00  0.00     0.101 A 
HETATM    8  N   UNK     0      -0.955  -0.964  -8.854  0.00  0.00    -0.133 NA
HETATM    9  N   UNK     0      -1.801  -0.961  -7.870  0.00  0.00    -0.064 NA
BRANCH   7  10
HETATM   10  C   UNK     0       0.259  -2.673 -10.237  0.00  0.00     0.049 C 
BRANCH  10  11
HETATM   11  C   UNK     0      -0.266  -3.883 -11.081  0.00  0.00     0.006 C 
HETATM   12  C   UNK     0       0.125  -5.243 -10.410  0.00  0.00     0.000 C 
HETATM   13  C   UNK     0      -0.324  -6.481 -11.237  0.00  0.00     0.000 C 
HETATM   14  C   UNK     0       0.196  -6.418 -12.696  0.00  0.00     0.000 C 
HETATM   15  C   UNK     0      -0.207  -5.088 -13.382  0.00  0.00     0.000 C 
HETATM   16  C   UNK     0       0.251  -3.855 -12.557  0.00  0.00     0.000 C 
ENDBRANCH  10  11
ENDBRANCH   7  10
ENDBRANCH   4   5
ENDBRANCH   2   4
BRANCH   1  17
HETATM   17  C   UNK     0      -4.410  -5.195  -6.706  0.00  0.00     0.146 C 
HETATM   18  C   UNK     0      -3.655  -5.883  -7.598  0.00  0.00     0.162 C 
HETATM   19  C   UNK     0      -3.115  -7.134  -7.275  0.00  0.00     0.217 C 
HETATM   20  N   UNK     0      -3.429  -5.405  -8.816  0.00  0.00    -0.143 N 
HETATM   21  C   UNK     0      -3.503  -7.786  -6.067  0.00  0.00     0.044 A 
HETATM   22  O   UNK     0      -2.299  -7.685  -8.054  0.00  0.00    -0.285 OA
HETATM   23  C   UNK     0      -3.182  -9.143  -5.814  0.00  0.00     0.003 A 
HETATM   24  C   UNK     0      -4.255  -7.051  -5.106  0.00  0.00     0.044 A 
HETATM   25  C   UNK     0      -3.586  -9.758  -4.617  0.00  0.00     0.000 A 
HETATM   26  C   UNK     0      -4.298  -9.023  -3.654  0.00  0.00     0.000 A 
HETATM   27  C   UNK     0      -4.624  -7.676  -3.891  0.00  0.00     0.003 A 
HETATM   28  C   UNK     0      -4.631  -5.707  -5.416  0.00  0.00     0.215 C 
HETATM   29  O   UNK     0      -5.174  -4.983  -4.546  0.00  0.00    -0.285 OA
ENDBRANCH   1  17
TORSDOF 5
ENDMDL
MODEL 8
REMARK VINA RESULT:      -7.4     11.453     13.785
REMARK  5 active torsions:
REMARK  status: ('A' for Active; 'I' for Inactive)
REMARK    1  A    between atoms: C_9  and  N_13 
REMARK       I    between atoms: N_13  and  C_14 
REMARK    2  A    between atoms: C_14  and  C_17 
REMARK    3  A    between atoms: C_17  and  N_18 
REMARK    4  A    between atoms: C_20  and  C_23 
REMARK    5  A    between atoms: C_23  and  C_24 
ROOT
HETATM    1  N   UNK     0       8.756   2.115  -5.014  0.00  0.00    -0.205 NA
HETATM    2  C   UNK     0       7.766   2.834  -4.409  0.00  0.00     0.281 C 
HETATM    3  O   UNK     0       7.593   3.995  -4.844  0.00  0.00    -0.268 OA
ENDROOT
BRANCH   2   4
HETATM    4  C   UNK     0       6.859   2.360  -3.331  0.00  0.00     0.219 C 
BRANCH   4   5
HETATM    5  N   UNK     0       7.500   2.415  -2.052  0.00  0.00    -0.221 N 
HETATM    6  C   UNK     0       7.721   1.389  -1.209  0.00  0.00     0.114 A 
HETATM    7  C   UNK     0       8.402   1.921  -0.122  0.00  0.00     0.101 A 
HETATM    8  N   UNK     0       8.528   3.234  -0.368  0.00  0.00    -0.133 NA
HETATM    9  N   UNK     0       7.989   3.493  -1.520  0.00  0.00    -0.064 NA
BRANCH   7  10
HETATM   10  C   UNK     0       8.914   1.217   1.077  0.00  0.00     0.049 C 
BRANCH  10  11
HETATM   11  C   UNK     0       7.815   0.500   1.931  0.00  0.00     0.006 C 
HETATM   12  C   UNK     0       7.895   0.943   3.431  0.00  0.00     0.000 C 
HETATM   13  C   UNK     0       6.860   0.218   4.336  0.00  0.00     0.000 C 
HETATM   14  C   UNK     0       6.966  -1.323   4.211  0.00  0.00     0.000 C 
HETATM   15  C   UNK     0       6.860  -1.778   2.734  0.00  0.00     0.000 C 
HETATM   16  C   UNK     0       7.902  -1.059   1.836  0.00  0.00     0.000 C 
ENDBRANCH  10  11
ENDBRANCH   7  10
ENDBRANCH   4   5
ENDBRANCH   2   4
BRANCH   1  17
HETATM   17  C   UNK     0       9.103   0.850  -4.747  0.00  0.00     0.146 C 
HETATM   18  C   UNK     0      10.103   0.617  -3.861  0.00  0.00     0.162 C 
HETATM   19  C   UNK     0      10.527  -0.686  -3.577  0.00  0.00     0.217 C 
HETATM   20  N   UNK     0      10.730   1.620  -3.258  0.00  0.00    -0.143 N 
HETATM   21  C   UNK     0      10.038  -1.779  -4.352  0.00  0.00     0.044 A 
HETATM   22  O   UNK     0      11.347  -0.891  -2.647  0.00  0.00    -0.285 OA
HETATM   23  C   UNK     0      10.614  -3.071  -4.270  0.00  0.00     0.003 A 
HETATM   24  C   UNK     0       8.955  -1.549  -5.248  0.00  0.00     0.044 A 
HETATM   25  C   UNK     0      10.113  -4.124  -5.053  0.00  0.00     0.000 A 
HETATM   26  C   UNK     0       9.022  -3.905  -5.911  0.00  0.00     0.000 A 
HETATM   27  C   UNK     0       8.440  -2.629  -6.004  0.00  0.00     0.003 A 
HETATM   28  C   UNK     0       8.439  -0.221  -5.369  0.00  0.00     0.215 C 
HETATM   29  O   UNK     0       7.402  -0.002  -6.042  0.00  0.00    -0.285 OA
ENDBRANCH   1  17
TORSDOF 5
ENDMDL
MODEL 9
REMARK VINA RESULT:      -7.4      4.387     10.143
REMARK  5 active torsions:
REMARK  status: ('A' for Active; 'I' for Inactive)
REMARK    1  A    between atoms: C_9  and  N_13 
REMARK       I    between atoms: N_13  and  C_14 
REMARK    2  A    between atoms: C_14  and  C_17 
REMARK    3  A    between atoms: C_17  and  N_18 
REMARK    4  A    between atoms: C_20  and  C_23 
REMARK    5  A    between atoms: C_23  and  C_24 
ROOT
HETATM    1  N   UNK     0      -4.876  -6.237  -7.214  0.00  0.00    -0.205 NA
HETATM    2  C   UNK     0      -5.127  -7.132  -6.215  0.00  0.00     0.281 C 
HETATM    3  O   UNK     0      -6.235  -7.712  -6.270  0.00  0.00    -0.268 OA
ENDROOT
BRANCH   2   4
HETATM    4  C   UNK     0      -4.206  -7.510  -5.111  0.00  0.00     0.219 C 
BRANCH   4   5
HETATM    5  N   UNK     0      -4.731  -7.117  -3.839  0.00  0.00    -0.221 N 
HETATM    6  C   UNK     0      -5.350  -7.900  -2.938  0.00  0.00     0.114 A 
HETATM    7  C   UNK     0      -5.644  -7.086  -1.852  0.00  0.00     0.101 A 
HETATM    8  N   UNK     0      -5.205  -5.860  -2.178  0.00  0.00    -0.133 NA
HETATM    9  N   UNK     0      -4.666  -5.913  -3.357  0.00  0.00    -0.064 NA
BRANCH   7  10
HETATM   10  C   UNK     0      -6.294  -7.454  -0.573  0.00  0.00     0.049 C 
BRANCH  10  11
HETATM   11  C   UNK     0      -7.857  -7.538  -0.637  0.00  0.00     0.006 C 
HETATM   12  C   UNK     0      -8.472  -6.169  -1.080  0.00  0.00     0.000 C 
HETATM   13  C   UNK     0     -10.027  -6.180  -1.106  0.00  0.00     0.000 C 
HETATM   14  C   UNK     0     -10.622  -6.638   0.250  0.00  0.00     0.000 C 
HETATM   15  C   UNK     0     -10.042  -8.006   0.688  0.00  0.00     0.000 C 
HETATM   16  C   UNK     0      -8.489  -7.987   0.722  0.00  0.00     0.000 C 
ENDBRANCH  10  11
ENDBRANCH   7  10
ENDBRANCH   4   5
ENDBRANCH   2   4
BRANCH   1  17
HETATM   17  C   UNK     0      -3.756  -5.523  -7.386  0.00  0.00     0.146 C 
HETATM   18  C   UNK     0      -3.711  -4.250  -6.921  0.00  0.00     0.162 C 
HETATM   19  C   UNK     0      -2.576  -3.452  -7.109  0.00  0.00     0.217 C 
HETATM   20  N   UNK     0      -4.753  -3.712  -6.299  0.00  0.00    -0.143 N 
HETATM   21  C   UNK     0      -1.520  -3.906  -7.954  0.00  0.00     0.044 A 
HETATM   22  O   UNK     0      -2.495  -2.334  -6.544  0.00  0.00    -0.285 OA
HETATM   23  C   UNK     0      -0.475  -3.045  -8.370  0.00  0.00     0.003 A 
HETATM   24  C   UNK     0      -1.539  -5.257  -8.404  0.00  0.00     0.044 A 
HETATM   25  C   UNK     0       0.548  -3.521  -9.209  0.00  0.00     0.000 A 
HETATM   26  C   UNK     0       0.548  -4.863  -9.625  0.00  0.00     0.000 A 
HETATM   27  C   UNK     0      -0.483  -5.729  -9.220  0.00  0.00     0.003 A 
HETATM   28  C   UNK     0      -2.642  -6.086  -8.032  0.00  0.00     0.215 C 
HETATM   29  O   UNK     0      -2.630  -7.314  -8.293  0.00  0.00    -0.285 OA
ENDBRANCH   1  17
TORSDOF 5
ENDMDL
