MODEL 1
REMARK VINA RESULT:      -7.8      0.000      0.000
REMARK  4 active torsions:
REMARK  status: ('A' for Active; 'I' for Inactive)
REMARK    1  A    between atoms: C_9  and  N_13 
REMARK       I    between atoms: N_13  and  C_14 
REMARK    2  A    between atoms: C_14  and  C_17 
REMARK    3  A    between atoms: C_17  and  N_18 
REMARK    4  A    between atoms: C_20  and  C_23 
ROOT
HETATM    1  N   UNK     0      -4.315  -5.719  -7.662  0.00  0.00    -0.205 NA
HETATM    2  C   UNK     0      -3.337  -4.906  -8.164  0.00  0.00     0.281 C 
HETATM    3  O   UNK     0      -3.440  -4.617  -9.378  0.00  0.00    -0.268 OA
ENDROOT
BRANCH   1   4
HETATM    4  C   UNK     0      -4.442  -6.125  -6.393  0.00  0.00     0.146 C 
HETATM    5  C   UNK     0      -3.928  -7.324  -6.026  0.00  0.00     0.162 C 
HETATM    6  C   UNK     0      -4.117  -7.822  -4.731  0.00  0.00     0.217 C 
HETATM    7  N   UNK     0      -3.262  -8.078  -6.892  0.00  0.00    -0.143 N 
HETATM    8  C   UNK     0      -5.010  -7.161  -3.835  0.00  0.00     0.044 A 
HETATM    9  O   UNK     0      -3.515  -8.861  -4.363  0.00  0.00    -0.285 OA
HETATM   10  C   UNK     0      -5.443  -7.757  -2.627  0.00  0.00     0.003 A 
HETATM   11  C   UNK     0      -5.501  -5.873  -4.193  0.00  0.00     0.044 A 
HETATM   12  C   UNK     0      -6.348  -7.086  -1.784  0.00  0.00     0.000 A 
HETATM   13  C   UNK     0      -6.807  -5.804  -2.124  0.00  0.00     0.000 A 
HETATM   14  C   UNK     0      -6.381  -5.195  -3.316  0.00  0.00     0.003 A 
HETATM   15  C   UNK     0      -5.109  -5.323  -5.452  0.00  0.00     0.215 C 
HETATM   16  O   UNK     0      -5.374  -4.127  -5.728  0.00  0.00    -0.285 OA
ENDBRANCH   1   4
BRANCH   2  17
HETATM   17  C   UNK     0      -2.200  -4.311  -7.417  0.00  0.00     0.219 C 
BRANCH  17  18
HETATM   18  N   UNK     0      -2.301  -2.886  -7.336  0.00  0.00    -0.221 N 
HETATM   19  C   UNK     0      -2.124  -2.011  -8.339  0.00  0.00     0.114 A 
HETATM   20  C   UNK     0      -2.389  -0.755  -7.817  0.00  0.00     0.101 A 
HETATM   21  N   UNK     0      -2.694  -0.951  -6.523  0.00  0.00    -0.133 NA
HETATM   22  N   UNK     0      -2.627  -2.222  -6.269  0.00  0.00    -0.064 NA
BRANCH  20  23
HETATM   23  C   UNK     0      -2.370   0.535  -8.548  0.00  0.00     0.044 C 
HETATM   24  C   UNK     0      -3.449   0.663  -9.648  0.00  0.00     0.006 C 
HETATM   25  C   UNK     0      -2.939   1.795 -10.558  0.00  0.00     0.000 C 
HETATM   26  C   UNK     0      -1.398   1.750 -10.470  0.00  0.00     0.000 C 
HETATM   27  C   UNK     0      -1.041   0.814  -9.292  0.00  0.00     0.006 C 
ENDBRANCH  20  23
ENDBRANCH  17  18
ENDBRANCH   2  17
TORSDOF 4
ENDMDL
MODEL 2
REMARK VINA RESULT:      -7.8      3.543      7.582
REMARK  4 active torsions:
REMARK  status: ('A' for Active; 'I' for Inactive)
REMARK    1  A    between atoms: C_9  and  N_13 
REMARK       I    between atoms: N_13  and  C_14 
REMARK    2  A    between atoms: C_14  and  C_17 
REMARK    3  A    between atoms: C_17  and  N_18 
REMARK    4  A    between atoms: C_20  and  C_23 
ROOT
HETATM    1  N   UNK     0      -1.261   0.476 -10.026  0.00  0.00    -0.205 NA
HETATM    2  C   UNK     0      -2.389   0.951  -9.418  0.00  0.00     0.281 C 
HETATM    3  O   UNK     0      -2.381   2.171  -9.133  0.00  0.00    -0.268 OA
ENDROOT
BRANCH   1   4
HETATM    4  C   UNK     0      -1.053  -0.772 -10.461  0.00  0.00     0.146 C 
HETATM    5  C   UNK     0      -1.550  -1.147 -11.665  0.00  0.00     0.162 C 
HETATM    6  C   UNK     0      -1.428  -2.467 -12.115  0.00  0.00     0.217 C 
HETATM    7  N   UNK     0      -2.198  -0.283 -12.437  0.00  0.00    -0.143 N 
HETATM    8  C   UNK     0      -0.943  -3.480 -11.233  0.00  0.00     0.044 A 
HETATM    9  O   UNK     0      -1.762  -2.765 -13.288  0.00  0.00    -0.285 OA
HETATM   10  C   UNK     0      -1.050  -4.857 -11.538  0.00  0.00     0.003 A 
HETATM   11  C   UNK     0      -0.364  -3.082  -9.996  0.00  0.00     0.044 A 
HETATM   12  C   UNK     0      -0.588  -5.827 -10.630  0.00  0.00     0.000 A 
HETATM   13  C   UNK     0       0.010  -5.433  -9.423  0.00  0.00     0.000 A 
HETATM   14  C   UNK     0       0.131  -4.069  -9.110  0.00  0.00     0.003 A 
HETATM   15  C   UNK     0      -0.334  -1.690  -9.676  0.00  0.00     0.215 C 
HETATM   16  O   UNK     0       0.319  -1.283  -8.684  0.00  0.00    -0.285 OA
ENDBRANCH   1   4
BRANCH   2  17
HETATM   17  C   UNK     0      -3.620   0.185  -9.096  0.00  0.00     0.219 C 
BRANCH  17  18
HETATM   18  N   UNK     0      -3.356  -0.902  -8.205  0.00  0.00    -0.221 N 
HETATM   19  C   UNK     0      -3.709  -2.186  -8.379  0.00  0.00     0.114 A 
HETATM   20  C   UNK     0      -3.184  -2.888  -7.307  0.00  0.00     0.101 A 
HETATM   21  N   UNK     0      -2.559  -1.978  -6.541  0.00  0.00    -0.133 NA
HETATM   22  N   UNK     0      -2.683  -0.813  -7.098  0.00  0.00    -0.064 NA
BRANCH  20  23
HETATM   23  C   UNK     0      -3.271  -4.350  -7.071  0.00  0.00     0.044 C 
HETATM   24  C   UNK     0      -3.491  -5.191  -8.350  0.00  0.00     0.006 C 
HETATM   25  C   UNK     0      -4.033  -6.538  -7.836  0.00  0.00     0.000 C 
HETATM   26  C   UNK     0      -4.798  -6.219  -6.533  0.00  0.00     0.000 C 
HETATM   27  C   UNK     0      -4.437  -4.767  -6.142  0.00  0.00     0.006 C 
ENDBRANCH  20  23
ENDBRANCH  17  18
ENDBRANCH   2  17
TORSDOF 4
ENDMDL
MODEL 3
REMARK VINA RESULT:      -7.8      2.855      7.627
REMARK  4 active torsions:
REMARK  status: ('A' for Active; 'I' for Inactive)
REMARK    1  A    between atoms: C_9  and  N_13 
REMARK       I    between atoms: N_13  and  C_14 
REMARK    2  A    between atoms: C_14  and  C_17 
REMARK    3  A    between atoms: C_17  and  N_18 
REMARK    4  A    between atoms: C_20  and  C_23 
ROOT
HETATM    1  N   UNK     0      -1.416  -1.728  -8.067  0.00  0.00    -0.205 NA
HETATM    2  C   UNK     0      -2.705  -1.451  -7.708  0.00  0.00     0.281 C 
HETATM    3  O   UNK     0      -2.854  -0.508  -6.898  0.00  0.00    -0.268 OA
ENDROOT
BRANCH   1   4
HETATM    4  C   UNK     0      -1.011  -2.654  -8.945  0.00  0.00     0.146 C 
HETATM    5  C   UNK     0      -0.691  -2.276 -10.207  0.00  0.00     0.162 C 
HETATM    6  C   UNK     0      -0.347  -3.226 -11.177  0.00  0.00     0.217 C 
HETATM    7  N   UNK     0      -0.728  -1.000 -10.570  0.00  0.00    -0.143 N 
HETATM    8  C   UNK     0      -0.510  -4.618 -10.903  0.00  0.00     0.044 A 
HETATM    9  O   UNK     0       0.086  -2.854 -12.295  0.00  0.00    -0.285 OA
HETATM   10  C   UNK     0      -0.437  -5.598 -11.919  0.00  0.00     0.003 A 
HETATM   11  C   UNK     0      -0.784  -5.018  -9.565  0.00  0.00     0.044 A 
HETATM   12  C   UNK     0      -0.633  -6.958 -11.615  0.00  0.00     0.000 A 
HETATM   13  C   UNK     0      -0.874  -7.354 -10.290  0.00  0.00     0.000 A 
HETATM   14  C   UNK     0      -0.941  -6.393  -9.268  0.00  0.00     0.003 A 
HETATM   15  C   UNK     0      -0.927  -4.005  -8.568  0.00  0.00     0.215 C 
HETATM   16  O   UNK     0      -0.994  -4.318  -7.353  0.00  0.00    -0.285 OA
ENDBRANCH   1   4
BRANCH   2  17
HETATM   17  C   UNK     0      -3.933  -2.124  -8.203  0.00  0.00     0.219 C 
BRANCH  17  18
HETATM   18  N   UNK     0      -4.370  -3.160  -7.318  0.00  0.00    -0.221 N 
HETATM   19  C   UNK     0      -4.122  -4.474  -7.436  0.00  0.00     0.114 A 
HETATM   20  C   UNK     0      -4.675  -5.081  -6.321  0.00  0.00     0.101 A 
HETATM   21  N   UNK     0      -5.239  -4.093  -5.606  0.00  0.00    -0.133 NA
HETATM   22  N   UNK     0      -5.045  -2.970  -6.225  0.00  0.00    -0.064 NA
BRANCH  20  23
HETATM   23  C   UNK     0      -4.626  -6.523  -5.976  0.00  0.00     0.044 C 
HETATM   24  C   UNK     0      -4.838  -6.829  -4.475  0.00  0.00     0.006 C 
HETATM   25  C   UNK     0      -4.267  -8.247  -4.287  0.00  0.00     0.000 C 
HETATM   26  C   UNK     0      -3.143  -8.395  -5.336  0.00  0.00     0.000 C 
HETATM   27  C   UNK     0      -3.277  -7.203  -6.311  0.00  0.00     0.006 C 
ENDBRANCH  20  23
ENDBRANCH  17  18
ENDBRANCH   2  17
TORSDOF 4
ENDMDL
MODEL 4
REMARK VINA RESULT:      -7.6      2.084      3.114
REMARK  4 active torsions:
REMARK  status: ('A' for Active; 'I' for Inactive)
REMARK    1  A    between atoms: C_9  and  N_13 
REMARK       I    between atoms: N_13  and  C_14 
REMARK    2  A    between atoms: C_14  and  C_17 
REMARK    3  A    between atoms: C_17  and  N_18 
REMARK    4  A    between atoms: C_20  and  C_23 
ROOT
HETATM    1  N   UNK     0      -4.915  -3.625  -7.309  0.00  0.00    -0.205 NA
HETATM    2  C   UNK     0      -4.435  -2.354  -7.164  0.00  0.00     0.281 C 
HETATM    3  O   UNK     0      -5.219  -1.435  -7.495  0.00  0.00    -0.268 OA
ENDROOT
BRANCH   1   4
HETATM    4  C   UNK     0      -4.285  -4.760  -6.984  0.00  0.00     0.146 C 
HETATM    5  C   UNK     0      -3.418  -5.314  -7.866  0.00  0.00     0.162 C 
HETATM    6  C   UNK     0      -2.806  -6.545  -7.598  0.00  0.00     0.217 C 
HETATM    7  N   UNK     0      -3.152  -4.726  -9.026  0.00  0.00    -0.143 N 
HETATM    8  C   UNK     0      -3.227  -7.322  -6.477  0.00  0.00     0.044 A 
HETATM    9  O   UNK     0      -1.900  -6.973  -8.354  0.00  0.00    -0.285 OA
HETATM   10  C   UNK     0      -2.842  -8.673  -6.311  0.00  0.00     0.003 A 
HETATM   11  C   UNK     0      -4.087  -6.718  -5.517  0.00  0.00     0.044 A 
HETATM   12  C   UNK     0      -3.301  -9.415  -5.208  0.00  0.00     0.000 A 
HETATM   13  C   UNK     0      -4.126  -8.810  -4.246  0.00  0.00     0.000 A 
HETATM   14  C   UNK     0      -4.510  -7.467  -4.393  0.00  0.00     0.003 A 
HETATM   15  C   UNK     0      -4.523  -5.377  -5.744  0.00  0.00     0.215 C 
HETATM   16  O   UNK     0      -5.135  -4.750  -4.844  0.00  0.00    -0.285 OA
ENDBRANCH   1   4
BRANCH   2  17
HETATM   17  C   UNK     0      -3.108  -1.957  -6.627  0.00  0.00     0.219 C 
BRANCH  17  18
HETATM   18  N   UNK     0      -2.325  -1.260  -7.600  0.00  0.00    -0.221 N 
HETATM   19  C   UNK     0      -2.429   0.037  -7.934  0.00  0.00     0.114 A 
HETATM   20  C   UNK     0      -1.428   0.286  -8.860  0.00  0.00     0.101 A 
HETATM   21  N   UNK     0      -0.792  -0.884  -9.039  0.00  0.00    -0.133 NA
HETATM   22  N   UNK     0      -1.350  -1.779  -8.283  0.00  0.00    -0.064 NA
BRANCH  20  23
HETATM   23  C   UNK     0      -1.109   1.587  -9.497  0.00  0.00     0.044 C 
HETATM   24  C   UNK     0       0.128   2.302  -8.905  0.00  0.00     0.006 C 
HETATM   25  C   UNK     0      -0.031   3.770  -9.341  0.00  0.00     0.000 C 
HETATM   26  C   UNK     0      -1.552   4.019  -9.450  0.00  0.00     0.000 C 
HETATM   27  C   UNK     0      -2.241   2.636  -9.382  0.00  0.00     0.006 C 
ENDBRANCH  20  23
ENDBRANCH  17  18
ENDBRANCH   2  17
TORSDOF 4
ENDMDL
MODEL 5
REMARK VINA RESULT:      -7.6      2.225      3.323
REMARK  4 active torsions:
REMARK  status: ('A' for Active; 'I' for Inactive)
REMARK    1  A    between atoms: C_9  and  N_13 
REMARK       I    between atoms: N_13  and  C_14 
REMARK    2  A    between atoms: C_14  and  C_17 
REMARK    3  A    between atoms: C_17  and  N_18 
REMARK    4  A    between atoms: C_20  and  C_23 
ROOT
HETATM    1  N   UNK     0      -3.897  -7.684  -4.358  0.00  0.00    -0.205 NA
HETATM    2  C   UNK     0      -3.706  -7.149  -5.601  0.00  0.00     0.281 C 
HETATM    3  O   UNK     0      -2.527  -7.159  -6.023  0.00  0.00    -0.268 OA
ENDROOT
BRANCH   1   4
HETATM    4  C   UNK     0      -5.064  -7.825  -3.719  0.00  0.00     0.146 C 
HETATM    5  C   UNK     0      -5.768  -8.973  -3.869  0.00  0.00     0.162 C 
HETATM    6  C   UNK     0      -7.033  -9.123  -3.286  0.00  0.00     0.217 C 
HETATM    7  N   UNK     0      -5.298  -9.974  -4.602  0.00  0.00    -0.143 N 
HETATM    8  C   UNK     0      -7.678  -8.002  -2.681  0.00  0.00     0.044 A 
HETATM    9  O   UNK     0      -7.608 -10.238  -3.312  0.00  0.00    -0.285 OA
HETATM   10  C   UNK     0      -9.045  -8.024  -2.322  0.00  0.00     0.003 A 
HETATM   11  C   UNK     0      -6.919  -6.817  -2.467  0.00  0.00     0.044 A 
HETATM   12  C   UNK     0      -9.654  -6.889  -1.756  0.00  0.00     0.000 A 
HETATM   13  C   UNK     0      -8.897  -5.731  -1.517  0.00  0.00     0.000 A 
HETATM   14  C   UNK     0      -7.536  -5.696  -1.861  0.00  0.00     0.003 A 
HETATM   15  C   UNK     0      -5.560  -6.791  -2.906  0.00  0.00     0.215 C 
HETATM   16  O   UNK     0      -4.808  -5.838  -2.581  0.00  0.00    -0.285 OA
ENDBRANCH   1   4
BRANCH   2  17
HETATM   17  C   UNK     0      -4.748  -6.598  -6.505  0.00  0.00     0.219 C 
BRANCH  17  18
HETATM   18  N   UNK     0      -4.767  -5.168  -6.489  0.00  0.00    -0.221 N 
HETATM   19  C   UNK     0      -4.278  -4.349  -7.434  0.00  0.00     0.114 A 
HETATM   20  C   UNK     0      -4.582  -3.058  -7.032  0.00  0.00     0.101 A 
HETATM   21  N   UNK     0      -5.222  -3.180  -5.857  0.00  0.00    -0.133 NA
HETATM   22  N   UNK     0      -5.311  -4.440  -5.562  0.00  0.00    -0.064 NA
BRANCH  20  23
HETATM   23  C   UNK     0      -4.285  -1.804  -7.766  0.00  0.00     0.044 C 
HETATM   24  C   UNK     0      -3.801  -2.013  -9.219  0.00  0.00     0.006 C 
HETATM   25  C   UNK     0      -3.106  -0.689  -9.588  0.00  0.00     0.000 C 
HETATM   26  C   UNK     0      -2.542  -0.122  -8.266  0.00  0.00     0.000 C 
HETATM   27  C   UNK     0      -3.172  -0.946  -7.118  0.00  0.00     0.006 C 
ENDBRANCH  20  23
ENDBRANCH  17  18
ENDBRANCH   2  17
TORSDOF 4
ENDMDL
MODEL 6
REMARK VINA RESULT:      -7.5      2.184      8.411
REMARK  4 active torsions:
REMARK  status: ('A' for Active; 'I' for Inactive)
REMARK    1  A    between atoms: C_9  and  N_13 
REMARK       I    between atoms: N_13  and  C_14 
REMARK    2  A    between atoms: C_14  and  C_17 
REMARK    3  A    between atoms: C_17  and  N_18 
REMARK    4  A    between atoms: C_20  and  C_23 
ROOT
HETATM    1  N   UNK     0      -4.066  -4.994  -8.413  0.00  0.00    -0.205 NA
HETATM    2  C   UNK     0      -4.284  -5.902  -7.416  0.00  0.00     0.281 C 
HETATM    3  O   UNK     0      -5.101  -6.814  -7.679  0.00  0.00    -0.268 OA
ENDROOT
BRANCH   1   4
HETATM    4  C   UNK     0      -3.212  -3.964  -8.384  0.00  0.00     0.146 C 
HETATM    5  C   UNK     0      -3.629  -2.769  -7.900  0.00  0.00     0.162 C 
HETATM    6  C   UNK     0      -2.792  -1.647  -7.933  0.00  0.00     0.217 C 
HETATM    7  N   UNK     0      -4.855  -2.618  -7.414  0.00  0.00    -0.143 N 
HETATM    8  C   UNK     0      -1.556  -1.699  -8.645  0.00  0.00     0.044 A 
HETATM    9  O   UNK     0      -3.137  -0.589  -7.352  0.00  0.00    -0.285 OA
HETATM   10  C   UNK     0      -0.807  -0.536  -8.938  0.00  0.00     0.003 A 
HETATM   11  C   UNK     0      -1.087  -2.964  -9.099  0.00  0.00     0.044 A 
HETATM   12  C   UNK     0       0.392  -0.624  -9.669  0.00  0.00     0.000 A 
HETATM   13  C   UNK     0       0.869  -1.875 -10.090  0.00  0.00     0.000 A 
HETATM   14  C   UNK     0       0.140  -3.041  -9.800  0.00  0.00     0.003 A 
HETATM   15  C   UNK     0      -1.897  -4.116  -8.857  0.00  0.00     0.215 C 
HETATM   16  O   UNK     0      -1.445  -5.265  -9.082  0.00  0.00    -0.285 OA
ENDBRANCH   1   4
BRANCH   2  17
HETATM   17  C   UNK     0      -3.633  -5.936  -6.081  0.00  0.00     0.219 C 
BRANCH  17  18
HETATM   18  N   UNK     0      -4.581  -5.794  -5.019  0.00  0.00    -0.221 N 
HETATM   19  C   UNK     0      -4.695  -6.580  -3.936  0.00  0.00     0.114 A 
HETATM   20  C   UNK     0      -5.695  -6.026  -3.152  0.00  0.00     0.101 A 
HETATM   21  N   UNK     0      -6.133  -4.947  -3.822  0.00  0.00    -0.133 NA
HETATM   22  N   UNK     0      -5.457  -4.841  -4.925  0.00  0.00    -0.064 NA
BRANCH  20  23
HETATM   23  C   UNK     0      -6.160  -6.511  -1.830  0.00  0.00     0.044 C 
HETATM   24  C   UNK     0      -5.913  -8.016  -1.578  0.00  0.00     0.006 C 
HETATM   25  C   UNK     0      -6.879  -8.379  -0.435  0.00  0.00     0.000 C 
HETATM   26  C   UNK     0      -8.088  -7.429  -0.582  0.00  0.00     0.000 C 
HETATM   27  C   UNK     0      -7.680  -6.336  -1.597  0.00  0.00     0.006 C 
ENDBRANCH  20  23
ENDBRANCH  17  18
ENDBRANCH   2  17
TORSDOF 4
ENDMDL
MODEL 7
REMARK VINA RESULT:      -7.5      2.929      8.135
REMARK  4 active torsions:
REMARK  status: ('A' for Active; 'I' for Inactive)
REMARK    1  A    between atoms: C_9  and  N_13 
REMARK       I    between atoms: N_13  and  C_14 
REMARK    2  A    between atoms: C_14  and  C_17 
REMARK    3  A    between atoms: C_17  and  N_18 
REMARK    4  A    between atoms: C_20  and  C_23 
ROOT
HETATM    1  N   UNK     0      -5.061  -6.603  -7.276  0.00  0.00    -0.205 NA
HETATM    2  C   UNK     0      -5.437  -7.410  -6.239  0.00  0.00     0.281 C 
HETATM    3  O   UNK     0      -6.492  -8.062  -6.411  0.00  0.00    -0.268 OA
ENDROOT
BRANCH   1   4
HETATM    4  C   UNK     0      -3.957  -5.850  -7.343  0.00  0.00     0.146 C 
HETATM    5  C   UNK     0      -3.973  -4.601  -6.817  0.00  0.00     0.162 C 
HETATM    6  C   UNK     0      -2.866  -3.752  -6.944  0.00  0.00     0.217 C 
HETATM    7  N   UNK     0      -5.049  -4.133  -6.197  0.00  0.00    -0.143 N 
HETATM    8  C   UNK     0      -1.776  -4.121  -7.789  0.00  0.00     0.044 A 
HETATM    9  O   UNK     0      -2.840  -2.658  -6.329  0.00  0.00    -0.285 OA
HETATM   10  C   UNK     0      -0.770  -3.201  -8.164  0.00  0.00     0.003 A 
HETATM   11  C   UNK     0      -1.727  -5.453  -8.291  0.00  0.00     0.044 A 
HETATM   12  C   UNK     0       0.272  -3.594  -9.024  0.00  0.00     0.000 A 
HETATM   13  C   UNK     0       0.336  -4.916  -9.494  0.00  0.00     0.000 A 
HETATM   14  C   UNK     0      -0.652  -5.843  -9.124  0.00  0.00     0.003 A 
HETATM   15  C   UNK     0      -2.794  -6.343  -7.959  0.00  0.00     0.215 C 
HETATM   16  O   UNK     0      -2.704  -7.566  -8.232  0.00  0.00    -0.285 OA
ENDBRANCH   1   4
BRANCH   2  17
HETATM   17  C   UNK     0      -4.711  -7.615  -4.959  0.00  0.00     0.219 C 
BRANCH  17  18
HETATM   18  N   UNK     0      -5.287  -6.858  -3.890  0.00  0.00    -0.221 N 
HETATM   19  C   UNK     0      -6.497  -7.042  -3.338  0.00  0.00     0.114 A 
HETATM   20  C   UNK     0      -6.598  -6.131  -2.299  0.00  0.00     0.101 A 
HETATM   21  N   UNK     0      -5.445  -5.441  -2.301  0.00  0.00    -0.133 NA
HETATM   22  N   UNK     0      -4.693  -5.892  -3.258  0.00  0.00    -0.064 NA
BRANCH  20  23
HETATM   23  C   UNK     0      -7.735  -5.974  -1.359  0.00  0.00     0.044 C 
HETATM   24  C   UNK     0      -8.031  -7.225  -0.500  0.00  0.00     0.006 C 
HETATM   25  C   UNK     0      -9.476  -7.021  -0.009  0.00  0.00     0.000 C 
HETATM   26  C   UNK     0     -10.185  -6.193  -1.103  0.00  0.00     0.000 C 
HETATM   27  C   UNK     0      -9.084  -5.668  -2.054  0.00  0.00     0.006 C 
ENDBRANCH  20  23
ENDBRANCH  17  18
ENDBRANCH   2  17
TORSDOF 4
ENDMDL
MODEL 8
REMARK VINA RESULT:      -7.4      2.170      8.369
REMARK  4 active torsions:
REMARK  status: ('A' for Active; 'I' for Inactive)
REMARK    1  A    between atoms: C_9  and  N_13 
REMARK       I    between atoms: N_13  and  C_14 
REMARK    2  A    between atoms: C_14  and  C_17 
REMARK    3  A    between atoms: C_17  and  N_18 
REMARK    4  A    between atoms: C_20  and  C_23 
ROOT
HETATM    1  N   UNK     0      -2.602  -3.873  -9.576  0.00  0.00    -0.205 NA
HETATM    2  C   UNK     0      -2.901  -4.875  -8.696  0.00  0.00     0.281 C 
HETATM    3  O   UNK     0      -3.493  -5.867  -9.180  0.00  0.00    -0.268 OA
ENDROOT
BRANCH   1   4
HETATM    4  C   UNK     0      -1.940  -2.742  -9.305  0.00  0.00     0.146 C 
HETATM    5  C   UNK     0      -2.637  -1.603  -9.076  0.00  0.00     0.162 C 
HETATM    6  C   UNK     0      -1.978  -0.384  -8.875  0.00  0.00     0.217 C 
HETATM    7  N   UNK     0      -3.964  -1.602  -9.071  0.00  0.00    -0.143 N 
HETATM    8  C   UNK     0      -0.570  -0.289  -9.093  0.00  0.00     0.044 A 
HETATM    9  O   UNK     0      -2.628   0.631  -8.522  0.00  0.00    -0.285 OA
HETATM   10  C   UNK     0       0.097   0.956  -9.167  0.00  0.00     0.003 A 
HETATM   11  C   UNK     0       0.172  -1.490  -9.271  0.00  0.00     0.044 A 
HETATM   12  C   UNK     0       1.481   1.010  -9.413  0.00  0.00     0.000 A 
HETATM   13  C   UNK     0       2.217  -0.176  -9.559  0.00  0.00     0.000 A 
HETATM   14  C   UNK     0       1.570  -1.421  -9.479  0.00  0.00     0.003 A 
HETATM   15  C   UNK     0      -0.535  -2.732  -9.266  0.00  0.00     0.215 C 
HETATM   16  O   UNK     0       0.096  -3.818  -9.244  0.00  0.00    -0.285 OA
ENDBRANCH   1   4
BRANCH   2  17
HETATM   17  C   UNK     0      -2.569  -4.921  -7.249  0.00  0.00     0.219 C 
BRANCH  17  18
HETATM   18  N   UNK     0      -3.738  -4.847  -6.429  0.00  0.00    -0.221 N 
HETATM   19  C   UNK     0      -4.275  -5.844  -5.707  0.00  0.00     0.114 A 
HETATM   20  C   UNK     0      -5.349  -5.298  -5.021  0.00  0.00     0.101 A 
HETATM   21  N   UNK     0      -5.402  -4.007  -5.387  0.00  0.00    -0.133 NA
HETATM   22  N   UNK     0      -4.438  -3.773  -6.224  0.00  0.00    -0.064 NA
BRANCH  20  23
HETATM   23  C   UNK     0      -6.236  -5.995  -4.057  0.00  0.00     0.044 C 
HETATM   24  C   UNK     0      -7.310  -5.091  -3.409  0.00  0.00     0.006 C 
HETATM   25  C   UNK     0      -7.747  -5.856  -2.146  0.00  0.00     0.000 C 
HETATM   26  C   UNK     0      -6.513  -6.669  -1.695  0.00  0.00     0.000 C 
HETATM   27  C   UNK     0      -5.489  -6.614  -2.852  0.00  0.00     0.006 C 
ENDBRANCH  20  23
ENDBRANCH  17  18
ENDBRANCH   2  17
TORSDOF 4
ENDMDL
MODEL 9
REMARK VINA RESULT:      -7.4      1.744      2.123
REMARK  4 active torsions:
REMARK  status: ('A' for Active; 'I' for Inactive)
REMARK    1  A    between atoms: C_9  and  N_13 
REMARK       I    between atoms: N_13  and  C_14 
REMARK    2  A    between atoms: C_14  and  C_17 
REMARK    3  A    between atoms: C_17  and  N_18 
REMARK    4  A    between atoms: C_20  and  C_23 
ROOT
HETATM    1  N   UNK     0      -4.329  -5.224  -7.711  0.00  0.00    -0.205 NA
HETATM    2  C   UNK     0      -3.403  -4.309  -8.127  0.00  0.00     0.281 C 
HETATM    3  O   UNK     0      -3.600  -3.811  -9.260  0.00  0.00    -0.268 OA
ENDROOT
BRANCH   1   4
HETATM    4  C   UNK     0      -4.355  -5.854  -6.530  0.00  0.00     0.146 C 
HETATM    5  C   UNK     0      -3.706  -7.035  -6.393  0.00  0.00     0.162 C 
HETATM    6  C   UNK     0      -3.783  -7.765  -5.201  0.00  0.00     0.217 C 
HETATM    7  N   UNK     0      -3.008  -7.553  -7.396  0.00  0.00    -0.143 N 
HETATM    8  C   UNK     0      -4.696  -7.367  -4.178  0.00  0.00     0.044 A 
HETATM    9  O   UNK     0      -3.062  -8.780  -5.038  0.00  0.00    -0.285 OA
HETATM   10  C   UNK     0      -5.009  -8.204  -3.082  0.00  0.00     0.003 A 
HETATM   11  C   UNK     0      -5.330  -6.098  -4.291  0.00  0.00     0.044 A 
HETATM   12  C   UNK     0      -5.937  -7.790  -2.109  0.00  0.00     0.000 A 
HETATM   13  C   UNK     0      -6.540  -6.526  -2.206  0.00  0.00     0.000 A 
HETATM   14  C   UNK     0      -6.233  -5.679  -3.284  0.00  0.00     0.003 A 
HETATM   15  C   UNK     0      -5.056  -5.301  -5.444  0.00  0.00     0.215 C 
HETATM   16  O   UNK     0      -5.453  -4.111  -5.500  0.00  0.00    -0.285 OA
ENDBRANCH   1   4
BRANCH   2  17
HETATM   17  C   UNK     0      -2.222  -3.824  -7.367  0.00  0.00     0.219 C 
BRANCH  17  18
HETATM   18  N   UNK     0      -1.691  -2.616  -7.918  0.00  0.00    -0.221 N 
HETATM   19  C   UNK     0      -0.671  -2.510  -8.785  0.00  0.00     0.114 A 
HETATM   20  C   UNK     0      -0.555  -1.164  -9.093  0.00  0.00     0.101 A 
HETATM   21  N   UNK     0      -1.505  -0.539  -8.378  0.00  0.00    -0.133 NA
HETATM   22  N   UNK     0      -2.156  -1.425  -7.689  0.00  0.00    -0.064 NA
BRANCH  20  23
HETATM   23  C   UNK     0       0.403  -0.548 -10.043  0.00  0.00     0.044 C 
HETATM   24  C   UNK     0       0.636  -1.364 -11.336  0.00  0.00     0.006 C 
HETATM   25  C   UNK     0       1.967  -0.828 -11.896  0.00  0.00     0.000 C 
HETATM   26  C   UNK     0       2.788  -0.368 -10.671  0.00  0.00     0.000 C 
HETATM   27  C   UNK     0       1.824  -0.352  -9.462  0.00  0.00     0.006 C 
ENDBRANCH  20  23
ENDBRANCH  17  18
ENDBRANCH   2  17
TORSDOF 4
ENDMDL
