MODEL 1
REMARK VINA RESULT:      -7.2      0.000      0.000
REMARK  6 active torsions:
REMARK  status: ('A' for Active; 'I' for Inactive)
REMARK    1  A    between atoms: C_9  and  N_13 
REMARK       I    between atoms: N_13  and  C_14 
REMARK    2  A    between atoms: C_14  and  C_17 
REMARK    3  A    between atoms: C_17  and  N_18 
REMARK    4  A    between atoms: C_20  and  C_23 
REMARK    5  A    between atoms: C_23  and  C_25 
REMARK    6  A    between atoms: C_25  and  C_26 
ROOT
HETATM    1  N   UNK     0      -4.342  -5.558  -7.644  0.00  0.00    -0.205 NA
HETATM    2  C   UNK     0      -3.349  -4.759  -8.135  0.00  0.00     0.281 C 
HETATM    3  O   UNK     0      -3.420  -4.485  -9.354  0.00  0.00    -0.268 OA
ENDROOT
BRANCH   1   4
HETATM    4  C   UNK     0      -4.453  -5.972  -6.377  0.00  0.00     0.146 C 
HETATM    5  C   UNK     0      -3.916  -7.161  -6.015  0.00  0.00     0.162 C 
HETATM    6  C   UNK     0      -4.133  -7.674  -4.725  0.00  0.00     0.217 C 
HETATM    7  N   UNK     0      -3.212  -7.874  -6.894  0.00  0.00    -0.143 N 
HETATM    8  C   UNK     0      -5.077  -7.039  -3.852  0.00  0.00     0.044 A 
HETATM    9  O   UNK     0      -3.541  -8.719  -4.360  0.00  0.00    -0.285 OA
HETATM   10  C   UNK     0      -5.521  -7.640  -2.647  0.00  0.00     0.003 A 
HETATM   11  C   UNK     0      -5.609  -5.775  -4.233  0.00  0.00     0.044 A 
HETATM   12  C   UNK     0      -6.507  -7.019  -1.860  0.00  0.00     0.000 A 
HETATM   13  C   UNK     0      -7.048  -5.783  -2.253  0.00  0.00     0.000 A 
HETATM   14  C   UNK     0      -6.596  -5.157  -3.428  0.00  0.00     0.003 A 
HETATM   15  C   UNK     0      -5.149  -5.186  -5.446  0.00  0.00     0.215 C 
HETATM   16  O   UNK     0      -5.378  -3.979  -5.698  0.00  0.00    -0.285 OA
ENDBRANCH   1   4
BRANCH   2  17
HETATM   17  C   UNK     0      -2.224  -4.166  -7.365  0.00  0.00     0.219 C 
BRANCH  17  18
HETATM   18  N   UNK     0      -2.225  -2.741  -7.452  0.00  0.00    -0.221 N 
HETATM   19  C   UNK     0      -1.739  -1.998  -8.461  0.00  0.00     0.114 A 
HETATM   20  C   UNK     0      -1.948  -0.673  -8.107  0.00  0.00     0.101 A 
HETATM   21  N   UNK     0      -2.564  -0.705  -6.914  0.00  0.00    -0.133 NA
HETATM   22  N   UNK     0      -2.717  -1.942  -6.555  0.00  0.00    -0.064 NA
BRANCH  20  23
HETATM   23  C   UNK     0      -1.544   0.544  -8.860  0.00  0.00     0.044 C 
HETATM   24  C   UNK     0      -0.625   0.161 -10.052  0.00  0.00     0.006 C 
BRANCH  23  25
HETATM   25  C   UNK     0      -2.781   1.367  -9.341  0.00  0.00     0.006 C 
BRANCH  25  26
HETATM   26  C   UNK     0      -3.880   0.497 -10.016  0.00  0.00     0.000 C 
HETATM   27  C   UNK     0      -4.005   0.739 -11.535  0.00  0.00     0.000 C 
ENDBRANCH  25  26
ENDBRANCH  23  25
ENDBRANCH  20  23
ENDBRANCH  17  18
ENDBRANCH   2  17
TORSDOF 6
ENDMDL
MODEL 2
REMARK VINA RESULT:      -7.2      2.154      3.248
REMARK  6 active torsions:
REMARK  status: ('A' for Active; 'I' for Inactive)
REMARK    1  A    between atoms: C_9  and  N_13 
REMARK       I    between atoms: N_13  and  C_14 
REMARK    2  A    between atoms: C_14  and  C_17 
REMARK    3  A    between atoms: C_17  and  N_18 
REMARK    4  A    between atoms: C_20  and  C_23 
REMARK    5  A    between atoms: C_23  and  C_25 
REMARK    6  A    between atoms: C_25  and  C_26 
ROOT
HETATM    1  N   UNK     0      -4.927  -4.408  -6.934  0.00  0.00    -0.205 NA
HETATM    2  C   UNK     0      -4.381  -3.156  -6.914  0.00  0.00     0.281 C 
HETATM    3  O   UNK     0      -5.134  -2.224  -7.278  0.00  0.00    -0.268 OA
ENDROOT
BRANCH   1   4
HETATM    4  C   UNK     0      -4.298  -5.536  -6.590  0.00  0.00     0.146 C 
HETATM    5  C   UNK     0      -3.544  -6.186  -7.509  0.00  0.00     0.162 C 
HETATM    6  C   UNK     0      -2.982  -7.438  -7.208  0.00  0.00     0.217 C 
HETATM    7  N   UNK     0      -3.364  -5.661  -8.720  0.00  0.00    -0.143 N 
HETATM    8  C   UNK     0      -3.359  -8.121  -6.005  0.00  0.00     0.044 A 
HETATM    9  O   UNK     0      -2.194  -7.981  -8.020  0.00  0.00    -0.285 OA
HETATM   10  C   UNK     0      -3.025  -9.478  -5.765  0.00  0.00     0.003 A 
HETATM   11  C   UNK     0      -4.126  -7.414  -5.035  0.00  0.00     0.044 A 
HETATM   12  C   UNK     0      -3.482 -10.132  -4.607  0.00  0.00     0.000 A 
HETATM   13  C   UNK     0      -4.261  -9.439  -3.665  0.00  0.00     0.000 A 
HETATM   14  C   UNK     0      -4.574  -8.083  -3.871  0.00  0.00     0.003 A 
HETATM   15  C   UNK     0      -4.450  -6.052  -5.294  0.00  0.00     0.215 C 
HETATM   16  O   UNK     0      -4.889  -5.314  -4.379  0.00  0.00    -0.285 OA
ENDBRANCH   1   4
BRANCH   2  17
HETATM   17  C   UNK     0      -3.006  -2.794  -6.481  0.00  0.00     0.219 C 
BRANCH  17  18
HETATM   18  N   UNK     0      -2.391  -1.887  -7.396  0.00  0.00    -0.221 N 
HETATM   19  C   UNK     0      -1.777  -2.204  -8.549  0.00  0.00     0.114 A 
HETATM   20  C   UNK     0      -1.328  -1.010  -9.093  0.00  0.00     0.101 A 
HETATM   21  N   UNK     0      -1.719  -0.048  -8.242  0.00  0.00    -0.133 NA
HETATM   22  N   UNK     0      -2.348  -0.598  -7.250  0.00  0.00    -0.064 NA
BRANCH  20  23
HETATM   23  C   UNK     0      -0.541  -0.817 -10.340  0.00  0.00     0.044 C 
HETATM   24  C   UNK     0      -0.300   0.696 -10.598  0.00  0.00     0.006 C 
BRANCH  23  25
HETATM   25  C   UNK     0       0.807  -1.606 -10.304  0.00  0.00     0.006 C 
BRANCH  25  26
HETATM   26  C   UNK     0       1.748  -1.172  -9.144  0.00  0.00     0.000 C 
HETATM   27  C   UNK     0       3.034  -0.469  -9.629  0.00  0.00     0.000 C 
ENDBRANCH  25  26
ENDBRANCH  23  25
ENDBRANCH  20  23
ENDBRANCH  17  18
ENDBRANCH   2  17
TORSDOF 6
ENDMDL
MODEL 3
REMARK VINA RESULT:      -7.1      0.814      1.779
REMARK  6 active torsions:
REMARK  status: ('A' for Active; 'I' for Inactive)
REMARK    1  A    between atoms: C_9  and  N_13 
REMARK       I    between atoms: N_13  and  C_14 
REMARK    2  A    between atoms: C_14  and  C_17 
REMARK    3  A    between atoms: C_17  and  N_18 
REMARK    4  A    between atoms: C_20  and  C_23 
REMARK    5  A    between atoms: C_23  and  C_25 
REMARK    6  A    between atoms: C_25  and  C_26 
ROOT
HETATM    1  N   UNK     0      -4.181  -5.386  -7.890  0.00  0.00    -0.205 NA
HETATM    2  C   UNK     0      -3.228  -4.519  -8.344  0.00  0.00     0.281 C 
HETATM    3  O   UNK     0      -3.296  -4.214  -9.556  0.00  0.00    -0.268 OA
ENDROOT
BRANCH   1   4
HETATM    4  C   UNK     0      -4.287  -5.841  -6.638  0.00  0.00     0.146 C 
HETATM    5  C   UNK     0      -3.719  -7.026  -6.309  0.00  0.00     0.162 C 
HETATM    6  C   UNK     0      -3.928  -7.583  -5.037  0.00  0.00     0.217 C 
HETATM    7  N   UNK     0      -2.991  -7.692  -7.205  0.00  0.00    -0.143 N 
HETATM    8  C   UNK     0      -4.893  -7.001  -4.150  0.00  0.00     0.044 A 
HETATM    9  O   UNK     0      -3.309  -8.623  -4.700  0.00  0.00    -0.285 OA
HETATM   10  C   UNK     0      -5.326  -7.651  -2.966  0.00  0.00     0.003 A 
HETATM   11  C   UNK     0      -5.458  -5.741  -4.495  0.00  0.00     0.044 A 
HETATM   12  C   UNK     0      -6.332  -7.081  -2.166  0.00  0.00     0.000 A 
HETATM   13  C   UNK     0      -6.906  -5.849  -2.524  0.00  0.00     0.000 A 
HETATM   14  C   UNK     0      -6.465  -5.175  -3.677  0.00  0.00     0.003 A 
HETATM   15  C   UNK     0      -5.009  -5.103  -5.687  0.00  0.00     0.215 C 
HETATM   16  O   UNK     0      -5.270  -3.896  -5.904  0.00  0.00    -0.285 OA
ENDBRANCH   1   4
BRANCH   2  17
HETATM   17  C   UNK     0      -2.148  -3.887  -7.540  0.00  0.00     0.219 C 
BRANCH  17  18
HETATM   18  N   UNK     0      -2.138  -2.468  -7.703  0.00  0.00    -0.221 N 
HETATM   19  C   UNK     0      -1.617  -1.783  -8.735  0.00  0.00     0.114 A 
HETATM   20  C   UNK     0      -1.828  -0.440  -8.459  0.00  0.00     0.101 A 
HETATM   21  N   UNK     0      -2.482  -0.405  -7.285  0.00  0.00    -0.133 NA
HETATM   22  N   UNK     0      -2.652  -1.621  -6.866  0.00  0.00    -0.064 NA
BRANCH  20  23
HETATM   23  C   UNK     0      -1.395   0.733  -9.261  0.00  0.00     0.044 C 
HETATM   24  C   UNK     0      -2.499   1.826  -9.259  0.00  0.00     0.006 C 
BRANCH  23  25
HETATM   25  C   UNK     0      -0.030   1.307  -8.763  0.00  0.00     0.006 C 
BRANCH  25  26
HETATM   26  C   UNK     0       1.180   0.877  -9.640  0.00  0.00     0.000 C 
HETATM   27  C   UNK     0       1.870  -0.411  -9.141  0.00  0.00     0.000 C 
ENDBRANCH  25  26
ENDBRANCH  23  25
ENDBRANCH  20  23
ENDBRANCH  17  18
ENDBRANCH   2  17
TORSDOF 6
ENDMDL
MODEL 4
REMARK VINA RESULT:      -6.9      3.363      8.064
REMARK  6 active torsions:
REMARK  status: ('A' for Active; 'I' for Inactive)
REMARK    1  A    between atoms: C_9  and  N_13 
REMARK       I    between atoms: N_13  and  C_14 
REMARK    2  A    between atoms: C_14  and  C_17 
REMARK    3  A    between atoms: C_17  and  N_18 
REMARK    4  A    between atoms: C_20  and  C_23 
REMARK    5  A    between atoms: C_23  and  C_25 
REMARK    6  A    between atoms: C_25  and  C_26 
ROOT
HETATM    1  N   UNK     0      -3.358  -0.510  -9.351  0.00  0.00    -0.205 NA
HETATM    2  C   UNK     0      -3.866  -0.843  -8.128  0.00  0.00     0.281 C 
HETATM    3  O   UNK     0      -5.109  -0.759  -8.009  0.00  0.00    -0.268 OA
ENDROOT
BRANCH   1   4
HETATM    4  C   UNK     0      -2.065  -0.527  -9.688  0.00  0.00     0.146 C 
HETATM    5  C   UNK     0      -1.541  -1.635 -10.265  0.00  0.00     0.162 C 
HETATM    6  C   UNK     0      -0.160  -1.722 -10.507  0.00  0.00     0.217 C 
HETATM    7  N   UNK     0      -2.327  -2.668 -10.568  0.00  0.00    -0.143 N 
HETATM    8  C   UNK     0       0.725  -0.727  -9.975  0.00  0.00     0.044 A 
HETATM    9  O   UNK     0       0.303  -2.702 -11.142  0.00  0.00    -0.285 OA
HETATM   10  C   UNK     0       2.134  -0.886  -9.972  0.00  0.00     0.003 A 
HETATM   11  C   UNK     0       0.159   0.446  -9.400  0.00  0.00     0.044 A 
HETATM   12  C   UNK     0       2.960   0.078  -9.369  0.00  0.00     0.000 A 
HETATM   13  C   UNK     0       2.396   1.222  -8.779  0.00  0.00     0.000 A 
HETATM   14  C   UNK     0       1.003   1.412  -8.802  0.00  0.00     0.003 A 
HETATM   15  C   UNK     0      -1.259   0.589  -9.415  0.00  0.00     0.215 C 
HETATM   16  O   UNK     0      -1.792   1.696  -9.165  0.00  0.00    -0.285 OA
ENDBRANCH   1   4
BRANCH   2  17
HETATM   17  C   UNK     0      -3.097  -1.317  -6.947  0.00  0.00     0.219 C 
BRANCH  17  18
HETATM   18  N   UNK     0      -3.228  -2.728  -6.770  0.00  0.00    -0.221 N 
HETATM   19  C   UNK     0      -2.374  -3.673  -7.201  0.00  0.00     0.114 A 
HETATM   20  C   UNK     0      -2.912  -4.891  -6.812  0.00  0.00     0.101 A 
HETATM   21  N   UNK     0      -4.046  -4.599  -6.154  0.00  0.00    -0.133 NA
HETATM   22  N   UNK     0      -4.203  -3.311  -6.144  0.00  0.00    -0.064 NA
BRANCH  20  23
HETATM   23  C   UNK     0      -2.379  -6.251  -7.090  0.00  0.00     0.044 C 
HETATM   24  C   UNK     0      -3.044  -7.294  -6.150  0.00  0.00     0.006 C 
BRANCH  23  25
HETATM   25  C   UNK     0      -2.555  -6.649  -8.590  0.00  0.00     0.006 C 
BRANCH  25  26
HETATM   26  C   UNK     0      -1.214  -6.987  -9.302  0.00  0.00     0.000 C 
HETATM   27  C   UNK     0      -0.307  -5.756  -9.515  0.00  0.00     0.000 C 
ENDBRANCH  25  26
ENDBRANCH  23  25
ENDBRANCH  20  23
ENDBRANCH  17  18
ENDBRANCH   2  17
TORSDOF 6
ENDMDL
MODEL 5
REMARK VINA RESULT:      -6.9      2.828      7.559
REMARK  6 active torsions:
REMARK  status: ('A' for Active; 'I' for Inactive)
REMARK    1  A    between atoms: C_9  and  N_13 
REMARK       I    between atoms: N_13  and  C_14 
REMARK    2  A    between atoms: C_14  and  C_17 
REMARK    3  A    between atoms: C_17  and  N_18 
REMARK    4  A    between atoms: C_20  and  C_23 
REMARK    5  A    between atoms: C_23  and  C_25 
REMARK    6  A    between atoms: C_25  and  C_26 
ROOT
HETATM    1  N   UNK     0      -1.383  -1.656  -8.105  0.00  0.00    -0.205 NA
HETATM    2  C   UNK     0      -2.689  -1.445  -7.768  0.00  0.00     0.281 C 
HETATM    3  O   UNK     0      -2.901  -0.527  -6.944  0.00  0.00    -0.268 OA
ENDROOT
BRANCH   1   4
HETATM    4  C   UNK     0      -0.940  -2.583  -8.960  0.00  0.00     0.146 C 
HETATM    5  C   UNK     0      -0.592  -2.220 -10.217  0.00  0.00     0.162 C 
HETATM    6  C   UNK     0      -0.249  -3.194 -11.169  0.00  0.00     0.217 C 
HETATM    7  N   UNK     0      -0.613  -0.935 -10.573  0.00  0.00    -0.143 N 
HETATM    8  C   UNK     0      -0.449  -4.584 -10.874  0.00  0.00     0.044 A 
HETATM    9  O   UNK     0       0.180  -2.846 -12.296  0.00  0.00    -0.285 OA
HETATM   10  C   UNK     0      -0.358  -5.592 -11.866  0.00  0.00     0.003 A 
HETATM   11  C   UNK     0      -0.784  -4.953  -9.540  0.00  0.00     0.044 A 
HETATM   12  C   UNK     0      -0.638  -6.933 -11.550  0.00  0.00     0.000 A 
HETATM   13  C   UNK     0      -0.994  -7.289 -10.239  0.00  0.00     0.000 A 
HETATM   14  C   UNK     0      -1.058  -6.307  -9.234  0.00  0.00     0.003 A 
HETATM   15  C   UNK     0      -0.869  -3.926  -8.557  0.00  0.00     0.215 C 
HETATM   16  O   UNK     0      -0.901  -4.211  -7.335  0.00  0.00    -0.285 OA
ENDBRANCH   1   4
BRANCH   2  17
HETATM   17  C   UNK     0      -3.872  -2.173  -8.298  0.00  0.00     0.219 C 
BRANCH  17  18
HETATM   18  N   UNK     0      -4.284  -3.216  -7.415  0.00  0.00    -0.221 N 
HETATM   19  C   UNK     0      -4.132  -4.538  -7.609  0.00  0.00     0.114 A 
HETATM   20  C   UNK     0      -4.687  -5.161  -6.501  0.00  0.00     0.101 A 
HETATM   21  N   UNK     0      -5.120  -4.172  -5.702  0.00  0.00    -0.133 NA
HETATM   22  N   UNK     0      -4.864  -3.034  -6.269  0.00  0.00    -0.064 NA
BRANCH  20  23
HETATM   23  C   UNK     0      -4.821  -6.620  -6.250  0.00  0.00     0.044 C 
HETATM   24  C   UNK     0      -4.357  -7.427  -7.495  0.00  0.00     0.006 C 
BRANCH  23  25
HETATM   25  C   UNK     0      -4.046  -7.064  -4.969  0.00  0.00     0.006 C 
BRANCH  25  26
HETATM   26  C   UNK     0      -4.977  -7.475  -3.793  0.00  0.00     0.000 C 
HETATM   27  C   UNK     0      -5.239  -6.330  -2.791  0.00  0.00     0.000 C 
ENDBRANCH  25  26
ENDBRANCH  23  25
ENDBRANCH  20  23
ENDBRANCH  17  18
ENDBRANCH   2  17
TORSDOF 6
ENDMDL
MODEL 6
REMARK VINA RESULT:      -6.8      2.631      4.389
REMARK  6 active torsions:
REMARK  status: ('A' for Active; 'I' for Inactive)
REMARK    1  A    between atoms: C_9  and  N_13 
REMARK       I    between atoms: N_13  and  C_14 
REMARK    2  A    between atoms: C_14  and  C_17 
REMARK    3  A    between atoms: C_17  and  N_18 
REMARK    4  A    between atoms: C_20  and  C_23 
REMARK    5  A    between atoms: C_23  and  C_25 
REMARK    6  A    between atoms: C_25  and  C_26 
ROOT
HETATM    1  N   UNK     0      -3.973  -2.093  -9.306  0.00  0.00    -0.205 NA
HETATM    2  C   UNK     0      -3.669  -0.773  -9.131  0.00  0.00     0.281 C 
HETATM    3  O   UNK     0      -4.155   0.017  -9.973  0.00  0.00    -0.268 OA
ENDROOT
BRANCH   1   4
HETATM    4  C   UNK     0      -3.557  -3.096  -8.527  0.00  0.00     0.146 C 
HETATM    5  C   UNK     0      -2.493  -3.841  -8.911  0.00  0.00     0.162 C 
HETATM    6  C   UNK     0      -2.121  -4.979  -8.176  0.00  0.00     0.217 C 
HETATM    7  N   UNK     0      -1.817  -3.524 -10.015  0.00  0.00    -0.143 N 
HETATM    8  C   UNK     0      -2.974  -5.466  -7.131  0.00  0.00     0.044 A 
HETATM    9  O   UNK     0      -1.069  -5.598  -8.471  0.00  0.00    -0.285 OA
HETATM   10  C   UNK     0      -2.783  -6.733  -6.524  0.00  0.00     0.003 A 
HETATM   11  C   UNK     0      -4.070  -4.657  -6.717  0.00  0.00     0.044 A 
HETATM   12  C   UNK     0      -3.690  -7.206  -5.559  0.00  0.00     0.000 A 
HETATM   13  C   UNK     0      -4.785  -6.415  -5.172  0.00  0.00     0.000 A 
HETATM   14  C   UNK     0      -4.971  -5.142  -5.740  0.00  0.00     0.003 A 
HETATM   15  C   UNK     0      -4.243  -3.387  -7.338  0.00  0.00     0.215 C 
HETATM   16  O   UNK     0      -5.019  -2.534  -6.843  0.00  0.00    -0.285 OA
ENDBRANCH   1   4
BRANCH   2  17
HETATM   17  C   UNK     0      -2.853  -0.186  -8.036  0.00  0.00     0.219 C 
BRANCH  17  18
HETATM   18  N   UNK     0      -1.542   0.156  -8.486  0.00  0.00    -0.221 N 
HETATM   19  C   UNK     0      -1.089   1.388  -8.776  0.00  0.00     0.114 A 
HETATM   20  C   UNK     0       0.229   1.235  -9.178  0.00  0.00     0.101 A 
HETATM   21  N   UNK     0       0.491  -0.079  -9.086  0.00  0.00    -0.133 NA
HETATM   22  N   UNK     0      -0.575  -0.690  -8.671  0.00  0.00    -0.064 NA
BRANCH  20  23
HETATM   23  C   UNK     0       1.163   2.289  -9.655  0.00  0.00     0.044 C 
HETATM   24  C   UNK     0       0.379   3.414 -10.386  0.00  0.00     0.006 C 
BRANCH  23  25
HETATM   25  C   UNK     0       2.030   2.868  -8.492  0.00  0.00     0.006 C 
BRANCH  25  26
HETATM   26  C   UNK     0       1.391   4.105  -7.800  0.00  0.00     0.000 C 
HETATM   27  C   UNK     0       1.704   4.192  -6.291  0.00  0.00     0.000 C 
ENDBRANCH  25  26
ENDBRANCH  23  25
ENDBRANCH  20  23
ENDBRANCH  17  18
ENDBRANCH   2  17
TORSDOF 6
ENDMDL
MODEL 7
REMARK VINA RESULT:      -6.8      2.193      8.320
REMARK  6 active torsions:
REMARK  status: ('A' for Active; 'I' for Inactive)
REMARK    1  A    between atoms: C_9  and  N_13 
REMARK       I    between atoms: N_13  and  C_14 
REMARK    2  A    between atoms: C_14  and  C_17 
REMARK    3  A    between atoms: C_17  and  N_18 
REMARK    4  A    between atoms: C_20  and  C_23 
REMARK    5  A    between atoms: C_23  and  C_25 
REMARK    6  A    between atoms: C_25  and  C_26 
ROOT
HETATM    1  N   UNK     0      -4.331  -5.245  -8.083  0.00  0.00    -0.205 NA
HETATM    2  C   UNK     0      -4.529  -6.137  -7.069  0.00  0.00     0.281 C 
HETATM    3  O   UNK     0      -5.415  -7.000  -7.263  0.00  0.00    -0.268 OA
ENDROOT
BRANCH   1   4
HETATM    4  C   UNK     0      -3.442  -4.247  -8.080  0.00  0.00     0.146 C 
HETATM    5  C   UNK     0      -3.800  -3.038  -7.586  0.00  0.00     0.162 C 
HETATM    6  C   UNK     0      -2.926  -1.942  -7.692  0.00  0.00     0.217 C 
HETATM    7  N   UNK     0      -5.001  -2.868  -7.034  0.00  0.00    -0.143 N 
HETATM    8  C   UNK     0      -1.738  -2.048  -8.488  0.00  0.00     0.044 A 
HETATM    9  O   UNK     0      -3.216  -0.855  -7.134  0.00  0.00    -0.285 OA
HETATM   10  C   UNK     0      -0.952  -0.920  -8.833  0.00  0.00     0.003 A 
HETATM   11  C   UNK     0      -1.359  -3.332  -8.973  0.00  0.00     0.044 A 
HETATM   12  C   UNK     0       0.161  -1.058  -9.681  0.00  0.00     0.000 A 
HETATM   13  C   UNK     0       0.517  -2.322 -10.179  0.00  0.00     0.000 A 
HETATM   14  C   UNK     0      -0.232  -3.457  -9.820  0.00  0.00     0.003 A 
HETATM   15  C   UNK     0      -2.160  -4.453  -8.613  0.00  0.00     0.215 C 
HETATM   16  O   UNK     0      -1.740  -5.622  -8.788  0.00  0.00    -0.285 OA
ENDBRANCH   1   4
BRANCH   2  17
HETATM   17  C   UNK     0      -3.784  -6.201  -5.784  0.00  0.00     0.219 C 
BRANCH  17  18
HETATM   18  N   UNK     0      -4.656  -6.040  -4.665  0.00  0.00    -0.221 N 
HETATM   19  C   UNK     0      -4.764  -6.863  -3.608  0.00  0.00     0.114 A 
HETATM   20  C   UNK     0      -5.736  -6.315  -2.783  0.00  0.00     0.101 A 
HETATM   21  N   UNK     0      -6.137  -5.185  -3.389  0.00  0.00    -0.133 NA
HETATM   22  N   UNK     0      -5.477  -5.049  -4.498  0.00  0.00    -0.064 NA
BRANCH  20  23
HETATM   23  C   UNK     0      -6.267  -6.868  -1.510  0.00  0.00     0.044 C 
HETATM   24  C   UNK     0      -7.795  -6.612  -1.405  0.00  0.00     0.006 C 
BRANCH  23  25
HETATM   25  C   UNK     0      -5.937  -8.387  -1.352  0.00  0.00     0.006 C 
BRANCH  25  26
HETATM   26  C   UNK     0      -7.067  -9.323  -1.866  0.00  0.00     0.000 C 
HETATM   27  C   UNK     0      -6.691 -10.087  -3.153  0.00  0.00     0.000 C 
ENDBRANCH  25  26
ENDBRANCH  23  25
ENDBRANCH  20  23
ENDBRANCH  17  18
ENDBRANCH   2  17
TORSDOF 6
ENDMDL
MODEL 8
REMARK VINA RESULT:      -6.7      2.926      7.782
REMARK  6 active torsions:
REMARK  status: ('A' for Active; 'I' for Inactive)
REMARK    1  A    between atoms: C_9  and  N_13 
REMARK       I    between atoms: N_13  and  C_14 
REMARK    2  A    between atoms: C_14  and  C_17 
REMARK    3  A    between atoms: C_17  and  N_18 
REMARK    4  A    between atoms: C_20  and  C_23 
REMARK    5  A    between atoms: C_23  and  C_25 
REMARK    6  A    between atoms: C_25  and  C_26 
ROOT
HETATM    1  N   UNK     0      -1.578  -1.799  -8.065  0.00  0.00    -0.205 NA
HETATM    2  C   UNK     0      -2.804  -1.451  -7.575  0.00  0.00     0.281 C 
HETATM    3  O   UNK     0      -2.812  -0.548  -6.707  0.00  0.00    -0.268 OA
ENDROOT
BRANCH   1   4
HETATM    4  C   UNK     0      -1.347  -2.736  -8.990  0.00  0.00     0.146 C 
HETATM    5  C   UNK     0      -1.117  -4.013  -8.602  0.00  0.00     0.162 C 
HETATM    6  C   UNK     0      -0.744  -4.985  -9.545  0.00  0.00     0.217 C 
HETATM    7  N   UNK     0      -1.202  -4.347  -7.314  0.00  0.00    -0.143 N 
HETATM    8  C   UNK     0      -0.418  -4.593 -10.886  0.00  0.00     0.044 A 
HETATM    9  O   UNK     0      -0.642  -6.187  -9.198  0.00  0.00    -0.285 OA
HETATM   10  C   UNK     0       0.196  -5.477 -11.808  0.00  0.00     0.003 A 
HETATM   11  C   UNK     0      -0.695  -3.255 -11.288  0.00  0.00     0.044 A 
HETATM   12  C   UNK     0       0.570  -5.029 -13.087  0.00  0.00     0.000 A 
HETATM   13  C   UNK     0       0.319  -3.701 -13.470  0.00  0.00     0.000 A 
HETATM   14  C   UNK     0      -0.319  -2.819 -12.581  0.00  0.00     0.003 A 
HETATM   15  C   UNK     0      -1.314  -2.382 -10.348  0.00  0.00     0.215 C 
HETATM   16  O   UNK     0      -1.812  -1.292 -10.719  0.00  0.00    -0.285 OA
ENDBRANCH   1   4
BRANCH   2  17
HETATM   17  C   UNK     0      -4.118  -2.012  -7.988  0.00  0.00     0.219 C 
BRANCH  17  18
HETATM   18  N   UNK     0      -4.538  -3.059  -7.113  0.00  0.00    -0.221 N 
HETATM   19  C   UNK     0      -4.313  -4.375  -7.271  0.00  0.00     0.114 A 
HETATM   20  C   UNK     0      -4.909  -5.006  -6.188  0.00  0.00     0.101 A 
HETATM   21  N   UNK     0      -5.437  -4.025  -5.437  0.00  0.00    -0.133 NA
HETATM   22  N   UNK     0      -5.198  -2.886  -6.009  0.00  0.00    -0.064 NA
BRANCH  20  23
HETATM   23  C   UNK     0      -4.991  -6.465  -5.918  0.00  0.00     0.044 C 
HETATM   24  C   UNK     0      -4.382  -7.268  -7.099  0.00  0.00     0.006 C 
BRANCH  23  25
HETATM   25  C   UNK     0      -4.310  -6.846  -4.564  0.00  0.00     0.006 C 
BRANCH  25  26
HETATM   26  C   UNK     0      -5.318  -7.297  -3.469  0.00  0.00     0.000 C 
HETATM   27  C   UNK     0      -5.653  -6.187  -2.451  0.00  0.00     0.000 C 
ENDBRANCH  25  26
ENDBRANCH  23  25
ENDBRANCH  20  23
ENDBRANCH  17  18
ENDBRANCH   2  17
TORSDOF 6
ENDMDL
MODEL 9
REMARK VINA RESULT:      -6.7      2.527      8.302
REMARK  6 active torsions:
REMARK  status: ('A' for Active; 'I' for Inactive)
REMARK    1  A    between atoms: C_9  and  N_13 
REMARK       I    between atoms: N_13  and  C_14 
REMARK    2  A    between atoms: C_14  and  C_17 
REMARK    3  A    between atoms: C_17  and  N_18 
REMARK    4  A    between atoms: C_20  and  C_23 
REMARK    5  A    between atoms: C_23  and  C_25 
REMARK    6  A    between atoms: C_25  and  C_26 
ROOT
HETATM    1  N   UNK     0      -3.387  -0.612  -9.168  0.00  0.00    -0.205 NA
HETATM    2  C   UNK     0      -3.827  -1.009  -7.937  0.00  0.00     0.281 C 
HETATM    3  O   UNK     0      -5.062  -0.936  -7.747  0.00  0.00    -0.268 OA
ENDROOT
BRANCH   1   4
HETATM    4  C   UNK     0      -2.115  -0.608  -9.576  0.00  0.00     0.146 C 
HETATM    5  C   UNK     0      -1.625  -1.680 -10.243  0.00  0.00     0.162 C 
HETATM    6  C   UNK     0      -0.259  -1.751 -10.565  0.00  0.00     0.217 C 
HETATM    7  N   UNK     0      -2.427  -2.695 -10.562  0.00  0.00    -0.143 N 
HETATM    8  C   UNK     0       0.655  -0.787 -10.025  0.00  0.00     0.044 A 
HETATM    9  O   UNK     0       0.167  -2.691 -11.280  0.00  0.00    -0.285 OA
HETATM   10  C   UNK     0       2.062  -0.944 -10.108  0.00  0.00     0.003 A 
HETATM   11  C   UNK     0       0.123   0.350  -9.354  0.00  0.00     0.044 A 
HETATM   12  C   UNK     0       2.922  -0.015  -9.497  0.00  0.00     0.000 A 
HETATM   13  C   UNK     0       2.392   1.092  -8.812  0.00  0.00     0.000 A 
HETATM   14  C   UNK     0       1.000   1.281  -8.748  0.00  0.00     0.003 A 
HETATM   15  C   UNK     0      -1.292   0.491  -9.282  0.00  0.00     0.215 C 
HETATM   16  O   UNK     0      -1.810   1.582  -8.941  0.00  0.00    -0.285 OA
ENDBRANCH   1   4
BRANCH   2  17
HETATM   17  C   UNK     0      -2.995  -1.541  -6.826  0.00  0.00     0.219 C 
BRANCH  17  18
HETATM   18  N   UNK     0      -2.890  -2.964  -6.886  0.00  0.00    -0.221 N 
HETATM   19  C   UNK     0      -3.819  -3.853  -6.495  0.00  0.00     0.114 A 
HETATM   20  C   UNK     0      -3.280  -5.110  -6.730  0.00  0.00     0.101 A 
HETATM   21  N   UNK     0      -2.068  -4.895  -7.265  0.00  0.00    -0.133 NA
HETATM   22  N   UNK     0      -1.868  -3.616  -7.348  0.00  0.00    -0.064 NA
BRANCH  20  23
HETATM   23  C   UNK     0      -3.887  -6.432  -6.422  0.00  0.00     0.044 C 
HETATM   24  C   UNK     0      -2.812  -7.399  -5.852  0.00  0.00     0.006 C 
BRANCH  23  25
HETATM   25  C   UNK     0      -5.103  -6.302  -5.450  0.00  0.00     0.006 C 
BRANCH  25  26
HETATM   26  C   UNK     0      -4.745  -6.605  -3.967  0.00  0.00     0.000 C 
HETATM   27  C   UNK     0      -5.828  -6.140  -2.970  0.00  0.00     0.000 C 
ENDBRANCH  25  26
ENDBRANCH  23  25
ENDBRANCH  20  23
ENDBRANCH  17  18
ENDBRANCH   2  17
TORSDOF 6
ENDMDL
