MODEL 1
REMARK VINA RESULT:      -7.6      0.000      0.000
REMARK  6 active torsions:
REMARK  status: ('A' for Active; 'I' for Inactive)
REMARK    1  A    between atoms: C_9  and  N_13 
REMARK       I    between atoms: N_13  and  C_14 
REMARK    2  A    between atoms: C_14  and  C_17 
REMARK    3  A    between atoms: C_17  and  N_18 
REMARK    4  A    between atoms: C_20  and  C_23 
REMARK    5  A    between atoms: C_23  and  O_24 
REMARK    6  A    between atoms: O_24  and  C_26 
ROOT
HETATM    1  N   UNK     0      -4.414   8.018  -2.618  0.00  0.00    -0.205 NA
HETATM    2  C   UNK     0      -5.537   8.146  -3.389  0.00  0.00     0.281 C 
HETATM    3  O   UNK     0      -6.501   8.868  -3.037  0.00  0.00    -0.268 OA
ENDROOT
BRANCH   1   4
HETATM    4  C   UNK     0      -4.176   8.687  -1.482  0.00  0.00     0.146 C 
HETATM    5  C   UNK     0      -3.408   9.802  -1.505  0.00  0.00     0.162 C 
HETATM    6  C   UNK     0      -3.083  10.480  -0.320  0.00  0.00     0.217 C 
HETATM    7  N   UNK     0      -2.927  10.256  -2.655  0.00  0.00    -0.143 N 
HETATM    8  C   UNK     0      -3.474   9.942   0.947  0.00  0.00     0.044 A 
HETATM    9  O   UNK     0      -2.436  11.554  -0.374  0.00  0.00    -0.285 OA
HETATM   10  C   UNK     0      -3.055  10.511   2.173  0.00  0.00     0.003 A 
HETATM   11  C   UNK     0      -4.312   8.792   0.967  0.00  0.00     0.044 A 
HETATM   12  C   UNK     0      -3.445   9.941   3.398  0.00  0.00     0.000 A 
HETATM   13  C   UNK     0      -4.265   8.803   3.415  0.00  0.00     0.000 A 
HETATM   14  C   UNK     0      -4.702   8.235   2.208  0.00  0.00     0.003 A 
HETATM   15  C   UNK     0      -4.733   8.236  -0.275  0.00  0.00     0.215 C 
HETATM   16  O   UNK     0      -5.636   7.362  -0.294  0.00  0.00    -0.285 OA
ENDBRANCH   1   4
BRANCH   2  17
HETATM   17  C   UNK     0      -5.613   7.419  -4.671  0.00  0.00     0.219 C 
BRANCH  17  18
HETATM   18  N   UNK     0      -5.684   6.006  -4.468  0.00  0.00    -0.221 N 
HETATM   19  C   UNK     0      -5.358   5.049  -5.351  0.00  0.00     0.124 A 
HETATM   20  C   UNK     0      -5.616   3.839  -4.722  0.00  0.00     0.186 A 
HETATM   21  N   UNK     0      -6.074   4.147  -3.499  0.00  0.00    -0.123 NA
HETATM   22  N   UNK     0      -6.099   5.437  -3.378  0.00  0.00    -0.063 NA
BRANCH  20  23
HETATM   23  C   UNK     0      -5.440   2.538  -5.219  0.00  0.00     0.317 C 
HETATM   24  O   UNK     0      -4.297   2.177  -5.581  0.00  0.00    -0.257 OA
BRANCH  23  25
HETATM   25  O   UNK     0      -6.501   1.685  -5.314  0.00  0.00    -0.297 OA
BRANCH  25  26
HETATM   26  C   UNK     0      -7.861   2.065  -5.565  0.00  0.00     0.152 C 
HETATM   27  C   UNK     0      -8.730   1.739  -4.339  0.00  0.00     0.035 C 
ENDBRANCH  25  26
ENDBRANCH  23  25
ENDBRANCH  20  23
ENDBRANCH  17  18
ENDBRANCH   2  17
TORSDOF 6
ENDMDL
MODEL 2
REMARK VINA RESULT:      -7.6      2.845      8.757
REMARK  6 active torsions:
REMARK  status: ('A' for Active; 'I' for Inactive)
REMARK    1  A    between atoms: C_9  and  N_13 
REMARK       I    between atoms: N_13  and  C_14 
REMARK    2  A    between atoms: C_14  and  C_17 
REMARK    3  A    between atoms: C_17  and  N_18 
REMARK    4  A    between atoms: C_20  and  C_23 
REMARK    5  A    between atoms: C_23  and  O_24 
REMARK    6  A    between atoms: O_24  and  C_26 
ROOT
HETATM    1  N   UNK     0      -8.088   6.926  -2.462  0.00  0.00    -0.205 NA
HETATM    2  C   UNK     0      -8.211   6.879  -1.100  0.00  0.00     0.281 C 
HETATM    3  O   UNK     0      -8.566   5.834  -0.504  0.00  0.00    -0.268 OA
ENDROOT
BRANCH   1   4
HETATM    4  C   UNK     0      -8.243   5.883  -3.288  0.00  0.00     0.146 C 
HETATM    5  C   UNK     0      -9.462   5.617  -3.816  0.00  0.00     0.162 C 
HETATM    6  C   UNK     0      -9.669   4.489  -4.625  0.00  0.00     0.217 C 
HETATM    7  N   UNK     0     -10.491   6.411  -3.548  0.00  0.00    -0.143 N 
HETATM    8  C   UNK     0      -8.614   3.543  -4.823  0.00  0.00     0.044 A 
HETATM    9  O   UNK     0     -10.787   4.306  -5.165  0.00  0.00    -0.285 OA
HETATM   10  C   UNK     0      -8.810   2.323  -5.515  0.00  0.00     0.003 A 
HETATM   11  C   UNK     0      -7.325   3.843  -4.299  0.00  0.00     0.044 A 
HETATM   12  C   UNK     0      -7.753   1.410  -5.671  0.00  0.00     0.000 A 
HETATM   13  C   UNK     0      -6.485   1.705  -5.148  0.00  0.00     0.000 A 
HETATM   14  C   UNK     0      -6.269   2.917  -4.473  0.00  0.00     0.003 A 
HETATM   15  C   UNK     0      -7.140   5.078  -3.614  0.00  0.00     0.215 C 
HETATM   16  O   UNK     0      -5.980   5.468  -3.331  0.00  0.00    -0.285 OA
ENDBRANCH   1   4
BRANCH   2  17
HETATM   17  C   UNK     0      -7.911   8.090  -0.312  0.00  0.00     0.219 C 
BRANCH  17  18
HETATM   18  N   UNK     0      -6.556   8.098   0.142  0.00  0.00    -0.221 N 
HETATM   19  C   UNK     0      -6.112   8.498   1.343  0.00  0.00     0.124 A 
HETATM   20  C   UNK     0      -4.732   8.350   1.314  0.00  0.00     0.186 A 
HETATM   21  N   UNK     0      -4.437   7.864   0.099  0.00  0.00    -0.123 NA
HETATM   22  N   UNK     0      -5.538   7.722  -0.570  0.00  0.00    -0.063 NA
BRANCH  20  23
HETATM   23  C   UNK     0      -3.799   8.629   2.325  0.00  0.00     0.317 C 
HETATM   24  O   UNK     0      -3.017   9.597   2.178  0.00  0.00    -0.257 OA
BRANCH  23  25
HETATM   25  O   UNK     0      -3.741   7.853   3.446  0.00  0.00    -0.297 OA
BRANCH  25  26
HETATM   26  C   UNK     0      -4.146   8.250   4.762  0.00  0.00     0.152 C 
HETATM   27  C   UNK     0      -2.938   8.214   5.714  0.00  0.00     0.035 C 
ENDBRANCH  25  26
ENDBRANCH  23  25
ENDBRANCH  20  23
ENDBRANCH  17  18
ENDBRANCH   2  17
TORSDOF 6
ENDMDL
MODEL 3
REMARK VINA RESULT:      -7.4      2.210      8.300
REMARK  6 active torsions:
REMARK  status: ('A' for Active; 'I' for Inactive)
REMARK    1  A    between atoms: C_9  and  N_13 
REMARK       I    between atoms: N_13  and  C_14 
REMARK    2  A    between atoms: C_14  and  C_17 
REMARK    3  A    between atoms: C_17  and  N_18 
REMARK    4  A    between atoms: C_20  and  C_23 
REMARK    5  A    between atoms: C_23  and  O_24 
REMARK    6  A    between atoms: O_24  and  C_26 
ROOT
HETATM    1  N   UNK     0      -5.881   6.071  -3.535  0.00  0.00    -0.205 NA
HETATM    2  C   UNK     0      -6.257   7.348  -3.849  0.00  0.00     0.281 C 
HETATM    3  O   UNK     0      -7.231   7.583  -4.606  0.00  0.00    -0.268 OA
ENDROOT
BRANCH   1   4
HETATM    4  C   UNK     0      -6.529   4.960  -3.911  0.00  0.00     0.146 C 
HETATM    5  C   UNK     0      -6.032   4.197  -4.913  0.00  0.00     0.162 C 
HETATM    6  C   UNK     0      -6.727   3.069  -5.375  0.00  0.00     0.217 C 
HETATM    7  N   UNK     0      -4.884   4.525  -5.493  0.00  0.00    -0.143 N 
HETATM    8  C   UNK     0      -8.027   2.765  -4.862  0.00  0.00     0.044 A 
HETATM    9  O   UNK     0      -6.209   2.333  -6.251  0.00  0.00    -0.285 OA
HETATM   10  C   UNK     0      -8.826   1.722  -5.391  0.00  0.00     0.003 A 
HETATM   11  C   UNK     0      -8.531   3.545  -3.784  0.00  0.00     0.044 A 
HETATM   12  C   UNK     0     -10.107   1.468  -4.872  0.00  0.00     0.000 A 
HETATM   13  C   UNK     0     -10.605   2.243  -3.813  0.00  0.00     0.000 A 
HETATM   14  C   UNK     0      -9.820   3.271  -3.267  0.00  0.00     0.003 A 
HETATM   15  C   UNK     0      -7.713   4.585  -3.256  0.00  0.00     0.215 C 
HETATM   16  O   UNK     0      -8.033   5.145  -2.178  0.00  0.00    -0.285 OA
ENDBRANCH   1   4
BRANCH   2  17
HETATM   17  C   UNK     0      -5.501   8.479  -3.278  0.00  0.00     0.219 C 
BRANCH  17  18
HETATM   18  N   UNK     0      -5.322   8.331  -1.869  0.00  0.00    -0.221 N 
HETATM   19  C   UNK     0      -6.252   8.504  -0.916  0.00  0.00     0.124 A 
HETATM   20  C   UNK     0      -5.612   8.280   0.295  0.00  0.00     0.186 A 
HETATM   21  N   UNK     0      -4.340   7.981  -0.008  0.00  0.00    -0.123 NA
HETATM   22  N   UNK     0      -4.201   8.016  -1.296  0.00  0.00    -0.063 NA
BRANCH  20  23
HETATM   23  C   UNK     0      -6.147   8.335   1.592  0.00  0.00     0.317 C 
HETATM   24  O   UNK     0      -7.320   8.744   1.747  0.00  0.00    -0.257 OA
BRANCH  23  25
HETATM   25  O   UNK     0      -5.395   7.957   2.666  0.00  0.00    -0.297 OA
BRANCH  25  26
HETATM   26  C   UNK     0      -5.544   8.445   4.006  0.00  0.00     0.152 C 
HETATM   27  C   UNK     0      -4.220   8.283   4.772  0.00  0.00     0.035 C 
ENDBRANCH  25  26
ENDBRANCH  23  25
ENDBRANCH  20  23
ENDBRANCH  17  18
ENDBRANCH   2  17
TORSDOF 6
ENDMDL
MODEL 4
REMARK VINA RESULT:      -7.4     15.306     17.208
REMARK  6 active torsions:
REMARK  status: ('A' for Active; 'I' for Inactive)
REMARK    1  A    between atoms: C_9  and  N_13 
REMARK       I    between atoms: N_13  and  C_14 
REMARK    2  A    between atoms: C_14  and  C_17 
REMARK    3  A    between atoms: C_17  and  N_18 
REMARK    4  A    between atoms: C_20  and  C_23 
REMARK    5  A    between atoms: C_23  and  O_24 
REMARK    6  A    between atoms: O_24  and  C_26 
ROOT
HETATM    1  N   UNK     0       8.881   4.044   7.819  0.00  0.00    -0.205 NA
HETATM    2  C   UNK     0       8.606   2.707   7.904  0.00  0.00     0.281 C 
HETATM    3  O   UNK     0       8.747   1.939   6.920  0.00  0.00    -0.268 OA
ENDROOT
BRANCH   1   4
HETATM    4  C   UNK     0       9.396   4.661   6.747  0.00  0.00     0.146 C 
HETATM    5  C   UNK     0      10.739   4.706   6.576  0.00  0.00     0.162 C 
HETATM    6  C   UNK     0      11.307   5.409   5.502  0.00  0.00     0.217 C 
HETATM    7  N   UNK     0      11.541   4.106   7.446  0.00  0.00    -0.143 N 
HETATM    8  C   UNK     0      10.477   6.175   4.625  0.00  0.00     0.044 A 
HETATM    9  O   UNK     0      12.548   5.372   5.321  0.00  0.00    -0.285 OA
HETATM   10  C   UNK     0      11.011   7.009   3.613  0.00  0.00     0.003 A 
HETATM   11  C   UNK     0       9.065   6.096   4.783  0.00  0.00     0.044 A 
HETATM   12  C   UNK     0      10.163   7.763   2.783  0.00  0.00     0.000 A 
HETATM   13  C   UNK     0       8.771   7.688   2.946  0.00  0.00     0.000 A 
HETATM   14  C   UNK     0       8.224   6.855   3.934  0.00  0.00     0.003 A 
HETATM   15  C   UNK     0       8.542   5.246   5.799  0.00  0.00     0.215 C 
HETATM   16  O   UNK     0       7.312   4.988   5.826  0.00  0.00    -0.285 OA
ENDBRANCH   1   4
BRANCH   2  17
HETATM   17  C   UNK     0       8.136   2.151   9.187  0.00  0.00     0.219 C 
BRANCH  17  18
HETATM   18  N   UNK     0       6.740   1.850   9.148  0.00  0.00    -0.221 N 
HETATM   19  C   UNK     0       6.107   0.876   9.822  0.00  0.00     0.124 A 
HETATM   20  C   UNK     0       4.773   0.951   9.447  0.00  0.00     0.186 A 
HETATM   21  N   UNK     0       4.689   1.969   8.578  0.00  0.00    -0.123 NA
HETATM   22  N   UNK     0       5.869   2.483   8.424  0.00  0.00    -0.063 NA
BRANCH  20  23
HETATM   23  C   UNK     0       3.698   0.154   9.871  0.00  0.00     0.317 C 
HETATM   24  O   UNK     0       3.484  -0.935   9.290  0.00  0.00    -0.257 OA
BRANCH  23  25
HETATM   25  O   UNK     0       2.893   0.566  10.894  0.00  0.00    -0.297 OA
BRANCH  25  26
HETATM   26  C   UNK     0       3.310   0.798  12.245  0.00  0.00     0.152 C 
HETATM   27  C   UNK     0       4.018  -0.451  12.796  0.00  0.00     0.035 C 
ENDBRANCH  25  26
ENDBRANCH  23  25
ENDBRANCH  20  23
ENDBRANCH  17  18
ENDBRANCH   2  17
TORSDOF 6
ENDMDL
MODEL 5
REMARK VINA RESULT:      -7.3     14.973     17.596
REMARK  6 active torsions:
REMARK  status: ('A' for Active; 'I' for Inactive)
REMARK    1  A    between atoms: C_9  and  N_13 
REMARK       I    between atoms: N_13  and  C_14 
REMARK    2  A    between atoms: C_14  and  C_17 
REMARK    3  A    between atoms: C_17  and  N_18 
REMARK    4  A    between atoms: C_20  and  C_23 
REMARK    5  A    between atoms: C_23  and  O_24 
REMARK    6  A    between atoms: O_24  and  C_26 
ROOT
HETATM    1  N   UNK     0       8.900   3.178   8.426  0.00  0.00    -0.205 NA
HETATM    2  C   UNK     0       9.302   2.843   7.162  0.00  0.00     0.281 C 
HETATM    3  O   UNK     0       8.976   1.752   6.633  0.00  0.00    -0.268 OA
ENDROOT
BRANCH   1   4
HETATM    4  C   UNK     0       8.074   2.453   9.192  0.00  0.00     0.146 C 
HETATM    5  C   UNK     0       8.583   1.652  10.159  0.00  0.00     0.162 C 
HETATM    6  C   UNK     0       7.747   0.827  10.928  0.00  0.00     0.217 C 
HETATM    7  N   UNK     0       9.892   1.616  10.374  0.00  0.00    -0.143 N 
HETATM    8  C   UNK     0       6.350   0.744  10.631  0.00  0.00     0.044 A 
HETATM    9  O   UNK     0       8.231   0.152  11.869  0.00  0.00    -0.285 OA
HETATM   10  C   UNK     0       5.490  -0.173  11.284  0.00  0.00     0.003 A 
HETATM   11  C   UNK     0       5.812   1.613   9.641  0.00  0.00     0.044 A 
HETATM   12  C   UNK     0       4.126  -0.238  10.951  0.00  0.00     0.000 A 
HETATM   13  C   UNK     0       3.600   0.616   9.969  0.00  0.00     0.000 A 
HETATM   14  C   UNK     0       4.435   1.541   9.323  0.00  0.00     0.003 A 
HETATM   15  C   UNK     0       6.686   2.536   9.000  0.00  0.00     0.215 C 
HETATM   16  O   UNK     0       6.211   3.454   8.285  0.00  0.00    -0.285 OA
ENDBRANCH   1   4
BRANCH   2  17
HETATM   17  C   UNK     0      10.135   3.792   6.398  0.00  0.00     0.219 C 
BRANCH  17  18
HETATM   18  N   UNK     0       9.333   4.710   5.653  0.00  0.00    -0.221 N 
HETATM   19  C   UNK     0       9.762   5.594   4.738  0.00  0.00     0.124 A 
HETATM   20  C   UNK     0       8.635   6.281   4.307  0.00  0.00     0.186 A 
HETATM   21  N   UNK     0       7.602   5.761   4.986  0.00  0.00    -0.123 NA
HETATM   22  N   UNK     0       8.047   4.831   5.772  0.00  0.00    -0.063 NA
BRANCH  20  23
HETATM   23  C   UNK     0       8.547   7.308   3.354  0.00  0.00     0.317 C 
HETATM   24  O   UNK     0       7.507   7.404   2.662  0.00  0.00    -0.257 OA
BRANCH  23  25
HETATM   25  O   UNK     0       9.581   8.180   3.179  0.00  0.00    -0.297 OA
BRANCH  25  26
HETATM   26  C   UNK     0      10.178   8.530   1.924  0.00  0.00     0.152 C 
HETATM   27  C   UNK     0      11.470   7.722   1.715  0.00  0.00     0.035 C 
ENDBRANCH  25  26
ENDBRANCH  23  25
ENDBRANCH  20  23
ENDBRANCH  17  18
ENDBRANCH   2  17
TORSDOF 6
ENDMDL
MODEL 6
REMARK VINA RESULT:      -7.2      1.873      2.897
REMARK  6 active torsions:
REMARK  status: ('A' for Active; 'I' for Inactive)
REMARK    1  A    between atoms: C_9  and  N_13 
REMARK       I    between atoms: N_13  and  C_14 
REMARK    2  A    between atoms: C_14  and  C_17 
REMARK    3  A    between atoms: C_17  and  N_18 
REMARK    4  A    between atoms: C_20  and  C_23 
REMARK    5  A    between atoms: C_23  and  O_24 
REMARK    6  A    between atoms: O_24  and  C_26 
ROOT
HETATM    1  N   UNK     0      -5.597   7.343  -0.737  0.00  0.00    -0.205 NA
HETATM    2  C   UNK     0      -6.832   7.536  -1.292  0.00  0.00     0.281 C 
HETATM    3  O   UNK     0      -7.306   8.686  -1.465  0.00  0.00    -0.268 OA
ENDROOT
BRANCH   1   4
HETATM    4  C   UNK     0      -4.739   8.315  -0.402  0.00  0.00     0.146 C 
HETATM    5  C   UNK     0      -4.698   8.766   0.875  0.00  0.00     0.162 C 
HETATM    6  C   UNK     0      -3.862   9.833   1.238  0.00  0.00     0.217 C 
HETATM    7  N   UNK     0      -5.477   8.218   1.800  0.00  0.00    -0.143 N 
HETATM    8  C   UNK     0      -3.112  10.530   0.240  0.00  0.00     0.044 A 
HETATM    9  O   UNK     0      -3.784  10.182   2.441  0.00  0.00    -0.285 OA
HETATM   10  C   UNK     0      -2.362  11.696   0.532  0.00  0.00     0.003 A 
HETATM   11  C   UNK     0      -3.127  10.032  -1.093  0.00  0.00     0.044 A 
HETATM   12  C   UNK     0      -1.654  12.364  -0.482  0.00  0.00     0.000 A 
HETATM   13  C   UNK     0      -1.675  11.875  -1.796  0.00  0.00     0.000 A 
HETATM   14  C   UNK     0      -2.401  10.712  -2.100  0.00  0.00     0.003 A 
HETATM   15  C   UNK     0      -3.877   8.854  -1.370  0.00  0.00     0.215 C 
HETATM   16  O   UNK     0      -3.740   8.271  -2.474  0.00  0.00    -0.285 OA
ENDBRANCH   1   4
BRANCH   2  17
HETATM   17  C   UNK     0      -7.626   6.362  -1.704  0.00  0.00     0.219 C 
BRANCH  17  18
HETATM   18  N   UNK     0      -6.950   5.598  -2.704  0.00  0.00    -0.221 N 
HETATM   19  C   UNK     0      -6.965   4.263  -2.844  0.00  0.00     0.124 A 
HETATM   20  C   UNK     0      -6.148   3.978  -3.929  0.00  0.00     0.186 A 
HETATM   21  N   UNK     0      -5.700   5.161  -4.376  0.00  0.00    -0.123 NA
HETATM   22  N   UNK     0      -6.195   6.100  -3.632  0.00  0.00    -0.063 NA
BRANCH  20  23
HETATM   23  C   UNK     0      -5.834   2.728  -4.485  0.00  0.00     0.317 C 
HETATM   24  O   UNK     0      -4.694   2.550  -4.971  0.00  0.00    -0.257 OA
BRANCH  23  25
HETATM   25  O   UNK     0      -6.762   1.727  -4.504  0.00  0.00    -0.297 OA
BRANCH  25  26
HETATM   26  C   UNK     0      -7.924   1.679  -5.342  0.00  0.00     0.152 C 
HETATM   27  C   UNK     0      -9.194   1.657  -4.474  0.00  0.00     0.035 C 
ENDBRANCH  25  26
ENDBRANCH  23  25
ENDBRANCH  20  23
ENDBRANCH  17  18
ENDBRANCH   2  17
TORSDOF 6
ENDMDL
MODEL 7
REMARK VINA RESULT:      -7.2      2.358      3.888
REMARK  6 active torsions:
REMARK  status: ('A' for Active; 'I' for Inactive)
REMARK    1  A    between atoms: C_9  and  N_13 
REMARK       I    between atoms: N_13  and  C_14 
REMARK    2  A    between atoms: C_14  and  C_17 
REMARK    3  A    between atoms: C_17  and  N_18 
REMARK    4  A    between atoms: C_20  and  C_23 
REMARK    5  A    between atoms: C_23  and  O_24 
REMARK    6  A    between atoms: O_24  and  C_26 
ROOT
HETATM    1  N   UNK     0      -5.080   7.774  -2.535  0.00  0.00    -0.205 NA
HETATM    2  C   UNK     0      -6.367   8.060  -2.901  0.00  0.00     0.281 C 
HETATM    3  O   UNK     0      -6.687   9.179  -3.370  0.00  0.00    -0.268 OA
ENDROOT
BRANCH   1   4
HETATM    4  C   UNK     0      -4.030   8.589  -2.703  0.00  0.00     0.146 C 
HETATM    5  C   UNK     0      -3.587   9.339  -1.666  0.00  0.00     0.162 C 
HETATM    6  C   UNK     0      -2.536  10.254  -1.833  0.00  0.00     0.217 C 
HETATM    7  N   UNK     0      -4.166   9.238  -0.476  0.00  0.00    -0.143 N 
HETATM    8  C   UNK     0      -1.981  10.482  -3.131  0.00  0.00     0.044 A 
HETATM    9  O   UNK     0      -2.092  10.881  -0.840  0.00  0.00    -0.285 OA
HETATM   10  C   UNK     0      -1.017  11.490  -3.376  0.00  0.00     0.003 A 
HETATM   11  C   UNK     0      -2.421   9.667  -4.211  0.00  0.00     0.044 A 
HETATM   12  C   UNK     0      -0.511  11.697  -4.671  0.00  0.00     0.000 A 
HETATM   13  C   UNK     0      -0.951  10.896  -5.736  0.00  0.00     0.000 A 
HETATM   14  C   UNK     0      -1.895   9.882  -5.507  0.00  0.00     0.003 A 
HETATM   15  C   UNK     0      -3.384   8.651  -3.948  0.00  0.00     0.215 C 
HETATM   16  O   UNK     0      -3.632   7.783  -4.821  0.00  0.00    -0.285 OA
ENDBRANCH   1   4
BRANCH   2  17
HETATM   17  C   UNK     0      -7.404   7.021  -2.746  0.00  0.00     0.219 C 
BRANCH  17  18
HETATM   18  N   UNK     0      -6.900   5.725  -3.070  0.00  0.00    -0.221 N 
HETATM   19  C   UNK     0      -6.550   5.277  -4.286  0.00  0.00     0.124 A 
HETATM   20  C   UNK     0      -6.148   3.960  -4.113  0.00  0.00     0.186 A 
HETATM   21  N   UNK     0      -6.275   3.703  -2.803  0.00  0.00    -0.123 NA
HETATM   22  N   UNK     0      -6.719   4.768  -2.212  0.00  0.00    -0.063 NA
BRANCH  20  23
HETATM   23  C   UNK     0      -5.688   3.051  -5.078  0.00  0.00     0.317 C 
HETATM   24  O   UNK     0      -4.456   2.849  -5.181  0.00  0.00    -0.257 OA
BRANCH  23  25
HETATM   25  O   UNK     0      -6.569   2.405  -5.896  0.00  0.00    -0.297 OA
BRANCH  25  26
HETATM   26  C   UNK     0      -7.705   1.643  -5.468  0.00  0.00     0.152 C 
HETATM   27  C   UNK     0      -8.999   2.407  -5.789  0.00  0.00     0.035 C 
ENDBRANCH  25  26
ENDBRANCH  23  25
ENDBRANCH  20  23
ENDBRANCH  17  18
ENDBRANCH   2  17
TORSDOF 6
ENDMDL
MODEL 8
REMARK VINA RESULT:      -7.1      2.303      8.575
REMARK  6 active torsions:
REMARK  status: ('A' for Active; 'I' for Inactive)
REMARK    1  A    between atoms: C_9  and  N_13 
REMARK       I    between atoms: N_13  and  C_14 
REMARK    2  A    between atoms: C_14  and  C_17 
REMARK    3  A    between atoms: C_17  and  N_18 
REMARK    4  A    between atoms: C_20  and  C_23 
REMARK    5  A    between atoms: C_23  and  O_24 
REMARK    6  A    between atoms: O_24  and  C_26 
ROOT
HETATM    1  N   UNK     0      -7.144   7.528  -2.877  0.00  0.00    -0.205 NA
HETATM    2  C   UNK     0      -6.405   7.903  -1.789  0.00  0.00     0.281 C 
HETATM    3  O   UNK     0      -5.785   7.064  -1.090  0.00  0.00    -0.268 OA
ENDROOT
BRANCH   1   4
HETATM    4  C   UNK     0      -7.227   6.283  -3.364  0.00  0.00     0.146 C 
HETATM    5  C   UNK     0      -8.258   5.484  -2.999  0.00  0.00     0.162 C 
HETATM    6  C   UNK     0      -8.331   4.152  -3.435  0.00  0.00     0.217 C 
HETATM    7  N   UNK     0      -9.207   5.948  -2.194  0.00  0.00    -0.143 N 
HETATM    8  C   UNK     0      -7.258   3.585  -4.192  0.00  0.00     0.044 A 
HETATM    9  O   UNK     0      -9.334   3.456  -3.148  0.00  0.00    -0.285 OA
HETATM   10  C   UNK     0      -7.218   2.212  -4.538  0.00  0.00     0.003 A 
HETATM   11  C   UNK     0      -6.194   4.435  -4.606  0.00  0.00     0.044 A 
HETATM   12  C   UNK     0      -6.136   1.688  -5.267  0.00  0.00     0.000 A 
HETATM   13  C   UNK     0      -5.085   2.527  -5.668  0.00  0.00     0.000 A 
HETATM   14  C   UNK     0      -5.116   3.893  -5.346  0.00  0.00     0.003 A 
HETATM   15  C   UNK     0      -6.252   5.815  -4.259  0.00  0.00     0.215 C 
HETATM   16  O   UNK     0      -5.450   6.626  -4.785  0.00  0.00    -0.285 OA
ENDBRANCH   1   4
BRANCH   2  17
HETATM   17  C   UNK     0      -6.330   9.333  -1.431  0.00  0.00     0.219 C 
BRANCH  17  18
HETATM   18  N   UNK     0      -5.201   9.606  -0.599  0.00  0.00    -0.221 N 
HETATM   19  C   UNK     0      -5.161   9.566   0.742  0.00  0.00     0.124 A 
HETATM   20  C   UNK     0      -3.870   9.930   1.101  0.00  0.00     0.186 A 
HETATM   21  N   UNK     0      -3.216  10.159  -0.048  0.00  0.00    -0.123 NA
HETATM   22  N   UNK     0      -4.030   9.955  -1.036  0.00  0.00    -0.063 NA
BRANCH  20  23
HETATM   23  C   UNK     0      -3.316  10.041   2.386  0.00  0.00     0.317 C 
HETATM   24  O   UNK     0      -3.016  11.176   2.821  0.00  0.00    -0.257 OA
BRANCH  23  25
HETATM   25  O   UNK     0      -3.100   8.926   3.144  0.00  0.00    -0.297 OA
BRANCH  25  26
HETATM   26  C   UNK     0      -3.962   8.439   4.180  0.00  0.00     0.152 C 
HETATM   27  C   UNK     0      -3.143   8.157   5.451  0.00  0.00     0.035 C 
ENDBRANCH  25  26
ENDBRANCH  23  25
ENDBRANCH  20  23
ENDBRANCH  17  18
ENDBRANCH   2  17
TORSDOF 6
ENDMDL
MODEL 9
REMARK VINA RESULT:      -7.0     15.415     17.516
REMARK  6 active torsions:
REMARK  status: ('A' for Active; 'I' for Inactive)
REMARK    1  A    between atoms: C_9  and  N_13 
REMARK       I    between atoms: N_13  and  C_14 
REMARK    2  A    between atoms: C_14  and  C_17 
REMARK    3  A    between atoms: C_17  and  N_18 
REMARK    4  A    between atoms: C_20  and  C_23 
REMARK    5  A    between atoms: C_23  and  O_24 
REMARK    6  A    between atoms: O_24  and  C_26 
ROOT
HETATM    1  N   UNK     0       7.485   3.672   9.316  0.00  0.00    -0.205 NA
HETATM    2  C   UNK     0       8.768   3.339   8.979  0.00  0.00     0.281 C 
HETATM    3  O   UNK     0       9.238   2.199   9.214  0.00  0.00    -0.268 OA
ENDROOT
BRANCH   1   4
HETATM    4  C   UNK     0       6.580   2.834   9.839  0.00  0.00     0.146 C 
HETATM    5  C   UNK     0       5.883   2.004   9.026  0.00  0.00     0.162 C 
HETATM    6  C   UNK     0       4.878   1.169   9.537  0.00  0.00     0.217 C 
HETATM    7  N   UNK     0       6.125   1.992   7.721  0.00  0.00    -0.143 N 
HETATM    8  C   UNK     0       4.504   1.254  10.915  0.00  0.00     0.044 A 
HETATM    9  O   UNK     0       4.300   0.353   8.778  0.00  0.00    -0.285 OA
HETATM   10  C   UNK     0       3.407   0.534  11.448  0.00  0.00     0.003 A 
HETATM   11  C   UNK     0       5.262   2.098  11.774  0.00  0.00     0.044 A 
HETATM   12  C   UNK     0       3.058   0.661  12.804  0.00  0.00     0.000 A 
HETATM   13  C   UNK     0       3.803   1.499  13.647  0.00  0.00     0.000 A 
HETATM   14  C   UNK     0       4.903   2.208  13.138  0.00  0.00     0.003 A 
HETATM   15  C   UNK     0       6.368   2.809  11.226  0.00  0.00     0.215 C 
HETATM   16  O   UNK     0       7.180   3.387  11.990  0.00  0.00    -0.285 OA
ENDBRANCH   1   4
BRANCH   2  17
HETATM   17  C   UNK     0       9.621   4.345   8.317  0.00  0.00     0.219 C 
BRANCH  17  18
HETATM   18  N   UNK     0       9.160   4.635   6.996  0.00  0.00    -0.221 N 
HETATM   19  C   UNK     0       9.363   5.766   6.302  0.00  0.00     0.124 A 
HETATM   20  C   UNK     0       8.709   5.598   5.089  0.00  0.00     0.186 A 
HETATM   21  N   UNK     0       8.160   4.375   5.130  0.00  0.00    -0.123 NA
HETATM   22  N   UNK     0       8.448   3.828   6.270  0.00  0.00    -0.063 NA
BRANCH  20  23
HETATM   23  C   UNK     0       8.620   6.492   4.011  0.00  0.00     0.317 C 
HETATM   24  O   UNK     0       7.810   7.445   4.078  0.00  0.00    -0.257 OA
BRANCH  23  25
HETATM   25  O   UNK     0       9.399   6.318   2.904  0.00  0.00    -0.297 OA
BRANCH  25  26
HETATM   26  C   UNK     0      10.693   6.897   2.691  0.00  0.00     0.152 C 
HETATM   27  C   UNK     0      11.780   5.822   2.860  0.00  0.00     0.035 C 
ENDBRANCH  25  26
ENDBRANCH  23  25
ENDBRANCH  20  23
ENDBRANCH  17  18
ENDBRANCH   2  17
TORSDOF 6
ENDMDL
