MODEL 1
REMARK VINA RESULT:      -8.0      0.000      0.000
REMARK  5 active torsions:
REMARK  status: ('A' for Active; 'I' for Inactive)
REMARK    1  A    between atoms: C_9  and  N_13 
REMARK       I    between atoms: N_13  and  C_14 
REMARK    2  A    between atoms: C_14  and  C_17 
REMARK    3  A    between atoms: C_17  and  N_18 
REMARK    4  A    between atoms: C_20  and  C_23 
REMARK    5  A    between atoms: C_23  and  C_24 
ROOT
HETATM    1  N   UNK     0       8.117   3.415  10.462  0.00  0.00    -0.205 NA
HETATM    2  C   UNK     0       9.200   3.816   9.735  0.00  0.00     0.281 C 
HETATM    3  O   UNK     0       9.829   4.797  10.194  0.00  0.00    -0.268 OA
ENDROOT
BRANCH   2   4
HETATM    4  C   UNK     0       9.722   3.182   8.496  0.00  0.00     0.219 C 
BRANCH   4   5
HETATM    5  N   UNK     0       9.053   3.685   7.335  0.00  0.00    -0.221 N 
HETATM    6  C   UNK     0       9.095   4.941   6.853  0.00  0.00     0.114 A 
HETATM    7  C   UNK     0       8.324   4.938   5.698  0.00  0.00     0.101 A 
HETATM    8  N   UNK     0       7.849   3.689   5.570  0.00  0.00    -0.133 NA
HETATM    9  N   UNK     0       8.303   2.972   6.552  0.00  0.00    -0.064 NA
BRANCH   7  10
HETATM   10  C   UNK     0       8.064   6.057   4.762  0.00  0.00     0.049 C 
BRANCH  10  11
HETATM   11  C   UNK     0       9.346   6.656   4.090  0.00  0.00     0.006 C 
HETATM   12  C   UNK     0       8.963   7.690   2.979  0.00  0.00     0.000 C 
HETATM   13  C   UNK     0      10.199   8.276   2.240  0.00  0.00     0.000 C 
HETATM   14  C   UNK     0      11.106   7.159   1.663  0.00  0.00     0.000 C 
HETATM   15  C   UNK     0      11.516   6.143   2.758  0.00  0.00     0.000 C 
HETATM   16  C   UNK     0      10.278   5.554   3.486  0.00  0.00     0.000 C 
ENDBRANCH  10  11
ENDBRANCH   7  10
ENDBRANCH   4   5
ENDBRANCH   2   4
BRANCH   1  17
HETATM   17  C   UNK     0       7.313   2.378  10.193  0.00  0.00     0.146 C 
HETATM   18  C   UNK     0       6.175   2.596   9.489  0.00  0.00     0.162 C 
HETATM   19  C   UNK     0       5.284   1.551   9.215  0.00  0.00     0.217 C 
HETATM   20  N   UNK     0       5.855   3.812   9.065  0.00  0.00    -0.143 N 
HETATM   21  C   UNK     0       5.471   0.277   9.829  0.00  0.00     0.044 A 
HETATM   22  O   UNK     0       4.315   1.739   8.439  0.00  0.00    -0.285 OA
HETATM   23  C   UNK     0       4.475  -0.729   9.781  0.00  0.00     0.003 A 
HETATM   24  C   UNK     0       6.687   0.028  10.527  0.00  0.00     0.044 A 
HETATM   25  C   UNK     0       4.687  -1.971  10.402  0.00  0.00     0.000 A 
HETATM   26  C   UNK     0       5.901  -2.229  11.061  0.00  0.00     0.000 A 
HETATM   27  C   UNK     0       6.900  -1.241  11.118  0.00  0.00     0.003 A 
HETATM   28  C   UNK     0       7.647   1.083  10.625  0.00  0.00     0.215 C 
HETATM   29  O   UNK     0       8.783   0.865  11.113  0.00  0.00    -0.285 OA
ENDBRANCH   1  17
TORSDOF 5
ENDMDL
MODEL 2
REMARK VINA RESULT:      -7.7     19.376     21.263
REMARK  5 active torsions:
REMARK  status: ('A' for Active; 'I' for Inactive)
REMARK    1  A    between atoms: C_9  and  N_13 
REMARK       I    between atoms: N_13  and  C_14 
REMARK    2  A    between atoms: C_14  and  C_17 
REMARK    3  A    between atoms: C_17  and  N_18 
REMARK    4  A    between atoms: C_20  and  C_23 
REMARK    5  A    between atoms: C_23  and  C_24 
ROOT
HETATM    1  N   UNK     0      -6.192   6.761  -2.745  0.00  0.00    -0.205 NA
HETATM    2  C   UNK     0      -6.900   7.916  -2.909  0.00  0.00     0.281 C 
HETATM    3  O   UNK     0      -6.547   8.877  -2.190  0.00  0.00    -0.268 OA
ENDROOT
BRANCH   2   4
HETATM    4  C   UNK     0      -8.003   8.149  -3.878  0.00  0.00     0.219 C 
BRANCH   4   5
HETATM    5  N   UNK     0      -9.186   7.438  -3.498  0.00  0.00    -0.221 N 
HETATM    6  C   UNK     0      -9.991   6.715  -4.297  0.00  0.00     0.114 A 
HETATM    7  C   UNK     0     -10.979   6.188  -3.477  0.00  0.00     0.101 A 
HETATM    8  N   UNK     0     -10.721   6.645  -2.242  0.00  0.00    -0.133 NA
HETATM    9  N   UNK     0      -9.651   7.377  -2.288  0.00  0.00    -0.064 NA
BRANCH   7  10
HETATM   10  C   UNK     0     -12.099   5.290  -3.844  0.00  0.00     0.049 C 
BRANCH  10  11
HETATM   11  C   UNK     0     -11.671   3.993  -4.610  0.00  0.00     0.006 C 
HETATM   12  C   UNK     0     -11.527   4.271  -6.144  0.00  0.00     0.000 C 
HETATM   13  C   UNK     0     -11.157   3.001  -6.961  0.00  0.00     0.000 C 
HETATM   14  C   UNK     0     -12.151   1.841  -6.703  0.00  0.00     0.000 C 
HETATM   15  C   UNK     0     -12.283   1.536  -5.190  0.00  0.00     0.000 C 
HETATM   16  C   UNK     0     -12.662   2.805  -4.379  0.00  0.00     0.000 C 
ENDBRANCH  10  11
ENDBRANCH   7  10
ENDBRANCH   4   5
ENDBRANCH   2   4
BRANCH   1  17
HETATM   17  C   UNK     0      -6.360   5.617  -3.419  0.00  0.00     0.146 C 
HETATM   18  C   UNK     0      -5.688   5.435  -4.583  0.00  0.00     0.162 C 
HETATM   19  C   UNK     0      -5.859   4.272  -5.342  0.00  0.00     0.217 C 
HETATM   20  N   UNK     0      -4.869   6.369  -5.053  0.00  0.00    -0.143 N 
HETATM   21  C   UNK     0      -6.882   3.340  -4.996  0.00  0.00     0.044 A 
HETATM   22  O   UNK     0      -5.120   4.055  -6.334  0.00  0.00    -0.285 OA
HETATM   23  C   UNK     0      -7.256   2.284  -5.863  0.00  0.00     0.003 A 
HETATM   24  C   UNK     0      -7.557   3.499  -3.752  0.00  0.00     0.044 A 
HETATM   25  C   UNK     0      -8.273   1.387  -5.495  0.00  0.00     0.000 A 
HETATM   26  C   UNK     0      -8.915   1.524  -4.253  0.00  0.00     0.000 A 
HETATM   27  C   UNK     0      -8.556   2.567  -3.381  0.00  0.00     0.003 A 
HETATM   28  C   UNK     0      -7.215   4.616  -2.927  0.00  0.00     0.215 C 
HETATM   29  O   UNK     0      -7.687   4.717  -1.768  0.00  0.00    -0.285 OA
ENDBRANCH   1  17
TORSDOF 5
ENDMDL
MODEL 3
REMARK VINA RESULT:      -7.7      1.931      2.933
REMARK  5 active torsions:
REMARK  status: ('A' for Active; 'I' for Inactive)
REMARK    1  A    between atoms: C_9  and  N_13 
REMARK       I    between atoms: N_13  and  C_14 
REMARK    2  A    between atoms: C_14  and  C_17 
REMARK    3  A    between atoms: C_17  and  N_18 
REMARK    4  A    between atoms: C_20  and  C_23 
REMARK    5  A    between atoms: C_23  and  C_24 
ROOT
HETATM    1  N   UNK     0       8.577   1.755   7.852  0.00  0.00    -0.205 NA
HETATM    2  C   UNK     0       9.104   2.885   7.297  0.00  0.00     0.281 C 
HETATM    3  O   UNK     0       9.886   2.704   6.336  0.00  0.00    -0.268 OA
ENDROOT
BRANCH   2   4
HETATM    4  C   UNK     0       8.806   4.287   7.688  0.00  0.00     0.219 C 
BRANCH   4   5
HETATM    5  N   UNK     0       8.612   5.117   6.538  0.00  0.00    -0.221 N 
HETATM    6  C   UNK     0       9.393   6.132   6.126  0.00  0.00     0.114 A 
HETATM    7  C   UNK     0       8.825   6.607   4.952  0.00  0.00     0.101 A 
HETATM    8  N   UNK     0       7.726   5.864   4.743  0.00  0.00    -0.133 NA
HETATM    9  N   UNK     0       7.632   4.988   5.696  0.00  0.00    -0.064 NA
BRANCH   7  10
HETATM   10  C   UNK     0       9.305   7.697   4.072  0.00  0.00     0.049 C 
BRANCH  10  11
HETATM   11  C   UNK     0      10.020   7.213   2.765  0.00  0.00     0.006 C 
HETATM   12  C   UNK     0      11.351   6.462   3.100  0.00  0.00     0.000 C 
HETATM   13  C   UNK     0      12.130   6.007   1.834  0.00  0.00     0.000 C 
HETATM   14  C   UNK     0      12.394   7.189   0.866  0.00  0.00     0.000 C 
HETATM   15  C   UNK     0      11.080   7.925   0.503  0.00  0.00     0.000 C 
HETATM   16  C   UNK     0      10.310   8.385   1.770  0.00  0.00     0.000 C 
ENDBRANCH  10  11
ENDBRANCH   7  10
ENDBRANCH   4   5
ENDBRANCH   2   4
BRANCH   1  17
HETATM   17  C   UNK     0       7.698   1.695   8.861  0.00  0.00     0.146 C 
HETATM   18  C   UNK     0       8.158   1.744  10.136  0.00  0.00     0.162 C 
HETATM   19  C   UNK     0       7.282   1.648  11.224  0.00  0.00     0.217 C 
HETATM   20  N   UNK     0       9.456   1.857  10.391  0.00  0.00    -0.143 N 
HETATM   21  C   UNK     0       5.913   1.311  11.007  0.00  0.00     0.044 A 
HETATM   22  O   UNK     0       7.705   1.846  12.389  0.00  0.00    -0.285 OA
HETATM   23  C   UNK     0       5.051   0.963  12.077  0.00  0.00     0.003 A 
HETATM   24  C   UNK     0       5.415   1.306   9.673  0.00  0.00     0.044 A 
HETATM   25  C   UNK     0       3.709   0.629  11.829  0.00  0.00     0.000 A 
HETATM   26  C   UNK     0       3.209   0.658  10.516  0.00  0.00     0.000 A 
HETATM   27  C   UNK     0       4.051   1.001   9.445  0.00  0.00     0.003 A 
HETATM   28  C   UNK     0       6.321   1.588   8.604  0.00  0.00     0.215 C 
HETATM   29  O   UNK     0       5.895   1.726   7.431  0.00  0.00    -0.285 OA
ENDBRANCH   1  17
TORSDOF 5
ENDMDL
MODEL 4
REMARK VINA RESULT:      -7.6      2.368      9.169
REMARK  5 active torsions:
REMARK  status: ('A' for Active; 'I' for Inactive)
REMARK    1  A    between atoms: C_9  and  N_13 
REMARK       I    between atoms: N_13  and  C_14 
REMARK    2  A    between atoms: C_14  and  C_17 
REMARK    3  A    between atoms: C_17  and  N_18 
REMARK    4  A    between atoms: C_20  and  C_23 
REMARK    5  A    between atoms: C_23  and  C_24 
ROOT
HETATM    1  N   UNK     0       9.698   5.159   7.539  0.00  0.00    -0.205 NA
HETATM    2  C   UNK     0       9.272   3.944   7.992  0.00  0.00     0.281 C 
HETATM    3  O   UNK     0       9.035   3.874   9.219  0.00  0.00    -0.268 OA
ENDROOT
BRANCH   2   4
HETATM    4  C   UNK     0       9.024   2.730   7.172  0.00  0.00     0.219 C 
BRANCH   4   5
HETATM    5  N   UNK     0       7.725   2.187   7.429  0.00  0.00    -0.221 N 
HETATM    6  C   UNK     0       7.425   1.127   8.201  0.00  0.00     0.114 A 
HETATM    7  C   UNK     0       6.042   1.006   8.174  0.00  0.00     0.101 A 
HETATM    8  N   UNK     0       5.598   1.986   7.370  0.00  0.00    -0.133 NA
HETATM    9  N   UNK     0       6.619   2.669   6.950  0.00  0.00    -0.064 NA
BRANCH   7  10
HETATM   10  C   UNK     0       5.189   0.023   8.881  0.00  0.00     0.049 C 
BRANCH  10  11
HETATM   11  C   UNK     0       4.757   0.453  10.324  0.00  0.00     0.006 C 
HETATM   12  C   UNK     0       5.609  -0.290  11.407  0.00  0.00     0.000 C 
HETATM   13  C   UNK     0       5.183   0.059  12.861  0.00  0.00     0.000 C 
HETATM   14  C   UNK     0       3.669  -0.181  13.091  0.00  0.00     0.000 C 
HETATM   15  C   UNK     0       2.812   0.572  12.042  0.00  0.00     0.000 C 
HETATM   16  C   UNK     0       3.235   0.213  10.592  0.00  0.00     0.000 C 
ENDBRANCH  10  11
ENDBRANCH   7  10
ENDBRANCH   4   5
ENDBRANCH   2   4
BRANCH   1  17
HETATM   17  C   UNK     0       9.980   5.487   6.272  0.00  0.00     0.146 C 
HETATM   18  C   UNK     0      11.271   5.455   5.859  0.00  0.00     0.162 C 
HETATM   19  C   UNK     0      11.621   5.824   4.554  0.00  0.00     0.217 C 
HETATM   20  N   UNK     0      12.246   5.101   6.687  0.00  0.00    -0.143 N 
HETATM   21  C   UNK     0      10.647   6.414   3.696  0.00  0.00     0.044 A 
HETATM   22  O   UNK     0      12.795   5.645   4.145  0.00  0.00    -0.285 OA
HETATM   23  C   UNK     0      11.004   7.024   2.468  0.00  0.00     0.003 A 
HETATM   24  C   UNK     0       9.283   6.406   4.106  0.00  0.00     0.044 A 
HETATM   25  C   UNK     0      10.021   7.604   1.649  0.00  0.00     0.000 A 
HETATM   26  C   UNK     0       8.671   7.565   2.037  0.00  0.00     0.000 A 
HETATM   27  C   UNK     0       8.300   6.964   3.253  0.00  0.00     0.003 A 
HETATM   28  C   UNK     0       8.956   5.851   5.382  0.00  0.00     0.215 C 
HETATM   29  O   UNK     0       7.756   5.703   5.721  0.00  0.00    -0.285 OA
ENDBRANCH   1  17
TORSDOF 5
ENDMDL
MODEL 5
REMARK VINA RESULT:      -7.4      1.863      2.236
REMARK  5 active torsions:
REMARK  status: ('A' for Active; 'I' for Inactive)
REMARK    1  A    between atoms: C_9  and  N_13 
REMARK       I    between atoms: N_13  and  C_14 
REMARK    2  A    between atoms: C_14  and  C_17 
REMARK    3  A    between atoms: C_17  and  N_18 
REMARK    4  A    between atoms: C_20  and  C_23 
REMARK    5  A    between atoms: C_23  and  C_24 
ROOT
HETATM    1  N   UNK     0       9.902   2.524   8.317  0.00  0.00    -0.205 NA
HETATM    2  C   UNK     0      10.210   3.820   8.020  0.00  0.00     0.281 C 
HETATM    3  O   UNK     0      11.368   4.018   7.589  0.00  0.00    -0.268 OA
ENDROOT
BRANCH   2   4
HETATM    4  C   UNK     0       9.300   4.992   8.115  0.00  0.00     0.219 C 
BRANCH   4   5
HETATM    5  N   UNK     0       8.837   5.395   6.822  0.00  0.00    -0.221 N 
HETATM    6  C   UNK     0       9.383   6.326   6.018  0.00  0.00     0.114 A 
HETATM    7  C   UNK     0       8.612   6.340   4.863  0.00  0.00     0.101 A 
HETATM    8  N   UNK     0       7.639   5.435   5.054  0.00  0.00    -0.133 NA
HETATM    9  N   UNK     0       7.804   4.890   6.220  0.00  0.00    -0.064 NA
BRANCH   7  10
HETATM   10  C   UNK     0       8.796   7.159   3.642  0.00  0.00     0.049 C 
BRANCH  10  11
HETATM   11  C   UNK     0      10.270   7.222   3.116  0.00  0.00     0.006 C 
HETATM   12  C   UNK     0      10.383   8.180   1.884  0.00  0.00     0.000 C 
HETATM   13  C   UNK     0      11.817   8.237   1.286  0.00  0.00     0.000 C 
HETATM   14  C   UNK     0      12.351   6.825   0.936  0.00  0.00     0.000 C 
HETATM   15  C   UNK     0      12.271   5.872   2.155  0.00  0.00     0.000 C 
HETATM   16  C   UNK     0      10.835   5.812   2.742  0.00  0.00     0.000 C 
ENDBRANCH  10  11
ENDBRANCH   7  10
ENDBRANCH   4   5
ENDBRANCH   2   4
BRANCH   1  17
HETATM   17  C   UNK     0       8.725   2.063   8.759  0.00  0.00     0.146 C 
HETATM   18  C   UNK     0       7.826   1.591   7.859  0.00  0.00     0.162 C 
HETATM   19  C   UNK     0       6.568   1.132   8.268  0.00  0.00     0.217 C 
HETATM   20  N   UNK     0       8.101   1.577   6.561  0.00  0.00    -0.143 N 
HETATM   21  C   UNK     0       6.144   1.325   9.616  0.00  0.00     0.044 A 
HETATM   22  O   UNK     0       5.810   0.562   7.445  0.00  0.00    -0.285 OA
HETATM   23  C   UNK     0       4.803   1.105  10.016  0.00  0.00     0.003 A 
HETATM   24  C   UNK     0       7.098   1.774  10.574  0.00  0.00     0.044 A 
HETATM   25  C   UNK     0       4.415   1.311  11.351  0.00  0.00     0.000 A 
HETATM   26  C   UNK     0       5.364   1.721  12.303  0.00  0.00     0.000 A 
HETATM   27  C   UNK     0       6.699   1.944  11.921  0.00  0.00     0.003 A 
HETATM   28  C   UNK     0       8.427   2.061  10.132  0.00  0.00     0.215 C 
HETATM   29  O   UNK     0       9.329   2.327  10.963  0.00  0.00    -0.285 OA
ENDBRANCH   1  17
TORSDOF 5
ENDMDL
MODEL 6
REMARK VINA RESULT:      -7.3     16.464     18.637
REMARK  5 active torsions:
REMARK  status: ('A' for Active; 'I' for Inactive)
REMARK    1  A    between atoms: C_9  and  N_13 
REMARK       I    between atoms: N_13  and  C_14 
REMARK    2  A    between atoms: C_14  and  C_17 
REMARK    3  A    between atoms: C_17  and  N_18 
REMARK    4  A    between atoms: C_20  and  C_23 
REMARK    5  A    between atoms: C_23  and  C_24 
ROOT
HETATM    1  N   UNK     0      -7.812   7.360  -3.443  0.00  0.00    -0.205 NA
HETATM    2  C   UNK     0      -7.721   7.884  -2.186  0.00  0.00     0.281 C 
HETATM    3  O   UNK     0      -7.939   9.114  -2.093  0.00  0.00    -0.268 OA
ENDROOT
BRANCH   2   4
HETATM    4  C   UNK     0      -7.436   7.138  -0.933  0.00  0.00     0.219 C 
BRANCH   4   5
HETATM    5  N   UNK     0      -6.325   7.706  -0.233  0.00  0.00    -0.221 N 
HETATM    6  C   UNK     0      -6.349   8.337   0.956  0.00  0.00     0.114 A 
HETATM    7  C   UNK     0      -5.034   8.675   1.242  0.00  0.00     0.101 A 
HETATM    8  N   UNK     0      -4.304   8.248   0.200  0.00  0.00    -0.133 NA
HETATM    9  N   UNK     0      -5.097   7.674  -0.652  0.00  0.00    -0.064 NA
BRANCH   7  10
HETATM   10  C   UNK     0      -4.498   9.355   2.444  0.00  0.00     0.049 C 
BRANCH  10  11
HETATM   11  C   UNK     0      -4.416   8.453   3.722  0.00  0.00     0.006 C 
HETATM   12  C   UNK     0      -5.769   8.472   4.509  0.00  0.00     0.000 C 
HETATM   13  C   UNK     0      -5.724   7.635   5.818  0.00  0.00     0.000 C 
HETATM   14  C   UNK     0      -4.548   8.062   6.734  0.00  0.00     0.000 C 
HETATM   15  C   UNK     0      -3.198   8.021   5.975  0.00  0.00     0.000 C 
HETATM   16  C   UNK     0      -3.245   8.866   4.674  0.00  0.00     0.000 C 
ENDBRANCH  10  11
ENDBRANCH   7  10
ENDBRANCH   4   5
ENDBRANCH   2   4
BRANCH   1  17
HETATM   17  C   UNK     0      -7.655   6.076  -3.787  0.00  0.00     0.146 C 
HETATM   18  C   UNK     0      -6.454   5.667  -4.267  0.00  0.00     0.162 C 
HETATM   19  C   UNK     0      -6.252   4.343  -4.675  0.00  0.00     0.217 C 
HETATM   20  N   UNK     0      -5.442   6.517  -4.392  0.00  0.00    -0.143 N 
HETATM   21  C   UNK     0      -7.359   3.449  -4.763  0.00  0.00     0.044 A 
HETATM   22  O   UNK     0      -5.098   3.948  -4.973  0.00  0.00    -0.285 OA
HETATM   23  C   UNK     0      -7.251   2.186  -5.397  0.00  0.00     0.003 A 
HETATM   24  C   UNK     0      -8.609   3.855  -4.216  0.00  0.00     0.044 A 
HETATM   25  C   UNK     0      -8.363   1.331  -5.474  0.00  0.00     0.000 A 
HETATM   26  C   UNK     0      -9.588   1.718  -4.904  0.00  0.00     0.000 A 
HETATM   27  C   UNK     0      -9.711   2.968  -4.272  0.00  0.00     0.003 A 
HETATM   28  C   UNK     0      -8.714   5.163  -3.648  0.00  0.00     0.215 C 
HETATM   29  O   UNK     0      -9.755   5.508  -3.037  0.00  0.00    -0.285 OA
ENDBRANCH   1  17
TORSDOF 5
ENDMDL
MODEL 7
REMARK VINA RESULT:      -7.3     15.165     16.897
REMARK  5 active torsions:
REMARK  status: ('A' for Active; 'I' for Inactive)
REMARK    1  A    between atoms: C_9  and  N_13 
REMARK       I    between atoms: N_13  and  C_14 
REMARK    2  A    between atoms: C_14  and  C_17 
REMARK    3  A    between atoms: C_17  and  N_18 
REMARK    4  A    between atoms: C_20  and  C_23 
REMARK    5  A    between atoms: C_23  and  C_24 
ROOT
HETATM    1  N   UNK     0      -6.149  10.277   1.983  0.00  0.00    -0.205 NA
HETATM    2  C   UNK     0      -6.660   9.580   0.927  0.00  0.00     0.281 C 
HETATM    3  O   UNK     0      -7.050  10.271  -0.042  0.00  0.00    -0.268 OA
ENDROOT
BRANCH   2   4
HETATM    4  C   UNK     0      -6.754   8.103   0.801  0.00  0.00     0.219 C 
BRANCH   4   5
HETATM    5  N   UNK     0      -6.446   7.675  -0.529  0.00  0.00    -0.221 N 
HETATM    6  C   UNK     0      -7.270   7.057  -1.396  0.00  0.00     0.114 A 
HETATM    7  C   UNK     0      -6.540   6.876  -2.563  0.00  0.00     0.101 A 
HETATM    8  N   UNK     0      -5.318   7.374  -2.319  0.00  0.00    -0.133 NA
HETATM    9  N   UNK     0      -5.297   7.844  -1.109  0.00  0.00    -0.064 NA
BRANCH   7  10
HETATM   10  C   UNK     0      -6.983   6.274  -3.842  0.00  0.00     0.049 C 
BRANCH  10  11
HETATM   11  C   UNK     0      -6.429   4.835  -4.111  0.00  0.00     0.006 C 
HETATM   12  C   UNK     0      -5.451   4.831  -5.334  0.00  0.00     0.000 C 
HETATM   13  C   UNK     0      -4.914   3.414  -5.680  0.00  0.00     0.000 C 
HETATM   14  C   UNK     0      -6.065   2.399  -5.894  0.00  0.00     0.000 C 
HETATM   15  C   UNK     0      -7.026   2.371  -4.679  0.00  0.00     0.000 C 
HETATM   16  C   UNK     0      -7.567   3.787  -4.343  0.00  0.00     0.000 C 
ENDBRANCH  10  11
ENDBRANCH   7  10
ENDBRANCH   4   5
ENDBRANCH   2   4
BRANCH   1  17
HETATM   17  C   UNK     0      -5.642   9.762   3.111  0.00  0.00     0.146 C 
HETATM   18  C   UNK     0      -4.297   9.633   3.226  0.00  0.00     0.162 C 
HETATM   19  C   UNK     0      -3.722   9.067   4.371  0.00  0.00     0.217 C 
HETATM   20  N   UNK     0      -3.486  10.012   2.247  0.00  0.00    -0.143 N 
HETATM   21  C   UNK     0      -4.552   8.449   5.353  0.00  0.00     0.044 A 
HETATM   22  O   UNK     0      -2.476   9.092   4.525  0.00  0.00    -0.285 OA
HETATM   23  C   UNK     0      -4.012   7.655   6.394  0.00  0.00     0.003 A 
HETATM   24  C   UNK     0      -5.962   8.625   5.262  0.00  0.00     0.044 A 
HETATM   25  C   UNK     0      -4.858   7.055   7.343  0.00  0.00     0.000 A 
HETATM   26  C   UNK     0      -6.247   7.256   7.273  0.00  0.00     0.000 A 
HETATM   27  C   UNK     0      -6.797   8.041   6.245  0.00  0.00     0.003 A 
HETATM   28  C   UNK     0      -6.489   9.368   4.161  0.00  0.00     0.215 C 
HETATM   29  O   UNK     0      -7.709   9.659   4.117  0.00  0.00    -0.285 OA
ENDBRANCH   1  17
TORSDOF 5
ENDMDL
MODEL 8
REMARK VINA RESULT:      -7.2     15.993     18.105
REMARK  5 active torsions:
REMARK  status: ('A' for Active; 'I' for Inactive)
REMARK    1  A    between atoms: C_9  and  N_13 
REMARK       I    between atoms: N_13  and  C_14 
REMARK    2  A    between atoms: C_14  and  C_17 
REMARK    3  A    between atoms: C_17  and  N_18 
REMARK    4  A    between atoms: C_20  and  C_23 
REMARK    5  A    between atoms: C_23  and  C_24 
ROOT
HETATM    1  N   UNK     0      -8.641   7.402  -2.751  0.00  0.00    -0.205 NA
HETATM    2  C   UNK     0      -8.633   7.882  -1.474  0.00  0.00     0.281 C 
HETATM    3  O   UNK     0      -9.555   8.678  -1.186  0.00  0.00    -0.268 OA
ENDROOT
BRANCH   2   4
HETATM    4  C   UNK     0      -7.675   7.520  -0.397  0.00  0.00     0.219 C 
BRANCH   4   5
HETATM    5  N   UNK     0      -6.387   8.098  -0.632  0.00  0.00    -0.221 N 
HETATM    6  C   UNK     0      -6.080   9.408  -0.676  0.00  0.00     0.114 A 
HETATM    7  C   UNK     0      -4.710   9.477  -0.893  0.00  0.00     0.101 A 
HETATM    8  N   UNK     0      -4.284   8.208  -0.989  0.00  0.00    -0.133 NA
HETATM    9  N   UNK     0      -5.299   7.417  -0.824  0.00  0.00    -0.064 NA
BRANCH   7  10
HETATM   10  C   UNK     0      -3.853  10.682  -0.991  0.00  0.00     0.049 C 
BRANCH  10  11
HETATM   11  C   UNK     0      -2.389  10.402  -1.470  0.00  0.00     0.006 C 
HETATM   12  C   UNK     0      -1.372  11.336  -0.732  0.00  0.00     0.000 C 
HETATM   13  C   UNK     0       0.094  11.139  -1.211  0.00  0.00     0.000 C 
HETATM   14  C   UNK     0       0.223  11.290  -2.748  0.00  0.00     0.000 C 
HETATM   15  C   UNK     0      -0.759  10.351  -3.492  0.00  0.00     0.000 C 
HETATM   16  C   UNK     0      -2.222  10.558  -3.018  0.00  0.00     0.000 C 
ENDBRANCH  10  11
ENDBRANCH   7  10
ENDBRANCH   4   5
ENDBRANCH   2   4
BRANCH   1  17
HETATM   17  C   UNK     0      -7.784   6.520  -3.280  0.00  0.00     0.146 C 
HETATM   18  C   UNK     0      -6.702   6.980  -3.955  0.00  0.00     0.162 C 
HETATM   19  C   UNK     0      -5.797   6.098  -4.557  0.00  0.00     0.217 C 
HETATM   20  N   UNK     0      -6.484   8.283  -4.092  0.00  0.00    -0.143 N 
HETATM   21  C   UNK     0      -6.099   4.705  -4.625  0.00  0.00     0.044 A 
HETATM   22  O   UNK     0      -4.726   6.534  -5.047  0.00  0.00    -0.285 OA
HETATM   23  C   UNK     0      -5.345   3.816  -5.429  0.00  0.00     0.003 A 
HETATM   24  C   UNK     0      -7.205   4.210  -3.877  0.00  0.00     0.044 A 
HETATM   25  C   UNK     0      -5.673   2.450  -5.479  0.00  0.00     0.000 A 
HETATM   26  C   UNK     0      -6.743   1.956  -4.715  0.00  0.00     0.000 A 
HETATM   27  C   UNK     0      -7.501   2.826  -3.912  0.00  0.00     0.003 A 
HETATM   28  C   UNK     0      -7.996   5.139  -3.132  0.00  0.00     0.215 C 
HETATM   29  O   UNK     0      -8.894   4.728  -2.356  0.00  0.00    -0.285 OA
ENDBRANCH   1  17
TORSDOF 5
ENDMDL
MODEL 9
REMARK VINA RESULT:      -7.2     15.175     17.753
REMARK  5 active torsions:
REMARK  status: ('A' for Active; 'I' for Inactive)
REMARK    1  A    between atoms: C_9  and  N_13 
REMARK       I    between atoms: N_13  and  C_14 
REMARK    2  A    between atoms: C_14  and  C_17 
REMARK    3  A    between atoms: C_17  and  N_18 
REMARK    4  A    between atoms: C_20  and  C_23 
REMARK    5  A    between atoms: C_23  and  C_24 
ROOT
HETATM    1  N   UNK     0      -6.332   8.799  -1.924  0.00  0.00    -0.205 NA
HETATM    2  C   UNK     0      -5.437   9.050  -0.924  0.00  0.00     0.281 C 
HETATM    3  O   UNK     0      -5.335  10.248  -0.574  0.00  0.00    -0.268 OA
ENDROOT
BRANCH   2   4
HETATM    4  C   UNK     0      -4.619   8.047  -0.194  0.00  0.00     0.219 C 
BRANCH   4   5
HETATM    5  N   UNK     0      -4.613   8.308   1.213  0.00  0.00    -0.221 N 
HETATM    6  C   UNK     0      -5.644   8.177   2.068  0.00  0.00     0.114 A 
HETATM    7  C   UNK     0      -5.150   8.506   3.324  0.00  0.00     0.101 A 
HETATM    8  N   UNK     0      -3.861   8.836   3.142  0.00  0.00    -0.133 NA
HETATM    9  N   UNK     0      -3.574   8.702   1.884  0.00  0.00    -0.064 NA
BRANCH   7  10
HETATM   10  C   UNK     0      -5.860   8.496   4.624  0.00  0.00     0.049 C 
BRANCH  10  11
HETATM   11  C   UNK     0      -5.193   7.603   5.724  0.00  0.00     0.006 C 
HETATM   12  C   UNK     0      -6.277   6.931   6.632  0.00  0.00     0.000 C 
HETATM   13  C   UNK     0      -5.667   6.076   7.777  0.00  0.00     0.000 C 
HETATM   14  C   UNK     0      -4.662   6.890   8.631  0.00  0.00     0.000 C 
HETATM   15  C   UNK     0      -3.566   7.538   7.748  0.00  0.00     0.000 C 
HETATM   16  C   UNK     0      -4.180   8.399   6.611  0.00  0.00     0.000 C 
ENDBRANCH  10  11
ENDBRANCH   7  10
ENDBRANCH   4   5
ENDBRANCH   2   4
BRANCH   1  17
HETATM   17  C   UNK     0      -6.637   7.603  -2.442  0.00  0.00     0.146 C 
HETATM   18  C   UNK     0      -7.559   6.832  -1.814  0.00  0.00     0.162 C 
HETATM   19  C   UNK     0      -7.885   5.559  -2.297  0.00  0.00     0.217 C 
HETATM   20  N   UNK     0      -8.158   7.248  -0.706  0.00  0.00    -0.143 N 
HETATM   21  C   UNK     0      -7.119   4.980  -3.351  0.00  0.00     0.044 A 
HETATM   22  O   UNK     0      -8.843   4.923  -1.792  0.00  0.00    -0.285 OA
HETATM   23  C   UNK     0      -7.247   3.614  -3.706  0.00  0.00     0.003 A 
HETATM   24  C   UNK     0      -6.185   5.800  -4.046  0.00  0.00     0.044 A 
HETATM   25  C   UNK     0      -6.472   3.073  -4.745  0.00  0.00     0.000 A 
HETATM   26  C   UNK     0      -5.576   3.891  -5.453  0.00  0.00     0.000 A 
HETATM   27  C   UNK     0      -5.437   5.248  -5.113  0.00  0.00     0.003 A 
HETATM   28  C   UNK     0      -6.019   7.156  -3.622  0.00  0.00     0.215 C 
HETATM   29  O   UNK     0      -5.308   7.947  -4.289  0.00  0.00    -0.285 OA
ENDBRANCH   1  17
TORSDOF 5
ENDMDL
