MODEL 1
REMARK VINA RESULT:      -8.0      0.000      0.000
REMARK  6 active torsions:
REMARK  status: ('A' for Active; 'I' for Inactive)
REMARK    1  A    between atoms: C_9  and  N_13 
REMARK       I    between atoms: N_13  and  C_14 
REMARK    2  A    between atoms: C_14  and  C_17 
REMARK    3  A    between atoms: C_17  and  N_18 
REMARK    4  A    between atoms: C_20  and  C_23 
REMARK    5  A    between atoms: C_23  and  C_24 
REMARK    6  A    between atoms: C_24  and  C_25 
ROOT
HETATM    1  N   UNK     0       8.156   3.674  10.151  0.00  0.00    -0.205 NA
HETATM    2  C   UNK     0       9.070   4.206   9.287  0.00  0.00     0.281 C 
HETATM    3  O   UNK     0       9.707   5.197   9.709  0.00  0.00    -0.268 OA
ENDROOT
BRANCH   2   4
HETATM    4  C   UNK     0       9.421   3.687   7.941  0.00  0.00     0.219 C 
BRANCH   4   5
HETATM    5  N   UNK     0       8.910   4.545   6.916  0.00  0.00    -0.221 N 
HETATM    6  C   UNK     0       9.475   5.676   6.455  0.00  0.00     0.114 A 
HETATM    7  C   UNK     0       8.639   6.144   5.453  0.00  0.00     0.101 A 
HETATM    8  N   UNK     0       7.620   5.274   5.383  0.00  0.00    -0.133 NA
HETATM    9  N   UNK     0       7.812   4.337   6.258  0.00  0.00    -0.064 NA
BRANCH   7  10
HETATM   10  C   UNK     0       8.801   7.343   4.606  0.00  0.00     0.054 C 
BRANCH  10  11
HETATM   11  C   UNK     0       8.781   7.003   3.091  0.00  0.00     0.033 C 
BRANCH  11  12
HETATM   12  C   UNK     0      10.154   6.938   2.517  0.00  0.00    -0.022 A 
HETATM   13  C   UNK     0      10.944   5.771   2.655  0.00  0.00    -0.004 A 
HETATM   14  C   UNK     0      12.232   5.703   2.092  0.00  0.00    -0.000 A 
HETATM   15  C   UNK     0      12.753   6.803   1.388  0.00  0.00     0.000 A 
HETATM   16  C   UNK     0      11.986   7.974   1.252  0.00  0.00    -0.000 A 
HETATM   17  C   UNK     0      10.696   8.041   1.813  0.00  0.00    -0.004 A 
ENDBRANCH  11  12
ENDBRANCH  10  11
ENDBRANCH   7  10
ENDBRANCH   4   5
ENDBRANCH   2   4
BRANCH   1  18
HETATM   18  C   UNK     0       7.389   2.597   9.937  0.00  0.00     0.146 C 
HETATM   19  C   UNK     0       6.189   2.747   9.327  0.00  0.00     0.162 C 
HETATM   20  C   UNK     0       5.313   1.666   9.179  0.00  0.00     0.217 C 
HETATM   21  N   UNK     0       5.794   3.937   8.891  0.00  0.00    -0.143 N 
HETATM   22  C   UNK     0       5.598   0.428   9.830  0.00  0.00     0.044 A 
HETATM   23  O   UNK     0       4.271   1.791   8.492  0.00  0.00    -0.285 OA
HETATM   24  C   UNK     0       4.638  -0.607   9.932  0.00  0.00     0.003 A 
HETATM   25  C   UNK     0       6.879   0.247  10.422  0.00  0.00     0.044 A 
HETATM   26  C   UNK     0       4.941  -1.799  10.611  0.00  0.00     0.000 A 
HETATM   27  C   UNK     0       6.213  -1.985  11.179  0.00  0.00     0.000 A 
HETATM   28  C   UNK     0       7.180  -0.971  11.078  0.00  0.00     0.003 A 
HETATM   29  C   UNK     0       7.811   1.326  10.363  0.00  0.00     0.215 C 
HETATM   30  O   UNK     0       9.006   1.144  10.702  0.00  0.00    -0.285 OA
ENDBRANCH   1  18
TORSDOF 6
ENDMDL
MODEL 2
REMARK VINA RESULT:      -8.0     19.593     21.571
REMARK  6 active torsions:
REMARK  status: ('A' for Active; 'I' for Inactive)
REMARK    1  A    between atoms: C_9  and  N_13 
REMARK       I    between atoms: N_13  and  C_14 
REMARK    2  A    between atoms: C_14  and  C_17 
REMARK    3  A    between atoms: C_17  and  N_18 
REMARK    4  A    between atoms: C_20  and  C_23 
REMARK    5  A    between atoms: C_23  and  C_24 
REMARK    6  A    between atoms: C_24  and  C_25 
ROOT
HETATM    1  N   UNK     0      -6.275   6.778  -2.743  0.00  0.00    -0.205 NA
HETATM    2  C   UNK     0      -7.028   7.902  -2.921  0.00  0.00     0.281 C 
HETATM    3  O   UNK     0      -6.695   8.897  -2.238  0.00  0.00    -0.268 OA
ENDROOT
BRANCH   2   4
HETATM    4  C   UNK     0      -8.146   8.075  -3.882  0.00  0.00     0.219 C 
BRANCH   4   5
HETATM    5  N   UNK     0      -9.294   7.329  -3.468  0.00  0.00    -0.221 N 
HETATM    6  C   UNK     0     -10.015   6.476  -4.219  0.00  0.00     0.114 A 
HETATM    7  C   UNK     0     -11.005   5.974  -3.389  0.00  0.00     0.101 A 
HETATM    8  N   UNK     0     -10.825   6.563  -2.197  0.00  0.00    -0.133 NA
HETATM    9  N   UNK     0      -9.803   7.356  -2.275  0.00  0.00    -0.064 NA
BRANCH   7  10
HETATM   10  C   UNK     0     -12.057   4.985  -3.706  0.00  0.00     0.054 C 
BRANCH  10  11
HETATM   11  C   UNK     0     -12.406   4.959  -5.218  0.00  0.00     0.033 C 
BRANCH  11  12
HETATM   12  C   UNK     0     -12.199   3.609  -5.814  0.00  0.00    -0.022 A 
HETATM   13  C   UNK     0     -12.715   2.451  -5.183  0.00  0.00    -0.004 A 
HETATM   14  C   UNK     0     -12.539   1.179  -5.759  0.00  0.00    -0.000 A 
HETATM   15  C   UNK     0     -11.839   1.045  -6.971  0.00  0.00     0.000 A 
HETATM   16  C   UNK     0     -11.311   2.184  -7.604  0.00  0.00    -0.000 A 
HETATM   17  C   UNK     0     -11.489   3.457  -7.029  0.00  0.00    -0.004 A 
ENDBRANCH  11  12
ENDBRANCH  10  11
ENDBRANCH   7  10
ENDBRANCH   4   5
ENDBRANCH   2   4
BRANCH   1  18
HETATM   18  C   UNK     0      -6.418   5.612  -3.386  0.00  0.00     0.146 C 
HETATM   19  C   UNK     0      -5.731   5.398  -4.534  0.00  0.00     0.162 C 
HETATM   20  C   UNK     0      -5.931   4.238  -5.290  0.00  0.00     0.217 C 
HETATM   21  N   UNK     0      -4.879   6.307  -4.994  0.00  0.00    -0.143 N 
HETATM   22  C   UNK     0      -6.993   3.347  -4.955  0.00  0.00     0.044 A 
HETATM   23  O   UNK     0      -5.189   3.992  -6.272  0.00  0.00    -0.285 OA
HETATM   24  C   UNK     0      -7.406   2.307  -5.822  0.00  0.00     0.003 A 
HETATM   25  C   UNK     0      -7.679   3.535  -3.722  0.00  0.00     0.044 A 
HETATM   26  C   UNK     0      -8.480   1.469  -5.474  0.00  0.00     0.000 A 
HETATM   27  C   UNK     0      -9.144   1.644  -4.249  0.00  0.00     0.000 A 
HETATM   28  C   UNK     0      -8.741   2.666  -3.373  0.00  0.00     0.003 A 
HETATM   29  C   UNK     0      -7.290   4.627  -2.891  0.00  0.00     0.215 C 
HETATM   30  O   UNK     0      -7.735   4.717  -1.720  0.00  0.00    -0.285 OA
ENDBRANCH   1  18
TORSDOF 6
ENDMDL
MODEL 3
REMARK VINA RESULT:      -7.9      2.506      9.702
REMARK  6 active torsions:
REMARK  status: ('A' for Active; 'I' for Inactive)
REMARK    1  A    between atoms: C_9  and  N_13 
REMARK       I    between atoms: N_13  and  C_14 
REMARK    2  A    between atoms: C_14  and  C_17 
REMARK    3  A    between atoms: C_17  and  N_18 
REMARK    4  A    between atoms: C_20  and  C_23 
REMARK    5  A    between atoms: C_23  and  C_24 
REMARK    6  A    between atoms: C_24  and  C_25 
ROOT
HETATM    1  N   UNK     0       9.372   5.415   7.583  0.00  0.00    -0.205 NA
HETATM    2  C   UNK     0       8.927   4.234   8.105  0.00  0.00     0.281 C 
HETATM    3  O   UNK     0       8.487   4.286   9.276  0.00  0.00    -0.268 OA
ENDROOT
BRANCH   2   4
HETATM    4  C   UNK     0       8.853   2.929   7.403  0.00  0.00     0.219 C 
BRANCH   4   5
HETATM    5  N   UNK     0       7.603   2.282   7.660  0.00  0.00    -0.221 N 
HETATM    6  C   UNK     0       7.364   1.327   8.578  0.00  0.00     0.114 A 
HETATM    7  C   UNK     0       6.014   1.029   8.480  0.00  0.00     0.101 A 
HETATM    8  N   UNK     0       5.529   1.812   7.505  0.00  0.00    -0.133 NA
HETATM    9  N   UNK     0       6.494   2.545   7.042  0.00  0.00    -0.064 NA
BRANCH   7  10
HETATM   10  C   UNK     0       5.226   0.061   9.272  0.00  0.00     0.054 C 
BRANCH  10  11
HETATM   11  C   UNK     0       3.877   0.657   9.760  0.00  0.00     0.033 C 
BRANCH  11  12
HETATM   12  C   UNK     0       3.887   0.927  11.225  0.00  0.00    -0.022 A 
HETATM   13  C   UNK     0       4.968   1.614  11.829  0.00  0.00    -0.004 A 
HETATM   14  C   UNK     0       4.965   1.890  13.210  0.00  0.00    -0.000 A 
HETATM   15  C   UNK     0       3.884   1.477  14.008  0.00  0.00     0.000 A 
HETATM   16  C   UNK     0       2.807   0.784  13.426  0.00  0.00    -0.000 A 
HETATM   17  C   UNK     0       2.810   0.511  12.044  0.00  0.00    -0.004 A 
ENDBRANCH  11  12
ENDBRANCH  10  11
ENDBRANCH   7  10
ENDBRANCH   4   5
ENDBRANCH   2   4
BRANCH   1  18
HETATM   18  C   UNK     0       9.847   5.612   6.347  0.00  0.00     0.146 C 
HETATM   19  C   UNK     0      11.177   5.486   6.119  0.00  0.00     0.162 C 
HETATM   20  C   UNK     0      11.726   5.785   4.867  0.00  0.00     0.217 C 
HETATM   21  N   UNK     0      12.000   5.117   7.092  0.00  0.00    -0.143 N 
HETATM   22  C   UNK     0      10.917   6.399   3.865  0.00  0.00     0.044 A 
HETATM   23  O   UNK     0      12.933   5.532   4.634  0.00  0.00    -0.285 OA
HETATM   24  C   UNK     0      11.470   6.955   2.687  0.00  0.00     0.003 A 
HETATM   25  C   UNK     0       9.512   6.479   4.077  0.00  0.00     0.044 A 
HETATM   26  C   UNK     0      10.646   7.583   1.737  0.00  0.00     0.000 A 
HETATM   27  C   UNK     0       9.257   7.646   1.939  0.00  0.00     0.000 A 
HETATM   28  C   UNK     0       8.691   7.090   3.098  0.00  0.00     0.003 A 
HETATM   29  C   UNK     0       8.981   5.969   5.299  0.00  0.00     0.215 C 
HETATM   30  O   UNK     0       7.740   5.850   5.445  0.00  0.00    -0.285 OA
ENDBRANCH   1  18
TORSDOF 6
ENDMDL
MODEL 4
REMARK VINA RESULT:      -7.8      1.732      2.471
REMARK  6 active torsions:
REMARK  status: ('A' for Active; 'I' for Inactive)
REMARK    1  A    between atoms: C_9  and  N_13 
REMARK       I    between atoms: N_13  and  C_14 
REMARK    2  A    between atoms: C_14  and  C_17 
REMARK    3  A    between atoms: C_17  and  N_18 
REMARK    4  A    between atoms: C_20  and  C_23 
REMARK    5  A    between atoms: C_23  and  C_24 
REMARK    6  A    between atoms: C_24  and  C_25 
ROOT
HETATM    1  N   UNK     0       8.531   1.711   7.863  0.00  0.00    -0.205 NA
HETATM    2  C   UNK     0       9.132   2.815   7.331  0.00  0.00     0.281 C 
HETATM    3  O   UNK     0       9.892   2.608   6.358  0.00  0.00    -0.268 OA
ENDROOT
BRANCH   2   4
HETATM    4  C   UNK     0       8.919   4.224   7.746  0.00  0.00     0.219 C 
BRANCH   4   5
HETATM    5  N   UNK     0       8.643   5.053   6.613  0.00  0.00    -0.221 N 
HETATM    6  C   UNK     0       9.387   6.081   6.166  0.00  0.00     0.114 A 
HETATM    7  C   UNK     0       8.743   6.559   5.035  0.00  0.00     0.101 A 
HETATM    8  N   UNK     0       7.649   5.799   4.880  0.00  0.00    -0.133 NA
HETATM    9  N   UNK     0       7.620   4.914   5.827  0.00  0.00    -0.064 NA
BRANCH   7  10
HETATM   10  C   UNK     0       9.148   7.670   4.147  0.00  0.00     0.054 C 
BRANCH  10  11
HETATM   11  C   UNK     0       8.978   7.316   2.645  0.00  0.00     0.033 C 
BRANCH  11  12
HETATM   12  C   UNK     0      10.288   7.242   1.939  0.00  0.00    -0.022 A 
HETATM   13  C   UNK     0      11.250   6.266   2.296  0.00  0.00    -0.004 A 
HETATM   14  C   UNK     0      12.478   6.182   1.613  0.00  0.00    -0.000 A 
HETATM   15  C   UNK     0      12.765   7.077   0.567  0.00  0.00     0.000 A 
HETATM   16  C   UNK     0      11.825   8.060   0.208  0.00  0.00    -0.000 A 
HETATM   17  C   UNK     0      10.595   8.142   0.890  0.00  0.00    -0.004 A 
ENDBRANCH  11  12
ENDBRANCH  10  11
ENDBRANCH   7  10
ENDBRANCH   4   5
ENDBRANCH   2   4
BRANCH   1  18
HETATM   18  C   UNK     0       7.655   1.689   8.876  0.00  0.00     0.146 C 
HETATM   19  C   UNK     0       8.113   1.703  10.150  0.00  0.00     0.162 C 
HETATM   20  C   UNK     0       7.237   1.576  11.234  0.00  0.00     0.217 C 
HETATM   21  N   UNK     0       9.413   1.795  10.404  0.00  0.00    -0.143 N 
HETATM   22  C   UNK     0       5.867   1.249  11.005  0.00  0.00     0.044 A 
HETATM   23  O   UNK     0       7.659   1.731  12.406  0.00  0.00    -0.285 OA
HETATM   24  C   UNK     0       5.001   0.857  12.053  0.00  0.00     0.003 A 
HETATM   25  C   UNK     0       5.369   1.290   9.672  0.00  0.00     0.044 A 
HETATM   26  C   UNK     0       3.665   0.508  11.785  0.00  0.00     0.000 A 
HETATM   27  C   UNK     0       3.171   0.566  10.472  0.00  0.00     0.000 A 
HETATM   28  C   UNK     0       4.015   0.962   9.421  0.00  0.00     0.003 A 
HETATM   29  C   UNK     0       6.274   1.626   8.621  0.00  0.00     0.215 C 
HETATM   30  O   UNK     0       5.840   1.855   7.466  0.00  0.00    -0.285 OA
ENDBRANCH   1  18
TORSDOF 6
ENDMDL
MODEL 5
REMARK VINA RESULT:      -7.8     16.359     18.726
REMARK  6 active torsions:
REMARK  status: ('A' for Active; 'I' for Inactive)
REMARK    1  A    between atoms: C_9  and  N_13 
REMARK       I    between atoms: N_13  and  C_14 
REMARK    2  A    between atoms: C_14  and  C_17 
REMARK    3  A    between atoms: C_17  and  N_18 
REMARK    4  A    between atoms: C_20  and  C_23 
REMARK    5  A    between atoms: C_23  and  C_24 
REMARK    6  A    between atoms: C_24  and  C_25 
ROOT
HETATM    1  N   UNK     0      -7.853   7.364  -3.583  0.00  0.00    -0.205 NA
HETATM    2  C   UNK     0      -7.854   7.951  -2.350  0.00  0.00     0.281 C 
HETATM    3  O   UNK     0      -8.039   9.188  -2.335  0.00  0.00    -0.268 OA
ENDROOT
BRANCH   2   4
HETATM    4  C   UNK     0      -7.727   7.261  -1.042  0.00  0.00     0.219 C 
BRANCH   4   5
HETATM    5  N   UNK     0      -6.493   7.605  -0.403  0.00  0.00    -0.221 N 
HETATM    6  C   UNK     0      -6.328   7.989   0.876  0.00  0.00     0.114 A 
HETATM    7  C   UNK     0      -4.966   8.186   1.046  0.00  0.00     0.101 A 
HETATM    8  N   UNK     0      -4.401   7.922  -0.142  0.00  0.00    -0.133 NA
HETATM    9  N   UNK     0      -5.331   7.577  -0.977  0.00  0.00    -0.064 NA
BRANCH   7  10
HETATM   10  C   UNK     0      -4.242   8.596   2.267  0.00  0.00     0.054 C 
BRANCH  10  11
HETATM   11  C   UNK     0      -5.204   9.009   3.414  0.00  0.00     0.033 C 
BRANCH  11  12
HETATM   12  C   UNK     0      -4.745   8.498   4.735  0.00  0.00    -0.022 A 
HETATM   13  C   UNK     0      -3.371   8.504   5.079  0.00  0.00    -0.004 A 
HETATM   14  C   UNK     0      -2.941   8.043   6.337  0.00  0.00    -0.000 A 
HETATM   15  C   UNK     0      -3.878   7.562   7.269  0.00  0.00     0.000 A 
HETATM   16  C   UNK     0      -5.245   7.539   6.939  0.00  0.00    -0.000 A 
HETATM   17  C   UNK     0      -5.675   8.003   5.681  0.00  0.00    -0.004 A 
ENDBRANCH  11  12
ENDBRANCH  10  11
ENDBRANCH   7  10
ENDBRANCH   4   5
ENDBRANCH   2   4
BRANCH   1  18
HETATM   18  C   UNK     0      -7.713   6.057  -3.845  0.00  0.00     0.146 C 
HETATM   19  C   UNK     0      -6.506   5.585  -4.238  0.00  0.00     0.162 C 
HETATM   20  C   UNK     0      -6.344   4.249  -4.621  0.00  0.00     0.217 C 
HETATM   21  N   UNK     0      -5.453   6.389  -4.311  0.00  0.00    -0.143 N 
HETATM   22  C   UNK     0      -7.488   3.410  -4.773  0.00  0.00     0.044 A 
HETATM   23  O   UNK     0      -5.196   3.795  -4.848  0.00  0.00    -0.285 OA
HETATM   24  C   UNK     0      -7.415   2.143  -5.399  0.00  0.00     0.003 A 
HETATM   25  C   UNK     0      -8.748   3.882  -4.308  0.00  0.00     0.044 A 
HETATM   26  C   UNK     0      -8.570   1.358  -5.564  0.00  0.00     0.000 A 
HETATM   27  C   UNK     0      -9.809   1.817  -5.088  0.00  0.00     0.000 A 
HETATM   28  C   UNK     0      -9.897   3.069  -4.456  0.00  0.00     0.003 A 
HETATM   29  C   UNK     0      -8.812   5.188  -3.737  0.00  0.00     0.215 C 
HETATM   30  O   UNK     0      -9.854   5.567  -3.148  0.00  0.00    -0.285 OA
ENDBRANCH   1  18
TORSDOF 6
ENDMDL
MODEL 6
REMARK VINA RESULT:      -7.6     14.673     17.541
REMARK  6 active torsions:
REMARK  status: ('A' for Active; 'I' for Inactive)
REMARK    1  A    between atoms: C_9  and  N_13 
REMARK       I    between atoms: N_13  and  C_14 
REMARK    2  A    between atoms: C_14  and  C_17 
REMARK    3  A    between atoms: C_17  and  N_18 
REMARK    4  A    between atoms: C_20  and  C_23 
REMARK    5  A    between atoms: C_23  and  C_24 
REMARK    6  A    between atoms: C_24  and  C_25 
ROOT
HETATM    1  N   UNK     0      -6.450   9.321  -1.479  0.00  0.00    -0.205 NA
HETATM    2  C   UNK     0      -5.379   9.630  -0.691  0.00  0.00     0.281 C 
HETATM    3  O   UNK     0      -5.318  10.814  -0.291  0.00  0.00    -0.268 OA
ENDROOT
BRANCH   2   4
HETATM    4  C   UNK     0      -4.331   8.692  -0.217  0.00  0.00     0.219 C 
BRANCH   4   5
HETATM    5  N   UNK     0      -4.238   8.712   1.211  0.00  0.00    -0.221 N 
HETATM    6  C   UNK     0      -5.143   8.234   2.084  0.00  0.00     0.114 A 
HETATM    7  C   UNK     0      -4.611   8.449   3.346  0.00  0.00     0.101 A 
HETATM    8  N   UNK     0      -3.429   9.052   3.154  0.00  0.00    -0.133 NA
HETATM    9  N   UNK     0      -3.235   9.190   1.879  0.00  0.00    -0.064 NA
BRANCH   7  10
HETATM   10  C   UNK     0      -5.189   8.095   4.660  0.00  0.00     0.054 C 
BRANCH  10  11
HETATM   11  C   UNK     0      -4.376   8.689   5.842  0.00  0.00     0.033 C 
BRANCH  11  12
HETATM   12  C   UNK     0      -4.236   7.719   6.963  0.00  0.00    -0.022 A 
HETATM   13  C   UNK     0      -5.274   6.805   7.266  0.00  0.00    -0.004 A 
HETATM   14  C   UNK     0      -5.130   5.872   8.310  0.00  0.00    -0.000 A 
HETATM   15  C   UNK     0      -3.949   5.844   9.072  0.00  0.00     0.000 A 
HETATM   16  C   UNK     0      -2.912   6.752   8.791  0.00  0.00    -0.000 A 
HETATM   17  C   UNK     0      -3.055   7.684   7.745  0.00  0.00    -0.004 A 
ENDBRANCH  11  12
ENDBRANCH  10  11
ENDBRANCH   7  10
ENDBRANCH   4   5
ENDBRANCH   2   4
BRANCH   1  18
HETATM   18  C   UNK     0      -6.745   8.119  -1.991  0.00  0.00     0.146 C 
HETATM   19  C   UNK     0      -7.506   7.259  -1.271  0.00  0.00     0.162 C 
HETATM   20  C   UNK     0      -7.749   5.957  -1.723  0.00  0.00     0.217 C 
HETATM   21  N   UNK     0      -8.006   7.617  -0.094  0.00  0.00    -0.143 N 
HETATM   22  C   UNK     0      -7.049   5.460  -2.863  0.00  0.00     0.044 A 
HETATM   23  O   UNK     0      -8.566   5.223  -1.116  0.00  0.00    -0.285 OA
HETATM   24  C   UNK     0      -7.056   4.088  -3.211  0.00  0.00     0.003 A 
HETATM   25  C   UNK     0      -6.296   6.373  -3.654  0.00  0.00     0.044 A 
HETATM   26  C   UNK     0      -6.327   3.628  -4.321  0.00  0.00     0.000 A 
HETATM   27  C   UNK     0      -5.599   4.533  -5.112  0.00  0.00     0.000 A 
HETATM   28  C   UNK     0      -5.589   5.899  -4.785  0.00  0.00     0.003 A 
HETATM   29  C   UNK     0      -6.251   7.740  -3.251  0.00  0.00     0.215 C 
HETATM   30  O   UNK     0      -5.759   8.606  -4.015  0.00  0.00    -0.285 OA
ENDBRANCH   1  18
TORSDOF 6
ENDMDL
MODEL 7
REMARK VINA RESULT:      -7.5     16.321     18.628
REMARK  6 active torsions:
REMARK  status: ('A' for Active; 'I' for Inactive)
REMARK    1  A    between atoms: C_9  and  N_13 
REMARK       I    between atoms: N_13  and  C_14 
REMARK    2  A    between atoms: C_14  and  C_17 
REMARK    3  A    between atoms: C_17  and  N_18 
REMARK    4  A    between atoms: C_20  and  C_23 
REMARK    5  A    between atoms: C_23  and  C_24 
REMARK    6  A    between atoms: C_24  and  C_25 
ROOT
HETATM    1  N   UNK     0      -8.594   7.855  -2.984  0.00  0.00    -0.205 NA
HETATM    2  C   UNK     0      -8.362   8.269  -1.704  0.00  0.00     0.281 C 
HETATM    3  O   UNK     0      -8.545   9.487  -1.482  0.00  0.00    -0.268 OA
ENDROOT
BRANCH   2   4
HETATM    4  C   UNK     0      -7.986   7.411  -0.552  0.00  0.00     0.219 C 
BRANCH   4   5
HETATM    5  N   UNK     0      -6.649   7.691  -0.125  0.00  0.00    -0.221 N 
HETATM    6  C   UNK     0      -6.258   8.056   1.110  0.00  0.00     0.114 A 
HETATM    7  C   UNK     0      -4.879   8.188   1.053  0.00  0.00     0.101 A 
HETATM    8  N   UNK     0      -4.530   7.908  -0.211  0.00  0.00    -0.133 NA
HETATM    9  N   UNK     0      -5.599   7.614  -0.882  0.00  0.00    -0.064 NA
BRANCH   7  10
HETATM   10  C   UNK     0      -3.945   8.552   2.139  0.00  0.00     0.054 C 
BRANCH  10  11
HETATM   11  C   UNK     0      -4.639   9.361   3.269  0.00  0.00     0.033 C 
BRANCH  11  12
HETATM   12  C   UNK     0      -4.507   8.691   4.593  0.00  0.00    -0.022 A 
HETATM   13  C   UNK     0      -3.265   8.666   5.273  0.00  0.00    -0.004 A 
HETATM   14  C   UNK     0      -3.147   8.053   6.535  0.00  0.00    -0.000 A 
HETATM   15  C   UNK     0      -4.267   7.451   7.133  0.00  0.00     0.000 A 
HETATM   16  C   UNK     0      -5.506   7.458   6.466  0.00  0.00    -0.000 A 
HETATM   17  C   UNK     0      -5.624   8.073   5.205  0.00  0.00    -0.004 A 
ENDBRANCH  11  12
ENDBRANCH  10  11
ENDBRANCH   7  10
ENDBRANCH   4   5
ENDBRANCH   2   4
BRANCH   1  18
HETATM   18  C   UNK     0      -8.503   6.602  -3.447  0.00  0.00     0.146 C 
HETATM   19  C   UNK     0      -9.589   5.793  -3.393  0.00  0.00     0.162 C 
HETATM   20  C   UNK     0      -9.507   4.448  -3.769  0.00  0.00     0.217 C 
HETATM   21  N   UNK     0     -10.751   6.247  -2.939  0.00  0.00    -0.143 N 
HETATM   22  C   UNK     0      -8.234   3.865  -4.045  0.00  0.00     0.044 A 
HETATM   23  O   UNK     0     -10.548   3.752  -3.844  0.00  0.00    -0.285 OA
HETATM   24  C   UNK     0      -8.059   2.466  -4.175  0.00  0.00     0.003 A 
HETATM   25  C   UNK     0      -7.102   4.719  -4.160  0.00  0.00     0.044 A 
HETATM   26  C   UNK     0      -6.784   1.923  -4.412  0.00  0.00     0.000 A 
HETATM   27  C   UNK     0      -5.671   2.769  -4.544  0.00  0.00     0.000 A 
HETATM   28  C   UNK     0      -5.829   4.160  -4.426  0.00  0.00     0.003 A 
HETATM   29  C   UNK     0      -7.288   6.120  -3.963  0.00  0.00     0.215 C 
HETATM   30  O   UNK     0      -6.362   6.922  -4.238  0.00  0.00    -0.285 OA
ENDBRANCH   1  18
TORSDOF 6
ENDMDL
MODEL 8
REMARK VINA RESULT:      -7.5     19.218     21.399
REMARK  6 active torsions:
REMARK  status: ('A' for Active; 'I' for Inactive)
REMARK    1  A    between atoms: C_9  and  N_13 
REMARK       I    between atoms: N_13  and  C_14 
REMARK    2  A    between atoms: C_14  and  C_17 
REMARK    3  A    between atoms: C_17  and  N_18 
REMARK    4  A    between atoms: C_20  and  C_23 
REMARK    5  A    between atoms: C_23  and  C_24 
REMARK    6  A    between atoms: C_24  and  C_25 
ROOT
HETATM    1  N   UNK     0      -5.731   3.545  -3.788  0.00  0.00    -0.205 NA
HETATM    2  C   UNK     0      -5.807   2.642  -4.810  0.00  0.00     0.281 C 
HETATM    3  O   UNK     0      -5.043   1.654  -4.723  0.00  0.00    -0.268 OA
ENDROOT
BRANCH   2   4
HETATM    4  C   UNK     0      -6.742   2.686  -5.962  0.00  0.00     0.219 C 
BRANCH   4   5
HETATM    5  N   UNK     0      -8.085   2.437  -5.537  0.00  0.00    -0.221 N 
HETATM    6  C   UNK     0      -9.140   3.262  -5.673  0.00  0.00     0.114 A 
HETATM    7  C   UNK     0     -10.228   2.586  -5.143  0.00  0.00     0.101 A 
HETATM    8  N   UNK     0      -9.759   1.406  -4.711  0.00  0.00    -0.133 NA
HETATM    9  N   UNK     0      -8.488   1.346  -4.962  0.00  0.00    -0.064 NA
BRANCH   7  10
HETATM   10  C   UNK     0     -11.635   3.032  -5.058  0.00  0.00     0.054 C 
BRANCH  10  11
HETATM   11  C   UNK     0     -11.959   3.709  -3.699  0.00  0.00     0.033 C 
BRANCH  11  12
HETATM   12  C   UNK     0     -11.949   5.195  -3.803  0.00  0.00    -0.022 A 
HETATM   13  C   UNK     0     -11.127   5.851  -4.751  0.00  0.00    -0.004 A 
HETATM   14  C   UNK     0     -11.136   7.254  -4.865  0.00  0.00    -0.000 A 
HETATM   15  C   UNK     0     -11.964   8.023  -4.028  0.00  0.00     0.000 A 
HETATM   16  C   UNK     0     -12.779   7.388  -3.074  0.00  0.00    -0.000 A 
HETATM   17  C   UNK     0     -12.771   5.984  -2.962  0.00  0.00    -0.004 A 
ENDBRANCH  11  12
ENDBRANCH  10  11
ENDBRANCH   7  10
ENDBRANCH   4   5
ENDBRANCH   2   4
BRANCH   1  18
HETATM   18  C   UNK     0      -6.471   4.652  -3.646  0.00  0.00     0.146 C 
HETATM   19  C   UNK     0      -6.097   5.787  -4.284  0.00  0.00     0.162 C 
HETATM   20  C   UNK     0      -6.781   6.990  -4.079  0.00  0.00     0.217 C 
HETATM   21  N   UNK     0      -5.041   5.797  -5.089  0.00  0.00    -0.143 N 
HETATM   22  C   UNK     0      -7.772   7.077  -3.056  0.00  0.00     0.044 A 
HETATM   23  O   UNK     0      -6.510   7.995  -4.780  0.00  0.00    -0.285 OA
HETATM   24  C   UNK     0      -8.309   8.316  -2.631  0.00  0.00     0.003 A 
HETATM   25  C   UNK     0      -8.209   5.879  -2.425  0.00  0.00     0.044 A 
HETATM   26  C   UNK     0      -9.259   8.367  -1.596  0.00  0.00     0.000 A 
HETATM   27  C   UNK     0      -9.702   7.182  -0.986  0.00  0.00     0.000 A 
HETATM   28  C   UNK     0      -9.186   5.943  -1.403  0.00  0.00     0.003 A 
HETATM   29  C   UNK     0      -7.611   4.647  -2.824  0.00  0.00     0.215 C 
HETATM   30  O   UNK     0      -8.094   3.556  -2.431  0.00  0.00    -0.285 OA
ENDBRANCH   1  18
TORSDOF 6
ENDMDL
MODEL 9
REMARK VINA RESULT:      -7.5     14.312     15.974
REMARK  6 active torsions:
REMARK  status: ('A' for Active; 'I' for Inactive)
REMARK    1  A    between atoms: C_9  and  N_13 
REMARK       I    between atoms: N_13  and  C_14 
REMARK    2  A    between atoms: C_14  and  C_17 
REMARK    3  A    between atoms: C_17  and  N_18 
REMARK    4  A    between atoms: C_20  and  C_23 
REMARK    5  A    between atoms: C_23  and  C_24 
REMARK    6  A    between atoms: C_24  and  C_25 
ROOT
HETATM    1  N   UNK     0      -4.584   9.966   3.286  0.00  0.00    -0.205 NA
HETATM    2  C   UNK     0      -4.409   9.574   1.990  0.00  0.00     0.281 C 
HETATM    3  O   UNK     0      -4.261  10.495   1.156  0.00  0.00    -0.268 OA
ENDROOT
BRANCH   2   4
HETATM    4  C   UNK     0      -4.313   8.178   1.493  0.00  0.00     0.219 C 
BRANCH   4   5
HETATM    5  N   UNK     0      -4.884   8.062   0.187  0.00  0.00    -0.221 N 
HETATM    6  C   UNK     0      -6.190   7.937  -0.114  0.00  0.00     0.114 A 
HETATM    7  C   UNK     0      -6.263   7.887  -1.497  0.00  0.00     0.101 A 
HETATM    8  N   UNK     0      -5.000   7.974  -1.941  0.00  0.00    -0.133 NA
HETATM    9  N   UNK     0      -4.208   8.080  -0.920  0.00  0.00    -0.064 NA
BRANCH   7  10
HETATM   10  C   UNK     0      -7.465   7.773  -2.351  0.00  0.00     0.054 C 
BRANCH  10  11
HETATM   11  C   UNK     0      -7.118   7.356  -3.806  0.00  0.00     0.033 C 
BRANCH  11  12
HETATM   12  C   UNK     0      -6.874   5.891  -3.921  0.00  0.00    -0.022 A 
HETATM   13  C   UNK     0      -5.814   5.392  -4.716  0.00  0.00    -0.004 A 
HETATM   14  C   UNK     0      -5.570   4.008  -4.805  0.00  0.00    -0.000 A 
HETATM   15  C   UNK     0      -6.386   3.102  -4.105  0.00  0.00     0.000 A 
HETATM   16  C   UNK     0      -7.450   3.581  -3.319  0.00  0.00    -0.000 A 
HETATM   17  C   UNK     0      -7.693   4.966  -3.228  0.00  0.00    -0.004 A 
ENDBRANCH  11  12
ENDBRANCH  10  11
ENDBRANCH   7  10
ENDBRANCH   4   5
ENDBRANCH   2   4
BRANCH   1  18
HETATM   18  C   UNK     0      -4.725   9.164   4.350  0.00  0.00     0.146 C 
HETATM   19  C   UNK     0      -5.969   8.838   4.775  0.00  0.00     0.162 C 
HETATM   20  C   UNK     0      -6.160   8.090   5.942  0.00  0.00     0.217 C 
HETATM   21  N   UNK     0      -7.043   9.257   4.117  0.00  0.00    -0.143 N 
HETATM   22  C   UNK     0      -5.052   7.814   6.798  0.00  0.00     0.044 A 
HETATM   23  O   UNK     0      -7.307   7.679   6.245  0.00  0.00    -0.285 OA
HETATM   24  C   UNK     0      -5.220   7.295   8.103  0.00  0.00     0.003 A 
HETATM   25  C   UNK     0      -3.740   8.103   6.329  0.00  0.00     0.044 A 
HETATM   26  C   UNK     0      -4.107   7.068   8.932  0.00  0.00     0.000 A 
HETATM   27  C   UNK     0      -2.811   7.336   8.462  0.00  0.00     0.000 A 
HETATM   28  C   UNK     0      -2.627   7.844   7.165  0.00  0.00     0.003 A 
HETATM   29  C   UNK     0      -3.595   8.685   5.035  0.00  0.00     0.215 C 
HETATM   30  O   UNK     0      -2.459   8.782   4.511  0.00  0.00    -0.285 OA
ENDBRANCH   1  18
TORSDOF 6
ENDMDL
