MODEL 1
REMARK VINA RESULT:      -7.5      0.000      0.000
REMARK  6 active torsions:
REMARK  status: ('A' for Active; 'I' for Inactive)
REMARK    1  A    between atoms: C_9  and  N_13 
REMARK       I    between atoms: N_13  and  C_14 
REMARK    2  A    between atoms: C_14  and  C_17 
REMARK    3  A    between atoms: C_17  and  N_18 
REMARK    4  A    between atoms: C_20  and  C_23 
REMARK    5  A    between atoms: C_23  and  C_25 
REMARK    6  A    between atoms: C_25  and  C_26 
ROOT
HETATM    1  N   UNK     0       9.363   5.168   7.788  0.00  0.00    -0.205 NA
HETATM    2  C   UNK     0       8.951   3.970   8.298  0.00  0.00     0.281 C 
HETATM    3  O   UNK     0       8.664   3.963   9.516  0.00  0.00    -0.268 OA
ENDROOT
BRANCH   1   4
HETATM    4  C   UNK     0       9.719   5.393   6.520  0.00  0.00     0.146 C 
HETATM    5  C   UNK     0      11.029   5.360   6.179  0.00  0.00     0.162 C 
HETATM    6  C   UNK     0      11.434   5.721   4.883  0.00  0.00     0.217 C 
HETATM    7  N   UNK     0      11.949   5.024   7.083  0.00  0.00    -0.143 N 
HETATM    8  C   UNK     0      10.491   6.308   3.975  0.00  0.00     0.044 A 
HETATM    9  O   UNK     0      12.634   5.580   4.540  0.00  0.00    -0.285 OA
HETATM   10  C   UNK     0      10.886   6.914   2.756  0.00  0.00     0.003 A 
HETATM   11  C   UNK     0       9.114   6.307   4.335  0.00  0.00     0.044 A 
HETATM   12  C   UNK     0       9.938   7.548   1.934  0.00  0.00     0.000 A 
HETATM   13  C   UNK     0       8.583   7.568   2.305  0.00  0.00     0.000 A 
HETATM   14  C   UNK     0       8.169   6.943   3.494  0.00  0.00     0.003 A 
HETATM   15  C   UNK     0       8.737   5.691   5.563  0.00  0.00     0.215 C 
HETATM   16  O   UNK     0       7.533   5.432   5.805  0.00  0.00    -0.285 OA
ENDBRANCH   1   4
BRANCH   2  17
HETATM   17  C   UNK     0       8.783   2.697   7.549  0.00  0.00     0.219 C 
BRANCH  17  18
HETATM   18  N   UNK     0       7.511   2.102   7.806  0.00  0.00    -0.221 N 
HETATM   19  C   UNK     0       7.240   1.148   8.713  0.00  0.00     0.114 A 
HETATM   20  C   UNK     0       5.885   0.876   8.601  0.00  0.00     0.101 A 
HETATM   21  N   UNK     0       5.422   1.700   7.647  0.00  0.00    -0.133 NA
HETATM   22  N   UNK     0       6.408   2.414   7.198  0.00  0.00    -0.064 NA
BRANCH  20  23
HETATM   23  C   UNK     0       5.096  -0.141   9.346  0.00  0.00     0.044 C 
HETATM   24  C   UNK     0       5.953  -0.761  10.484  0.00  0.00     0.006 C 
BRANCH  23  25
HETATM   25  C   UNK     0       3.762   0.451   9.902  0.00  0.00     0.006 C 
BRANCH  25  26
HETATM   26  C   UNK     0       3.883   0.998  11.353  0.00  0.00     0.000 C 
HETATM   27  C   UNK     0       2.742   0.531  12.280  0.00  0.00     0.000 C 
ENDBRANCH  25  26
ENDBRANCH  23  25
ENDBRANCH  20  23
ENDBRANCH  17  18
ENDBRANCH   2  17
TORSDOF 6
ENDMDL
MODEL 2
REMARK VINA RESULT:      -7.3      2.024      8.754
REMARK  6 active torsions:
REMARK  status: ('A' for Active; 'I' for Inactive)
REMARK    1  A    between atoms: C_9  and  N_13 
REMARK       I    between atoms: N_13  and  C_14 
REMARK    2  A    between atoms: C_14  and  C_17 
REMARK    3  A    between atoms: C_17  and  N_18 
REMARK    4  A    between atoms: C_20  and  C_23 
REMARK    5  A    between atoms: C_23  and  C_25 
REMARK    6  A    between atoms: C_25  and  C_26 
ROOT
HETATM    1  N   UNK     0       8.427   1.926   7.745  0.00  0.00    -0.205 NA
HETATM    2  C   UNK     0       8.941   3.042   7.150  0.00  0.00     0.281 C 
HETATM    3  O   UNK     0       9.735   2.842   6.203  0.00  0.00    -0.268 OA
ENDROOT
BRANCH   1   4
HETATM    4  C   UNK     0       7.570   1.916   8.771  0.00  0.00     0.146 C 
HETATM    5  C   UNK     0       8.045   1.975  10.038  0.00  0.00     0.162 C 
HETATM    6  C   UNK     0       7.173   1.834  11.130  0.00  0.00     0.217 C 
HETATM    7  N   UNK     0       9.351   2.124  10.257  0.00  0.00    -0.143 N 
HETATM    8  C   UNK     0       5.812   1.439  10.913  0.00  0.00     0.044 A 
HETATM    9  O   UNK     0       7.601   2.002  12.299  0.00  0.00    -0.285 OA
HETATM   10  C   UNK     0       4.957   1.044  11.973  0.00  0.00     0.003 A 
HETATM   11  C   UNK     0       5.318   1.412   9.578  0.00  0.00     0.044 A 
HETATM   12  C   UNK     0       3.654   0.588  11.707  0.00  0.00     0.000 A 
HETATM   13  C   UNK     0       3.179   0.538  10.386  0.00  0.00     0.000 A 
HETATM   14  C   UNK     0       4.002   0.957   9.325  0.00  0.00     0.003 A 
HETATM   15  C   UNK     0       6.191   1.815   8.527  0.00  0.00     0.215 C 
HETATM   16  O   UNK     0       5.743   2.059   7.381  0.00  0.00    -0.285 OA
ENDBRANCH   1   4
BRANCH   2  17
HETATM   17  C   UNK     0       8.633   4.455   7.495  0.00  0.00     0.219 C 
BRANCH  17  18
HETATM   18  N   UNK     0       8.582   5.279   6.330  0.00  0.00    -0.221 N 
HETATM   19  C   UNK     0       9.524   6.144   5.918  0.00  0.00     0.114 A 
HETATM   20  C   UNK     0       9.041   6.722   4.753  0.00  0.00     0.101 A 
HETATM   21  N   UNK     0       7.846   6.152   4.529  0.00  0.00    -0.133 NA
HETATM   22  N   UNK     0       7.604   5.301   5.477  0.00  0.00    -0.064 NA
BRANCH  20  23
HETATM   23  C   UNK     0       9.680   7.783   3.931  0.00  0.00     0.044 C 
HETATM   24  C   UNK     0      11.153   7.998   4.377  0.00  0.00     0.006 C 
BRANCH  23  25
HETATM   25  C   UNK     0       9.592   7.469   2.404  0.00  0.00     0.006 C 
BRANCH  25  26
HETATM   26  C   UNK     0      10.932   7.694   1.647  0.00  0.00     0.000 C 
HETATM   27  C   UNK     0      10.742   8.246   0.218  0.00  0.00     0.000 C 
ENDBRANCH  25  26
ENDBRANCH  23  25
ENDBRANCH  20  23
ENDBRANCH  17  18
ENDBRANCH   2  17
TORSDOF 6
ENDMDL
MODEL 3
REMARK VINA RESULT:      -7.2      2.111      8.708
REMARK  6 active torsions:
REMARK  status: ('A' for Active; 'I' for Inactive)
REMARK    1  A    between atoms: C_9  and  N_13 
REMARK       I    between atoms: N_13  and  C_14 
REMARK    2  A    between atoms: C_14  and  C_17 
REMARK    3  A    between atoms: C_17  and  N_18 
REMARK    4  A    between atoms: C_20  and  C_23 
REMARK    5  A    between atoms: C_23  and  C_25 
REMARK    6  A    between atoms: C_25  and  C_26 
ROOT
HETATM    1  N   UNK     0       8.155   3.716   9.854  0.00  0.00    -0.205 NA
HETATM    2  C   UNK     0       9.006   4.174   8.889  0.00  0.00     0.281 C 
HETATM    3  O   UNK     0       9.620   5.232   9.156  0.00  0.00    -0.268 OA
ENDROOT
BRANCH   1   4
HETATM    4  C   UNK     0       7.404   2.614   9.770  0.00  0.00     0.146 C 
HETATM    5  C   UNK     0       6.152   2.697   9.260  0.00  0.00     0.162 C 
HETATM    6  C   UNK     0       5.301   1.580   9.283  0.00  0.00     0.217 C 
HETATM    7  N   UNK     0       5.703   3.853   8.771  0.00  0.00    -0.143 N 
HETATM    8  C   UNK     0       5.680   0.406  10.015  0.00  0.00     0.044 A 
HETATM    9  O   UNK     0       4.185   1.631   8.709  0.00  0.00    -0.285 OA
HETATM   10  C   UNK     0       4.772  -0.650  10.281  0.00  0.00     0.003 A 
HETATM   11  C   UNK     0       7.009   0.320  10.517  0.00  0.00     0.044 A 
HETATM   12  C   UNK     0       5.163  -1.746  11.069  0.00  0.00     0.000 A 
HETATM   13  C   UNK     0       6.468  -1.814  11.586  0.00  0.00     0.000 A 
HETATM   14  C   UNK     0       7.392  -0.792  11.304  0.00  0.00     0.003 A 
HETATM   15  C   UNK     0       7.907   1.390  10.238  0.00  0.00     0.215 C 
HETATM   16  O   UNK     0       9.140   1.255  10.425  0.00  0.00    -0.285 OA
ENDBRANCH   1   4
BRANCH   2  17
HETATM   17  C   UNK     0       9.291   3.531   7.579  0.00  0.00     0.219 C 
BRANCH  17  18
HETATM   18  N   UNK     0       8.919   4.376   6.489  0.00  0.00    -0.221 N 
HETATM   19  C   UNK     0       9.746   4.928   5.584  0.00  0.00     0.114 A 
HETATM   20  C   UNK     0       8.946   5.670   4.727  0.00  0.00     0.101 A 
HETATM   21  N   UNK     0       7.686   5.501   5.161  0.00  0.00    -0.133 NA
HETATM   22  N   UNK     0       7.704   4.727   6.203  0.00  0.00    -0.064 NA
BRANCH  20  23
HETATM   23  C   UNK     0       9.379   6.517   3.585  0.00  0.00     0.044 C 
HETATM   24  C   UNK     0       8.181   7.345   3.043  0.00  0.00     0.006 C 
BRANCH  23  25
HETATM   25  C   UNK     0      10.578   7.442   3.967  0.00  0.00     0.006 C 
BRANCH  25  26
HETATM   26  C   UNK     0      11.867   7.156   3.145  0.00  0.00     0.000 C 
HETATM   27  C   UNK     0      11.818   5.819   2.376  0.00  0.00     0.000 C 
ENDBRANCH  25  26
ENDBRANCH  23  25
ENDBRANCH  20  23
ENDBRANCH  17  18
ENDBRANCH   2  17
TORSDOF 6
ENDMDL
MODEL 4
REMARK VINA RESULT:      -7.1     16.676     18.617
REMARK  6 active torsions:
REMARK  status: ('A' for Active; 'I' for Inactive)
REMARK    1  A    between atoms: C_9  and  N_13 
REMARK       I    between atoms: N_13  and  C_14 
REMARK    2  A    between atoms: C_14  and  C_17 
REMARK    3  A    between atoms: C_17  and  N_18 
REMARK    4  A    between atoms: C_20  and  C_23 
REMARK    5  A    between atoms: C_23  and  C_25 
REMARK    6  A    between atoms: C_25  and  C_26 
ROOT
HETATM    1  N   UNK     0      -8.368   8.473  -2.687  0.00  0.00    -0.205 NA
HETATM    2  C   UNK     0      -9.145   7.361  -2.846  0.00  0.00     0.281 C 
HETATM    3  O   UNK     0     -10.050   7.443  -3.707  0.00  0.00    -0.268 OA
ENDROOT
BRANCH   1   4
HETATM    4  C   UNK     0      -7.355   8.598  -1.825  0.00  0.00     0.146 C 
HETATM    5  C   UNK     0      -6.095   8.307  -2.229  0.00  0.00     0.162 C 
HETATM    6  C   UNK     0      -5.036   8.306  -1.306  0.00  0.00     0.217 C 
HETATM    7  N   UNK     0      -5.858   7.977  -3.499  0.00  0.00    -0.143 N 
HETATM    8  C   UNK     0      -5.310   8.423   0.097  0.00  0.00     0.044 A 
HETATM    9  O   UNK     0      -3.857   8.146  -1.707  0.00  0.00    -0.285 OA
HETATM   10  C   UNK     0      -4.322   8.184   1.086  0.00  0.00     0.003 A 
HETATM   11  C   UNK     0      -6.631   8.761   0.504  0.00  0.00     0.044 A 
HETATM   12  C   UNK     0      -4.653   8.233   2.452  0.00  0.00     0.000 A 
HETATM   13  C   UNK     0      -5.965   8.541   2.850  0.00  0.00     0.000 A 
HETATM   14  C   UNK     0      -6.949   8.813   1.883  0.00  0.00     0.003 A 
HETATM   15  C   UNK     0      -7.609   8.999  -0.504  0.00  0.00     0.215 C 
HETATM   16  O   UNK     0      -8.701   9.546  -0.219  0.00  0.00    -0.285 OA
ENDBRANCH   1   4
BRANCH   2  17
HETATM   17  C   UNK     0      -9.003   6.069  -2.125  0.00  0.00     0.219 C 
BRANCH  17  18
HETATM   18  N   UNK     0      -8.025   5.231  -2.740  0.00  0.00    -0.221 N 
HETATM   19  C   UNK     0      -8.067   4.731  -3.987  0.00  0.00     0.114 A 
HETATM   20  C   UNK     0      -6.916   3.972  -4.144  0.00  0.00     0.101 A 
HETATM   21  N   UNK     0      -6.245   4.081  -2.985  0.00  0.00    -0.133 NA
HETATM   22  N   UNK     0      -6.925   4.834  -2.177  0.00  0.00    -0.064 NA
BRANCH  20  23
HETATM   23  C   UNK     0      -6.511   3.167  -5.325  0.00  0.00     0.044 C 
HETATM   24  C   UNK     0      -4.968   3.204  -5.501  0.00  0.00     0.006 C 
BRANCH  23  25
HETATM   25  C   UNK     0      -7.034   1.698  -5.235  0.00  0.00     0.006 C 
BRANCH  25  26
HETATM   26  C   UNK     0      -8.469   1.515  -5.805  0.00  0.00     0.000 C 
HETATM   27  C   UNK     0      -9.545   1.346  -4.711  0.00  0.00     0.000 C 
ENDBRANCH  25  26
ENDBRANCH  23  25
ENDBRANCH  20  23
ENDBRANCH  17  18
ENDBRANCH   2  17
TORSDOF 6
ENDMDL
MODEL 5
REMARK VINA RESULT:      -7.0     16.547     18.502
REMARK  6 active torsions:
REMARK  status: ('A' for Active; 'I' for Inactive)
REMARK    1  A    between atoms: C_9  and  N_13 
REMARK       I    between atoms: N_13  and  C_14 
REMARK    2  A    between atoms: C_14  and  C_17 
REMARK    3  A    between atoms: C_17  and  N_18 
REMARK    4  A    between atoms: C_20  and  C_23 
REMARK    5  A    between atoms: C_23  and  C_25 
REMARK    6  A    between atoms: C_25  and  C_26 
ROOT
HETATM    1  N   UNK     0      -7.926   7.355  -3.563  0.00  0.00    -0.205 NA
HETATM    2  C   UNK     0      -7.842   7.950  -2.337  0.00  0.00     0.281 C 
HETATM    3  O   UNK     0      -8.048   9.185  -2.311  0.00  0.00    -0.268 OA
ENDROOT
BRANCH   1   4
HETATM    4  C   UNK     0      -7.740   6.056  -3.812  0.00  0.00     0.146 C 
HETATM    5  C   UNK     0      -6.531   5.627  -4.247  0.00  0.00     0.162 C 
HETATM    6  C   UNK     0      -6.351   4.290  -4.639  0.00  0.00     0.217 C 
HETATM    7  N   UNK     0      -5.513   6.482  -4.347  0.00  0.00    -0.143 N 
HETATM    8  C   UNK     0      -7.485   3.421  -4.762  0.00  0.00     0.044 A 
HETATM    9  O   UNK     0      -5.204   3.873  -4.933  0.00  0.00    -0.285 OA
HETATM   10  C   UNK     0      -7.404   2.149  -5.382  0.00  0.00     0.003 A 
HETATM   11  C   UNK     0      -8.743   3.874  -4.272  0.00  0.00     0.044 A 
HETATM   12  C   UNK     0      -8.557   1.363  -5.553  0.00  0.00     0.000 A 
HETATM   13  C   UNK     0      -9.801   1.825  -5.091  0.00  0.00     0.000 A 
HETATM   14  C   UNK     0      -9.895   3.070  -4.445  0.00  0.00     0.003 A 
HETATM   15  C   UNK     0      -8.804   5.155  -3.651  0.00  0.00     0.215 C 
HETATM   16  O   UNK     0      -9.807   5.492  -2.978  0.00  0.00    -0.285 OA
ENDBRANCH   1   4
BRANCH   2  17
HETATM   17  C   UNK     0      -7.563   7.277  -1.041  0.00  0.00     0.219 C 
BRANCH  17  18
HETATM   18  N   UNK     0      -6.293   7.664  -0.514  0.00  0.00    -0.221 N 
HETATM   19  C   UNK     0      -6.046   8.125   0.724  0.00  0.00     0.114 A 
HETATM   20  C   UNK     0      -4.684   8.378   0.782  0.00  0.00     0.101 A 
HETATM   21  N   UNK     0      -4.195   8.033  -0.421  0.00  0.00    -0.133 NA
HETATM   22  N   UNK     0      -5.171   7.612  -1.163  0.00  0.00    -0.064 NA
BRANCH  20  23
HETATM   23  C   UNK     0      -3.911   8.949   1.916  0.00  0.00     0.044 C 
HETATM   24  C   UNK     0      -4.090  10.492   1.969  0.00  0.00     0.006 C 
BRANCH  23  25
HETATM   25  C   UNK     0      -4.301   8.288   3.277  0.00  0.00     0.006 C 
BRANCH  25  26
HETATM   26  C   UNK     0      -3.823   9.096   4.517  0.00  0.00     0.000 C 
HETATM   27  C   UNK     0      -3.130   8.223   5.585  0.00  0.00     0.000 C 
ENDBRANCH  25  26
ENDBRANCH  23  25
ENDBRANCH  20  23
ENDBRANCH  17  18
ENDBRANCH   2  17
TORSDOF 6
ENDMDL
MODEL 6
REMARK VINA RESULT:      -6.9     18.856     20.648
REMARK  6 active torsions:
REMARK  status: ('A' for Active; 'I' for Inactive)
REMARK    1  A    between atoms: C_9  and  N_13 
REMARK       I    between atoms: N_13  and  C_14 
REMARK    2  A    between atoms: C_14  and  C_17 
REMARK    3  A    between atoms: C_17  and  N_18 
REMARK    4  A    between atoms: C_20  and  C_23 
REMARK    5  A    between atoms: C_23  and  C_25 
REMARK    6  A    between atoms: C_25  and  C_26 
ROOT
HETATM    1  N   UNK     0      -6.302   6.767  -2.858  0.00  0.00    -0.205 NA
HETATM    2  C   UNK     0      -7.131   7.834  -3.055  0.00  0.00     0.281 C 
HETATM    3  O   UNK     0      -6.876   8.858  -2.381  0.00  0.00    -0.268 OA
ENDROOT
BRANCH   1   4
HETATM    4  C   UNK     0      -6.399   5.583  -3.471  0.00  0.00     0.146 C 
HETATM    5  C   UNK     0      -5.691   5.360  -4.604  0.00  0.00     0.162 C 
HETATM    6  C   UNK     0      -5.877   4.174  -5.334  0.00  0.00     0.217 C 
HETATM    7  N   UNK     0      -4.843   6.282  -5.058  0.00  0.00    -0.143 N 
HETATM    8  C   UNK     0      -6.949   3.284  -4.993  0.00  0.00     0.044 A 
HETATM    9  O   UNK     0      -5.139   3.922  -6.318  0.00  0.00    -0.285 OA
HETATM   10  C   UNK     0      -7.340   2.209  -5.831  0.00  0.00     0.003 A 
HETATM   11  C   UNK     0      -7.663   3.515  -3.783  0.00  0.00     0.044 A 
HETATM   12  C   UNK     0      -8.447   1.409  -5.497  0.00  0.00     0.000 A 
HETATM   13  C   UNK     0      -9.165   1.657  -4.315  0.00  0.00     0.000 A 
HETATM   14  C   UNK     0      -8.772   2.698  -3.455  0.00  0.00     0.003 A 
HETATM   15  C   UNK     0      -7.254   4.598  -2.954  0.00  0.00     0.215 C 
HETATM   16  O   UNK     0      -7.666   4.690  -1.772  0.00  0.00    -0.285 OA
ENDBRANCH   1   4
BRANCH   2  17
HETATM   17  C   UNK     0      -8.275   7.908  -4.002  0.00  0.00     0.219 C 
BRANCH  17  18
HETATM   18  N   UNK     0      -9.422   7.228  -3.491  0.00  0.00    -0.221 N 
HETATM   19  C   UNK     0     -10.193   6.348  -4.152  0.00  0.00     0.114 A 
HETATM   20  C   UNK     0     -11.187   5.958  -3.267  0.00  0.00     0.101 A 
HETATM   21  N   UNK     0     -10.938   6.615  -2.122  0.00  0.00    -0.133 NA
HETATM   22  N   UNK     0      -9.885   7.355  -2.286  0.00  0.00    -0.064 NA
BRANCH  20  23
HETATM   23  C   UNK     0     -12.325   5.037  -3.524  0.00  0.00     0.044 C 
HETATM   24  C   UNK     0     -13.604   5.543  -2.803  0.00  0.00     0.006 C 
BRANCH  23  25
HETATM   25  C   UNK     0     -12.579   4.838  -5.053  0.00  0.00     0.006 C 
BRANCH  25  26
HETATM   26  C   UNK     0     -12.166   3.432  -5.572  0.00  0.00     0.000 C 
HETATM   27  C   UNK     0     -11.258   3.482  -6.819  0.00  0.00     0.000 C 
ENDBRANCH  25  26
ENDBRANCH  23  25
ENDBRANCH  20  23
ENDBRANCH  17  18
ENDBRANCH   2  17
TORSDOF 6
ENDMDL
MODEL 7
REMARK VINA RESULT:      -6.9     18.373     20.131
REMARK  6 active torsions:
REMARK  status: ('A' for Active; 'I' for Inactive)
REMARK    1  A    between atoms: C_9  and  N_13 
REMARK       I    between atoms: N_13  and  C_14 
REMARK    2  A    between atoms: C_14  and  C_17 
REMARK    3  A    between atoms: C_17  and  N_18 
REMARK    4  A    between atoms: C_20  and  C_23 
REMARK    5  A    between atoms: C_23  and  C_25 
REMARK    6  A    between atoms: C_25  and  C_26 
ROOT
HETATM    1  N   UNK     0      -5.557   3.621  -3.908  0.00  0.00    -0.205 NA
HETATM    2  C   UNK     0      -5.677   2.790  -4.984  0.00  0.00     0.281 C 
HETATM    3  O   UNK     0      -4.856   1.846  -5.042  0.00  0.00    -0.268 OA
ENDROOT
BRANCH   1   4
HETATM    4  C   UNK     0      -6.325   4.686  -3.657  0.00  0.00     0.146 C 
HETATM    5  C   UNK     0      -6.043   5.867  -4.258  0.00  0.00     0.162 C 
HETATM    6  C   UNK     0      -6.755   7.027  -3.911  0.00  0.00     0.217 C 
HETATM    7  N   UNK     0      -5.059   5.946  -5.153  0.00  0.00    -0.143 N 
HETATM    8  C   UNK     0      -7.647   7.010  -2.788  0.00  0.00     0.044 A 
HETATM    9  O   UNK     0      -6.567   8.092  -4.550  0.00  0.00    -0.285 OA
HETATM   10  C   UNK     0      -8.201   8.195  -2.239  0.00  0.00     0.003 A 
HETATM   11  C   UNK     0      -7.958   5.757  -2.187  0.00  0.00     0.044 A 
HETATM   12  C   UNK     0      -9.008   8.140  -1.090  0.00  0.00     0.000 A 
HETATM   13  C   UNK     0      -9.291   6.904  -0.484  0.00  0.00     0.000 A 
HETATM   14  C   UNK     0      -8.778   5.715  -1.034  0.00  0.00     0.003 A 
HETATM   15  C   UNK     0      -7.394   4.579  -2.754  0.00  0.00     0.215 C 
HETATM   16  O   UNK     0      -7.829   3.445  -2.439  0.00  0.00    -0.285 OA
ENDBRANCH   1   4
BRANCH   2  17
HETATM   17  C   UNK     0      -6.693   2.879  -6.066  0.00  0.00     0.219 C 
BRANCH  17  18
HETATM   18  N   UNK     0      -7.965   2.400  -5.630  0.00  0.00    -0.221 N 
HETATM   19  C   UNK     0      -9.118   3.091  -5.610  0.00  0.00     0.114 A 
HETATM   20  C   UNK     0     -10.081   2.230  -5.103  0.00  0.00     0.101 A 
HETATM   21  N   UNK     0      -9.447   1.069  -4.868  0.00  0.00    -0.133 NA
HETATM   22  N   UNK     0      -8.198   1.201  -5.192  0.00  0.00    -0.064 NA
BRANCH  20  23
HETATM   23  C   UNK     0     -11.512   2.524  -4.831  0.00  0.00     0.044 C 
HETATM   24  C   UNK     0     -11.888   2.089  -3.388  0.00  0.00     0.006 C 
BRANCH  23  25
HETATM   25  C   UNK     0     -11.854   4.028  -5.075  0.00  0.00     0.006 C 
BRANCH  25  26
HETATM   26  C   UNK     0     -11.907   4.871  -3.769  0.00  0.00     0.000 C 
HETATM   27  C   UNK     0     -11.159   6.216  -3.877  0.00  0.00     0.000 C 
ENDBRANCH  25  26
ENDBRANCH  23  25
ENDBRANCH  20  23
ENDBRANCH  17  18
ENDBRANCH   2  17
TORSDOF 6
ENDMDL
MODEL 8
REMARK VINA RESULT:      -6.9     17.997     20.676
REMARK  6 active torsions:
REMARK  status: ('A' for Active; 'I' for Inactive)
REMARK    1  A    between atoms: C_9  and  N_13 
REMARK       I    between atoms: N_13  and  C_14 
REMARK    2  A    between atoms: C_14  and  C_17 
REMARK    3  A    between atoms: C_17  and  N_18 
REMARK    4  A    between atoms: C_20  and  C_23 
REMARK    5  A    between atoms: C_23  and  C_25 
REMARK    6  A    between atoms: C_25  and  C_26 
ROOT
HETATM    1  N   UNK     0      -7.336   2.908  -3.936  0.00  0.00    -0.205 NA
HETATM    2  C   UNK     0      -6.146   3.524  -4.200  0.00  0.00     0.281 C 
HETATM    3  O   UNK     0      -5.144   3.053  -3.616  0.00  0.00    -0.268 OA
ENDROOT
BRANCH   1   4
HETATM    4  C   UNK     0      -8.521   3.251  -4.450  0.00  0.00     0.146 C 
HETATM    5  C   UNK     0      -9.027   2.545  -5.489  0.00  0.00     0.162 C 
HETATM    6  C   UNK     0     -10.205   2.967  -6.126  0.00  0.00     0.217 C 
HETATM    7  N   UNK     0      -8.387   1.467  -5.941  0.00  0.00    -0.143 N 
HETATM    8  C   UNK     0     -10.772   4.246  -5.809  0.00  0.00     0.044 A 
HETATM    9  O   UNK     0     -10.730   2.248  -7.013  0.00  0.00    -0.285 OA
HETATM   10  C   UNK     0     -11.806   4.832  -6.583  0.00  0.00     0.003 A 
HETATM   11  C   UNK     0     -10.250   4.961  -4.695  0.00  0.00     0.044 A 
HETATM   12  C   UNK     0     -12.278   6.121  -6.283  0.00  0.00     0.000 A 
HETATM   13  C   UNK     0     -11.742   6.836  -5.199  0.00  0.00     0.000 A 
HETATM   14  C   UNK     0     -10.739   6.257  -4.400  0.00  0.00     0.003 A 
HETATM   15  C   UNK     0      -9.213   4.355  -3.929  0.00  0.00     0.215 C 
HETATM   16  O   UNK     0      -8.899   4.812  -2.803  0.00  0.00    -0.285 OA
ENDBRANCH   1   4
BRANCH   2  17
HETATM   17  C   UNK     0      -5.924   4.665  -5.126  0.00  0.00     0.219 C 
BRANCH  17  18
HETATM   18  N   UNK     0      -5.607   5.862  -4.414  0.00  0.00    -0.221 N 
HETATM   19  C   UNK     0      -4.812   6.860  -4.837  0.00  0.00     0.114 A 
HETATM   20  C   UNK     0      -4.791   7.801  -3.818  0.00  0.00     0.101 A 
HETATM   21  N   UNK     0      -5.591   7.316  -2.854  0.00  0.00    -0.133 NA
HETATM   22  N   UNK     0      -6.061   6.170  -3.239  0.00  0.00    -0.064 NA
BRANCH  20  23
HETATM   23  C   UNK     0      -4.017   9.069  -3.766  0.00  0.00     0.044 C 
HETATM   24  C   UNK     0      -3.511   9.335  -2.322  0.00  0.00     0.006 C 
BRANCH  23  25
HETATM   25  C   UNK     0      -2.836   9.072  -4.788  0.00  0.00     0.006 C 
BRANCH  25  26
HETATM   26  C   UNK     0      -1.520   8.474  -4.216  0.00  0.00     0.000 C 
HETATM   27  C   UNK     0      -0.311   9.425  -4.339  0.00  0.00     0.000 C 
ENDBRANCH  25  26
ENDBRANCH  23  25
ENDBRANCH  20  23
ENDBRANCH  17  18
ENDBRANCH   2  17
TORSDOF 6
ENDMDL
MODEL 9
REMARK VINA RESULT:      -6.8     12.084     14.518
REMARK  6 active torsions:
REMARK  status: ('A' for Active; 'I' for Inactive)
REMARK    1  A    between atoms: C_9  and  N_13 
REMARK       I    between atoms: N_13  and  C_14 
REMARK    2  A    between atoms: C_14  and  C_17 
REMARK    3  A    between atoms: C_17  and  N_18 
REMARK    4  A    between atoms: C_20  and  C_23 
REMARK    5  A    between atoms: C_23  and  C_25 
REMARK    6  A    between atoms: C_25  and  C_26 
ROOT
HETATM    1  N   UNK     0       7.749   6.952  -7.020  0.00  0.00    -0.205 NA
HETATM    2  C   UNK     0       7.506   7.985  -6.160  0.00  0.00     0.281 C 
HETATM    3  O   UNK     0       7.880   9.117  -6.543  0.00  0.00    -0.268 OA
ENDROOT
BRANCH   1   4
HETATM    4  C   UNK     0       7.435   5.671  -6.805  0.00  0.00     0.146 C 
HETATM    5  C   UNK     0       6.347   5.141  -7.414  0.00  0.00     0.162 C 
HETATM    6  C   UNK     0       5.925   3.837  -7.103  0.00  0.00     0.217 C 
HETATM    7  N   UNK     0       5.645   5.867  -8.283  0.00  0.00    -0.143 N 
HETATM    8  C   UNK     0       6.523   3.134  -6.005  0.00  0.00     0.044 A 
HETATM    9  O   UNK     0       4.987   3.312  -7.750  0.00  0.00    -0.285 OA
HETATM   10  C   UNK     0       5.982   1.930  -5.488  0.00  0.00     0.003 A 
HETATM   11  C   UNK     0       7.684   3.690  -5.396  0.00  0.00     0.044 A 
HETATM   12  C   UNK     0       6.554   1.316  -4.361  0.00  0.00     0.000 A 
HETATM   13  C   UNK     0       7.685   1.881  -3.746  0.00  0.00     0.000 A 
HETATM   14  C   UNK     0       8.255   3.057  -4.265  0.00  0.00     0.003 A 
HETATM   15  C   UNK     0       8.215   4.899  -5.931  0.00  0.00     0.215 C 
HETATM   16  O   UNK     0       9.363   5.290  -5.612  0.00  0.00    -0.285 OA
ENDBRANCH   1   4
BRANCH   2  17
HETATM   17  C   UNK     0       6.821   7.902  -4.843  0.00  0.00     0.219 C 
BRANCH  17  18
HETATM   18  N   UNK     0       5.429   7.620  -4.994  0.00  0.00    -0.221 N 
HETATM   19  C   UNK     0       4.510   8.409  -5.577  0.00  0.00     0.114 A 
HETATM   20  C   UNK     0       3.301   7.734  -5.483  0.00  0.00     0.101 A 
HETATM   21  N   UNK     0       3.576   6.573  -4.867  0.00  0.00    -0.133 NA
HETATM   22  N   UNK     0       4.843   6.534  -4.593  0.00  0.00    -0.064 NA
BRANCH  20  23
HETATM   23  C   UNK     0       1.963   8.200  -5.931  0.00  0.00     0.044 C 
HETATM   24  C   UNK     0       0.938   8.096  -4.768  0.00  0.00     0.006 C 
BRANCH  23  25
HETATM   25  C   UNK     0       2.015   9.650  -6.509  0.00  0.00     0.006 C 
BRANCH  25  26
HETATM   26  C   UNK     0       1.436  10.723  -5.544  0.00  0.00     0.000 C 
HETATM   27  C   UNK     0       2.524  11.538  -4.812  0.00  0.00     0.000 C 
ENDBRANCH  25  26
ENDBRANCH  23  25
ENDBRANCH  20  23
ENDBRANCH  17  18
ENDBRANCH   2  17
TORSDOF 6
ENDMDL
