MODEL 1
REMARK VINA RESULT:      -7.6      0.000      0.000
REMARK  4 active torsions:
REMARK  status: ('A' for Active; 'I' for Inactive)
REMARK    1  A    between atoms: C_9  and  N_13 
REMARK       I    between atoms: N_13  and  C_14 
REMARK    2  A    between atoms: C_14  and  C_17 
REMARK    3  A    between atoms: C_17  and  N_18 
REMARK    4  A    between atoms: C_20  and  C_23 
ROOT
HETATM    1  C   UNK     0       8.345   6.869   3.322  0.00  0.00     0.003 A 
HETATM    2  C   UNK     0       8.797   7.801   2.372  0.00  0.00     0.000 A 
HETATM    3  C   UNK     0      10.016   8.467   2.568  0.00  0.00     0.000 A 
HETATM    4  C   UNK     0      10.787   8.202   3.714  0.00  0.00     0.003 A 
HETATM    5  C   UNK     0      10.342   7.276   4.688  0.00  0.00     0.044 A 
HETATM    6  C   UNK     0       9.106   6.599   4.485  0.00  0.00     0.044 A 
HETATM    7  C   UNK     0      11.085   6.999   5.879  0.00  0.00     0.217 C 
HETATM    8  C   UNK     0      10.539   6.181   6.881  0.00  0.00     0.162 C 
HETATM    9  C   UNK     0       9.347   5.564   6.702  0.00  0.00     0.146 C 
HETATM   10  C   UNK     0       8.675   5.667   5.473  0.00  0.00     0.215 C 
HETATM   11  O   UNK     0       7.712   4.900   5.229  0.00  0.00    -0.285 OA
HETATM   12  O   UNK     0      12.229   7.493   6.030  0.00  0.00    -0.285 OA
HETATM   13  N   UNK     0      11.203   6.037   8.023  0.00  0.00    -0.143 N 
ENDROOT
BRANCH   9  14
HETATM   14  N   UNK     0       8.815   4.839   7.697  0.00  0.00    -0.205 NA
HETATM   15  C   UNK     0       9.028   3.504   7.913  0.00  0.00     0.281 C 
HETATM   16  O   UNK     0       9.692   2.806   7.109  0.00  0.00    -0.268 OA
BRANCH  15  17
HETATM   17  C   UNK     0       8.468   2.866   9.122  0.00  0.00     0.219 C 
BRANCH  17  18
HETATM   18  N   UNK     0       7.158   2.354   8.874  0.00  0.00    -0.221 N 
HETATM   19  C   UNK     0       6.264   1.968   9.796  0.00  0.00     0.114 A 
HETATM   20  C   UNK     0       5.159   1.518   9.091  0.00  0.00     0.101 A 
HETATM   21  N   UNK     0       5.447   1.674   7.791  0.00  0.00    -0.133 NA
HETATM   22  N   UNK     0       6.640   2.177   7.696  0.00  0.00    -0.064 NA
BRANCH  20  23
HETATM   23  C   UNK     0       3.894   1.007   9.644  0.00  0.00     0.044 A 
HETATM   24  C   UNK     0       3.674  -0.517   9.672  0.00  0.00     0.006 A 
HETATM   25  C   UNK     0       3.958   0.237  10.975  0.00  0.00     0.006 A 
ENDBRANCH  20  23
ENDBRANCH  17  18
ENDBRANCH  15  17
ENDBRANCH   9  14
TORSDOF 4
ENDMDL
MODEL 2
REMARK VINA RESULT:      -7.4      2.352      8.876
REMARK  4 active torsions:
REMARK  status: ('A' for Active; 'I' for Inactive)
REMARK    1  A    between atoms: C_9  and  N_13 
REMARK       I    between atoms: N_13  and  C_14 
REMARK    2  A    between atoms: C_14  and  C_17 
REMARK    3  A    between atoms: C_17  and  N_18 
REMARK    4  A    between atoms: C_20  and  C_23 
ROOT
HETATM    1  C   UNK     0       4.959   1.756  13.001  0.00  0.00     0.003 A 
HETATM    2  C   UNK     0       3.772   1.312  13.606  0.00  0.00     0.000 A 
HETATM    3  C   UNK     0       2.887   0.489  12.892  0.00  0.00     0.000 A 
HETATM    4  C   UNK     0       3.187   0.109  11.573  0.00  0.00     0.003 A 
HETATM    5  C   UNK     0       4.372   0.558  10.942  0.00  0.00     0.044 A 
HETATM    6  C   UNK     0       5.271   1.389  11.669  0.00  0.00     0.044 A 
HETATM    7  C   UNK     0       4.701   0.214   9.592  0.00  0.00     0.217 C 
HETATM    8  C   UNK     0       5.813   0.794   8.963  0.00  0.00     0.162 C 
HETATM    9  C   UNK     0       6.649   1.612   9.646  0.00  0.00     0.146 C 
HETATM   10  C   UNK     0       6.461   1.828  11.020  0.00  0.00     0.215 C 
HETATM   11  O   UNK     0       7.371   2.375  11.690  0.00  0.00    -0.285 OA
HETATM   12  O   UNK     0       3.988  -0.608   8.966  0.00  0.00    -0.285 OA
HETATM   13  N   UNK     0       6.024   0.544   7.675  0.00  0.00    -0.143 N 
ENDROOT
BRANCH   9  14
HETATM   14  N   UNK     0       7.670   2.206   9.008  0.00  0.00    -0.205 NA
HETATM   15  C   UNK     0       7.668   3.485   8.519  0.00  0.00     0.281 C 
HETATM   16  O   UNK     0       6.635   4.198   8.548  0.00  0.00    -0.268 OA
BRANCH  15  17
HETATM   17  C   UNK     0       8.908   4.044   7.945  0.00  0.00     0.219 C 
BRANCH  17  18
HETATM   18  N   UNK     0       8.634   4.799   6.764  0.00  0.00    -0.221 N 
HETATM   19  C   UNK     0       9.317   5.865   6.321  0.00  0.00     0.114 A 
HETATM   20  C   UNK     0       8.671   6.280   5.168  0.00  0.00     0.101 A 
HETATM   21  N   UNK     0       7.649   5.434   4.978  0.00  0.00    -0.133 NA
HETATM   22  N   UNK     0       7.657   4.564   5.942  0.00  0.00    -0.064 NA
BRANCH  20  23
HETATM   23  C   UNK     0       9.044   7.401   4.289  0.00  0.00     0.044 A 
HETATM   24  C   UNK     0       9.966   7.111   3.090  0.00  0.00     0.006 A 
HETATM   25  C   UNK     0       8.480   7.402   2.858  0.00  0.00     0.006 A 
ENDBRANCH  20  23
ENDBRANCH  17  18
ENDBRANCH  15  17
ENDBRANCH   9  14
TORSDOF 4
ENDMDL
MODEL 3
REMARK VINA RESULT:      -7.4      2.216      7.999
REMARK  4 active torsions:
REMARK  status: ('A' for Active; 'I' for Inactive)
REMARK    1  A    between atoms: C_9  and  N_13 
REMARK       I    between atoms: N_13  and  C_14 
REMARK    2  A    between atoms: C_14  and  C_17 
REMARK    3  A    between atoms: C_17  and  N_18 
REMARK    4  A    between atoms: C_20  and  C_23 
ROOT
HETATM    1  C   UNK     0       4.269   0.670   9.265  0.00  0.00     0.003 A 
HETATM    2  C   UNK     0       3.396  -0.089  10.061  0.00  0.00     0.000 A 
HETATM    3  C   UNK     0       3.322   0.149  11.442  0.00  0.00     0.000 A 
HETATM    4  C   UNK     0       4.119   1.146  12.029  0.00  0.00     0.003 A 
HETATM    5  C   UNK     0       5.014   1.913  11.245  0.00  0.00     0.044 A 
HETATM    6  C   UNK     0       5.085   1.673   9.843  0.00  0.00     0.044 A 
HETATM    7  C   UNK     0       5.861   2.919  11.808  0.00  0.00     0.217 C 
HETATM    8  C   UNK     0       6.830   3.555  11.018  0.00  0.00     0.162 C 
HETATM    9  C   UNK     0       6.920   3.301   9.691  0.00  0.00     0.146 C 
HETATM   10  C   UNK     0       5.989   2.456   9.068  0.00  0.00     0.215 C 
HETATM   11  O   UNK     0       5.924   2.424   7.814  0.00  0.00    -0.285 OA
HETATM   12  O   UNK     0       5.738   3.232  13.018  0.00  0.00    -0.285 OA
HETATM   13  N   UNK     0       7.677   4.399  11.597  0.00  0.00    -0.143 N 
ENDROOT
BRANCH   9  14
HETATM   14  N   UNK     0       7.896   3.872   8.966  0.00  0.00    -0.205 NA
HETATM   15  C   UNK     0       9.026   3.245   8.518  0.00  0.00     0.281 C 
HETATM   16  O   UNK     0       9.295   2.062   8.842  0.00  0.00    -0.268 OA
BRANCH  15  17
HETATM   17  C   UNK     0       9.955   3.971   7.628  0.00  0.00     0.219 C 
BRANCH  17  18
HETATM   18  N   UNK     0       9.246   4.671   6.605  0.00  0.00    -0.221 N 
HETATM   19  C   UNK     0       9.480   5.923   6.186  0.00  0.00     0.114 A 
HETATM   20  C   UNK     0       8.530   6.183   5.211  0.00  0.00     0.101 A 
HETATM   21  N   UNK     0       7.792   5.070   5.092  0.00  0.00    -0.133 NA
HETATM   22  N   UNK     0       8.246   4.190   5.931  0.00  0.00    -0.064 NA
BRANCH  20  23
HETATM   23  C   UNK     0       8.374   7.416   4.422  0.00  0.00     0.044 A 
HETATM   24  C   UNK     0       9.532   7.843   3.501  0.00  0.00     0.006 A 
HETATM   25  C   UNK     0       8.244   7.273   2.896  0.00  0.00     0.006 A 
ENDBRANCH  20  23
ENDBRANCH  17  18
ENDBRANCH  15  17
ENDBRANCH   9  14
TORSDOF 4
ENDMDL
MODEL 4
REMARK VINA RESULT:      -7.4     17.034     19.133
REMARK  4 active torsions:
REMARK  status: ('A' for Active; 'I' for Inactive)
REMARK    1  A    between atoms: C_9  and  N_13 
REMARK       I    between atoms: N_13  and  C_14 
REMARK    2  A    between atoms: C_14  and  C_17 
REMARK    3  A    between atoms: C_17  and  N_18 
REMARK    4  A    between atoms: C_20  and  C_23 
ROOT
HETATM    1  C   UNK     0      -9.827   3.278  -3.216  0.00  0.00     0.003 A 
HETATM    2  C   UNK     0     -10.615   2.247  -3.755  0.00  0.00     0.000 A 
HETATM    3  C   UNK     0     -10.127   1.477  -4.823  0.00  0.00     0.000 A 
HETATM    4  C   UNK     0      -8.851   1.736  -5.352  0.00  0.00     0.003 A 
HETATM    5  C   UNK     0      -8.048   2.779  -4.830  0.00  0.00     0.044 A 
HETATM    6  C   UNK     0      -8.543   3.556  -3.745  0.00  0.00     0.044 A 
HETATM    7  C   UNK     0      -6.755   3.090  -5.358  0.00  0.00     0.217 C 
HETATM    8  C   UNK     0      -6.056   4.218  -4.903  0.00  0.00     0.162 C 
HETATM    9  C   UNK     0      -6.543   4.978  -3.894  0.00  0.00     0.146 C 
HETATM   10  C   UNK     0      -7.721   4.599  -3.229  0.00  0.00     0.215 C 
HETATM   11  O   UNK     0      -8.026   5.157  -2.147  0.00  0.00    -0.285 OA
HETATM   12  O   UNK     0      -6.245   2.351  -6.236  0.00  0.00    -0.285 OA
HETATM   13  N   UNK     0      -4.912   4.545  -5.495  0.00  0.00    -0.143 N 
ENDROOT
BRANCH   9  14
HETATM   14  N   UNK     0      -5.890   6.088  -3.518  0.00  0.00    -0.205 NA
HETATM   15  C   UNK     0      -6.309   7.373  -3.740  0.00  0.00     0.281 C 
HETATM   16  O   UNK     0      -7.332   7.622  -4.423  0.00  0.00    -0.268 OA
BRANCH  15  17
HETATM   17  C   UNK     0      -5.544   8.496  -3.162  0.00  0.00     0.219 C 
BRANCH  17  18
HETATM   18  N   UNK     0      -5.379   8.335  -1.753  0.00  0.00    -0.221 N 
HETATM   19  C   UNK     0      -6.314   8.534  -0.812  0.00  0.00     0.114 A 
HETATM   20  C   UNK     0      -5.693   8.291   0.402  0.00  0.00     0.101 A 
HETATM   21  N   UNK     0      -4.428   7.946   0.120  0.00  0.00    -0.133 NA
HETATM   22  N   UNK     0      -4.275   7.979  -1.169  0.00  0.00    -0.064 NA
BRANCH  20  23
HETATM   23  C   UNK     0      -6.297   8.351   1.743  0.00  0.00     0.044 A 
HETATM   24  C   UNK     0      -6.264   9.693   2.497  0.00  0.00     0.006 A 
HETATM   25  C   UNK     0      -7.582   9.180   1.909  0.00  0.00     0.006 A 
ENDBRANCH  20  23
ENDBRANCH  17  18
ENDBRANCH  15  17
ENDBRANCH   9  14
TORSDOF 4
ENDMDL
MODEL 5
REMARK VINA RESULT:      -7.4     16.840     18.994
REMARK  4 active torsions:
REMARK  status: ('A' for Active; 'I' for Inactive)
REMARK    1  A    between atoms: C_9  and  N_13 
REMARK       I    between atoms: N_13  and  C_14 
REMARK    2  A    between atoms: C_14  and  C_17 
REMARK    3  A    between atoms: C_17  and  N_18 
REMARK    4  A    between atoms: C_20  and  C_23 
ROOT
HETATM    1  C   UNK     0      -9.890   3.175  -3.214  0.00  0.00     0.003 A 
HETATM    2  C   UNK     0     -10.643   2.147  -3.807  0.00  0.00     0.000 A 
HETATM    3  C   UNK     0     -10.115   1.427  -4.890  0.00  0.00     0.000 A 
HETATM    4  C   UNK     0      -8.835   1.733  -5.382  0.00  0.00     0.003 A 
HETATM    5  C   UNK     0      -8.067   2.774  -4.806  0.00  0.00     0.044 A 
HETATM    6  C   UNK     0      -8.603   3.501  -3.705  0.00  0.00     0.044 A 
HETATM    7  C   UNK     0      -6.771   3.133  -5.295  0.00  0.00     0.217 C 
HETATM    8  C   UNK     0      -6.108   4.260  -4.786  0.00  0.00     0.162 C 
HETATM    9  C   UNK     0      -6.634   4.971  -3.761  0.00  0.00     0.146 C 
HETATM   10  C   UNK     0      -7.815   4.543  -3.136  0.00  0.00     0.215 C 
HETATM   11  O   UNK     0      -8.156   5.055  -2.041  0.00  0.00    -0.285 OA
HETATM   12  O   UNK     0      -6.226   2.438  -6.187  0.00  0.00    -0.285 OA
HETATM   13  N   UNK     0      -4.960   4.633  -5.341  0.00  0.00    -0.143 N 
ENDROOT
BRANCH   9  14
HETATM   14  N   UNK     0      -6.014   6.082  -3.332  0.00  0.00    -0.205 NA
HETATM   15  C   UNK     0      -6.427   7.366  -3.567  0.00  0.00     0.281 C 
HETATM   16  O   UNK     0      -7.406   7.616  -4.312  0.00  0.00    -0.268 OA
BRANCH  15  17
HETATM   17  C   UNK     0      -5.709   8.488  -2.930  0.00  0.00     0.219 C 
BRANCH  17  18
HETATM   18  N   UNK     0      -5.702   8.352  -1.508  0.00  0.00    -0.221 N 
HETATM   19  C   UNK     0      -4.622   8.337  -0.713  0.00  0.00     0.114 A 
HETATM   20  C   UNK     0      -5.099   8.154   0.575  0.00  0.00     0.101 A 
HETATM   21  N   UNK     0      -6.434   8.085   0.481  0.00  0.00    -0.133 NA
HETATM   22  N   UNK     0      -6.760   8.210  -0.770  0.00  0.00    -0.064 NA
BRANCH  20  23
HETATM   23  C   UNK     0      -4.312   8.088   1.818  0.00  0.00     0.044 A 
HETATM   24  C   UNK     0      -3.996   9.406   2.550  0.00  0.00     0.006 A 
HETATM   25  C   UNK     0      -5.030   8.437   3.133  0.00  0.00     0.006 A 
ENDBRANCH  20  23
ENDBRANCH  17  18
ENDBRANCH  15  17
ENDBRANCH   9  14
TORSDOF 4
ENDMDL
MODEL 6
REMARK VINA RESULT:      -7.1     14.775     16.522
REMARK  4 active torsions:
REMARK  status: ('A' for Active; 'I' for Inactive)
REMARK    1  A    between atoms: C_9  and  N_13 
REMARK       I    between atoms: N_13  and  C_14 
REMARK    2  A    between atoms: C_14  and  C_17 
REMARK    3  A    between atoms: C_17  and  N_18 
REMARK    4  A    between atoms: C_20  and  C_23 
ROOT
HETATM    1  C   UNK     0      -2.571  10.887  -2.378  0.00  0.00     0.003 A 
HETATM    2  C   UNK     0      -1.815  12.042  -2.119  0.00  0.00     0.000 A 
HETATM    3  C   UNK     0      -1.597  12.455  -0.796  0.00  0.00     0.000 A 
HETATM    4  C   UNK     0      -2.134  11.713   0.271  0.00  0.00     0.003 A 
HETATM    5  C   UNK     0      -2.909  10.554   0.029  0.00  0.00     0.044 A 
HETATM    6  C   UNK     0      -3.126  10.135  -1.315  0.00  0.00     0.044 A 
HETATM    7  C   UNK     0      -3.494   9.786   1.086  0.00  0.00     0.217 C 
HETATM    8  C   UNK     0      -4.370   8.729   0.794  0.00  0.00     0.162 C 
HETATM    9  C   UNK     0      -4.602   8.353  -0.485  0.00  0.00     0.146 C 
HETATM   10  C   UNK     0      -3.906   8.964  -1.540  0.00  0.00     0.215 C 
HETATM   11  O   UNK     0      -3.938   8.446  -2.684  0.00  0.00    -0.285 OA
HETATM   12  O   UNK     0      -3.226  10.064   2.280  0.00  0.00    -0.285 OA
HETATM   13  N   UNK     0      -4.986   8.112   1.797  0.00  0.00    -0.143 N 
ENDROOT
BRANCH   9  14
HETATM   14  N   UNK     0      -5.492   7.381  -0.744  0.00  0.00    -0.205 NA
HETATM   15  C   UNK     0      -6.764   7.569  -1.211  0.00  0.00     0.281 C 
HETATM   16  O   UNK     0      -7.250   8.718  -1.351  0.00  0.00    -0.268 OA
BRANCH  15  17
HETATM   17  C   UNK     0      -7.589   6.396  -1.564  0.00  0.00     0.219 C 
BRANCH  17  18
HETATM   18  N   UNK     0      -6.969   5.620  -2.590  0.00  0.00    -0.221 N 
HETATM   19  C   UNK     0      -6.953   4.283  -2.681  0.00  0.00     0.114 A 
HETATM   20  C   UNK     0      -6.212   3.985  -3.812  0.00  0.00     0.101 A 
HETATM   21  N   UNK     0      -5.838   5.158  -4.343  0.00  0.00    -0.133 NA
HETATM   22  N   UNK     0      -6.307   6.110  -3.595  0.00  0.00    -0.064 NA
BRANCH  20  23
HETATM   23  C   UNK     0      -5.918   2.651  -4.363  0.00  0.00     0.044 A 
HETATM   24  C   UNK     0      -6.529   2.275  -5.726  0.00  0.00     0.006 A 
HETATM   25  C   UNK     0      -5.031   2.579  -5.618  0.00  0.00     0.006 A 
ENDBRANCH  20  23
ENDBRANCH  17  18
ENDBRANCH  15  17
ENDBRANCH   9  14
TORSDOF 4
ENDMDL
MODEL 7
REMARK VINA RESULT:      -7.1      2.426      8.814
REMARK  4 active torsions:
REMARK  status: ('A' for Active; 'I' for Inactive)
REMARK    1  A    between atoms: C_9  and  N_13 
REMARK       I    between atoms: N_13  and  C_14 
REMARK    2  A    between atoms: C_14  and  C_17 
REMARK    3  A    between atoms: C_17  and  N_18 
REMARK    4  A    between atoms: C_20  and  C_23 
ROOT
HETATM    1  C   UNK     0       7.513  -1.079  12.200  0.00  0.00     0.003 A 
HETATM    2  C   UNK     0       6.783  -2.197  12.637  0.00  0.00     0.000 A 
HETATM    3  C   UNK     0       5.581  -2.543  11.998  0.00  0.00     0.000 A 
HETATM    4  C   UNK     0       5.108  -1.771  10.923  0.00  0.00     0.003 A 
HETATM    5  C   UNK     0       5.824  -0.634  10.477  0.00  0.00     0.044 A 
HETATM    6  C   UNK     0       7.044  -0.287  11.123  0.00  0.00     0.044 A 
HETATM    7  C   UNK     0       5.362   0.191   9.403  0.00  0.00     0.217 C 
HETATM    8  C   UNK     0       6.029   1.385   9.089  0.00  0.00     0.162 C 
HETATM    9  C   UNK     0       7.171   1.732   9.727  0.00  0.00     0.146 C 
HETATM   10  C   UNK     0       7.753   0.859  10.660  0.00  0.00     0.215 C 
HETATM   11  O   UNK     0       8.926   1.068  11.055  0.00  0.00    -0.285 OA
HETATM   12  O   UNK     0       4.352  -0.153   8.741  0.00  0.00    -0.285 OA
HETATM   13  N   UNK     0       5.509   2.185   8.164  0.00  0.00    -0.143 N 
ENDROOT
BRANCH   9  14
HETATM   14  N   UNK     0       7.758   2.908   9.455  0.00  0.00    -0.205 NA
HETATM   15  C   UNK     0       8.724   3.117   8.509  0.00  0.00     0.281 C 
HETATM   16  O   UNK     0       9.224   2.167   7.859  0.00  0.00    -0.268 OA
BRANCH  15  17
HETATM   17  C   UNK     0       9.191   4.492   8.240  0.00  0.00     0.219 C 
BRANCH  17  18
HETATM   18  N   UNK     0       8.875   4.891   6.906  0.00  0.00    -0.221 N 
HETATM   19  C   UNK     0       9.701   5.489   6.034  0.00  0.00     0.114 A 
HETATM   20  C   UNK     0       8.952   5.713   4.891  0.00  0.00     0.101 A 
HETATM   21  N   UNK     0       7.728   5.224   5.135  0.00  0.00    -0.133 NA
HETATM   22  N   UNK     0       7.717   4.740   6.339  0.00  0.00    -0.064 NA
BRANCH  20  23
HETATM   23  C   UNK     0       9.406   6.325   3.631  0.00  0.00     0.044 A 
HETATM   24  C   UNK     0       8.505   7.384   2.970  0.00  0.00     0.006 A 
HETATM   25  C   UNK     0       9.803   7.811   3.663  0.00  0.00     0.006 A 
ENDBRANCH  20  23
ENDBRANCH  17  18
ENDBRANCH  15  17
ENDBRANCH   9  14
TORSDOF 4
ENDMDL
MODEL 8
REMARK VINA RESULT:      -7.0     15.011     16.905
REMARK  4 active torsions:
REMARK  status: ('A' for Active; 'I' for Inactive)
REMARK    1  A    between atoms: C_9  and  N_13 
REMARK       I    between atoms: N_13  and  C_14 
REMARK    2  A    between atoms: C_14  and  C_17 
REMARK    3  A    between atoms: C_17  and  N_18 
REMARK    4  A    between atoms: C_20  and  C_23 
ROOT
HETATM    1  C   UNK     0      -5.073   8.170   2.631  0.00  0.00     0.003 A 
HETATM    2  C   UNK     0      -4.562   8.589   3.870  0.00  0.00     0.000 A 
HETATM    3  C   UNK     0      -3.568   9.578   3.921  0.00  0.00     0.000 A 
HETATM    4  C   UNK     0      -3.084  10.151   2.732  0.00  0.00     0.003 A 
HETATM    5  C   UNK     0      -3.578   9.732   1.473  0.00  0.00     0.044 A 
HETATM    6  C   UNK     0      -4.589   8.731   1.425  0.00  0.00     0.044 A 
HETATM    7  C   UNK     0      -3.093  10.273   0.240  0.00  0.00     0.217 C 
HETATM    8  C   UNK     0      -3.509   9.729  -0.985  0.00  0.00     0.162 C 
HETATM    9  C   UNK     0      -4.446   8.753  -1.029  0.00  0.00     0.146 C 
HETATM   10  C   UNK     0      -5.077   8.324   0.149  0.00  0.00     0.215 C 
HETATM   11  O   UNK     0      -6.108   7.611   0.075  0.00  0.00    -0.285 OA
HETATM   12  O   UNK     0      -2.287  11.235   0.254  0.00  0.00    -0.285 OA
HETATM   13  N   UNK     0      -2.953  10.175  -2.107  0.00  0.00    -0.143 N 
ENDROOT
BRANCH   9  14
HETATM   14  N   UNK     0      -4.783   8.203  -2.207  0.00  0.00    -0.205 NA
HETATM   15  C   UNK     0      -5.807   8.617  -3.015  0.00  0.00     0.281 C 
HETATM   16  O   UNK     0      -6.602   9.521  -2.659  0.00  0.00    -0.268 OA
BRANCH  15  17
HETATM   17  C   UNK     0      -5.984   7.990  -4.341  0.00  0.00     0.219 C 
BRANCH  17  18
HETATM   18  N   UNK     0      -6.155   6.577  -4.223  0.00  0.00    -0.221 N 
HETATM   19  C   UNK     0      -5.416   5.631  -4.820  0.00  0.00     0.114 A 
HETATM   20  C   UNK     0      -5.970   4.419  -4.441  0.00  0.00     0.101 A 
HETATM   21  N   UNK     0      -6.997   4.706  -3.629  0.00  0.00    -0.133 NA
HETATM   22  N   UNK     0      -7.078   5.997  -3.517  0.00  0.00    -0.064 NA
BRANCH  20  23
HETATM   23  C   UNK     0      -5.508   3.071  -4.812  0.00  0.00     0.044 A 
HETATM   24  C   UNK     0      -6.236   2.340  -5.956  0.00  0.00     0.006 A 
HETATM   25  C   UNK     0      -4.829   2.902  -6.182  0.00  0.00     0.006 A 
ENDBRANCH  20  23
ENDBRANCH  17  18
ENDBRANCH  15  17
ENDBRANCH   9  14
TORSDOF 4
ENDMDL
MODEL 9
REMARK VINA RESULT:      -7.0     16.090     18.788
REMARK  4 active torsions:
REMARK  status: ('A' for Active; 'I' for Inactive)
REMARK    1  A    between atoms: C_9  and  N_13 
REMARK       I    between atoms: N_13  and  C_14 
REMARK    2  A    between atoms: C_14  and  C_17 
REMARK    3  A    between atoms: C_17  and  N_18 
REMARK    4  A    between atoms: C_20  and  C_23 
ROOT
HETATM    1  C   UNK     0      -5.095   3.740  -5.409  0.00  0.00     0.003 A 
HETATM    2  C   UNK     0      -5.201   2.365  -5.672  0.00  0.00     0.000 A 
HETATM    3  C   UNK     0      -6.328   1.652  -5.234  0.00  0.00     0.000 A 
HETATM    4  C   UNK     0      -7.351   2.314  -4.532  0.00  0.00     0.003 A 
HETATM    5  C   UNK     0      -7.255   3.697  -4.246  0.00  0.00     0.044 A 
HETATM    6  C   UNK     0      -6.112   4.419  -4.695  0.00  0.00     0.044 A 
HETATM    7  C   UNK     0      -8.261   4.401  -3.512  0.00  0.00     0.217 C 
HETATM    8  C   UNK     0      -8.058   5.736  -3.130  0.00  0.00     0.162 C 
HETATM    9  C   UNK     0      -6.955   6.412  -3.529  0.00  0.00     0.146 C 
HETATM   10  C   UNK     0      -6.033   5.811  -4.401  0.00  0.00     0.215 C 
HETATM   11  O   UNK     0      -5.159   6.518  -4.960  0.00  0.00    -0.285 OA
HETATM   12  O   UNK     0      -9.330   3.819  -3.203  0.00  0.00    -0.285 OA
HETATM   13  N   UNK     0      -8.960   6.324  -2.351  0.00  0.00    -0.143 N 
ENDROOT
BRANCH   9  14
HETATM   14  N   UNK     0      -6.750   7.667  -3.101  0.00  0.00    -0.205 NA
HETATM   15  C   UNK     0      -6.028   8.024  -1.994  0.00  0.00     0.281 C 
HETATM   16  O   UNK     0      -5.560   7.163  -1.209  0.00  0.00    -0.268 OA
BRANCH  15  17
HETATM   17  C   UNK     0      -5.787   9.454  -1.713  0.00  0.00     0.219 C 
BRANCH  17  18
HETATM   18  N   UNK     0      -4.435   9.814  -1.997  0.00  0.00    -0.221 N 
HETATM   19  C   UNK     0      -3.847   9.823  -3.203  0.00  0.00     0.114 A 
HETATM   20  C   UNK     0      -2.534  10.205  -2.984  0.00  0.00     0.101 A 
HETATM   21  N   UNK     0      -2.412  10.416  -1.666  0.00  0.00    -0.133 NA
HETATM   22  N   UNK     0      -3.561  10.179  -1.109  0.00  0.00    -0.064 NA
BRANCH  20  23
HETATM   23  C   UNK     0      -1.477  10.389  -3.993  0.00  0.00     0.044 A 
HETATM   24  C   UNK     0      -0.567   9.191  -4.321  0.00  0.00     0.006 A 
HETATM   25  C   UNK     0      -1.629   9.642  -5.329  0.00  0.00     0.006 A 
ENDBRANCH  20  23
ENDBRANCH  17  18
ENDBRANCH  15  17
ENDBRANCH   9  14
TORSDOF 4
ENDMDL
