MODEL 1
REMARK VINA RESULT:      -8.2      0.000      0.000
REMARK  4 active torsions:
REMARK  status: ('A' for Active; 'I' for Inactive)
REMARK    1  A    between atoms: C_9  and  N_13 
REMARK       I    between atoms: N_13  and  C_14 
REMARK    2  A    between atoms: C_14  and  C_17 
REMARK    3  A    between atoms: C_17  and  N_18 
REMARK    4  A    between atoms: C_20  and  C_23 
ROOT
HETATM    1  N   UNK     0       8.158   3.705  10.083  0.00  0.00    -0.205 NA
HETATM    2  C   UNK     0       9.023   4.238   9.168  0.00  0.00     0.281 C 
HETATM    3  O   UNK     0       9.674   5.237   9.552  0.00  0.00    -0.268 OA
ENDROOT
BRANCH   1   4
HETATM    4  C   UNK     0       7.394   2.619   9.921  0.00  0.00     0.146 C 
HETATM    5  C   UNK     0       6.168   2.748   9.357  0.00  0.00     0.162 C 
HETATM    6  C   UNK     0       5.305   1.651   9.251  0.00  0.00     0.217 C 
HETATM    7  N   UNK     0       5.735   3.925   8.923  0.00  0.00    -0.143 N 
HETATM    8  C   UNK     0       5.629   0.422   9.901  0.00  0.00     0.044 A 
HETATM    9  O   UNK     0       4.237   1.752   8.598  0.00  0.00    -0.285 OA
HETATM   10  C   UNK     0       4.686  -0.621  10.053  0.00  0.00     0.003 A 
HETATM   11  C   UNK     0       6.938   0.263  10.438  0.00  0.00     0.044 A 
HETATM   12  C   UNK     0       5.033  -1.806  10.727  0.00  0.00     0.000 A 
HETATM   13  C   UNK     0       6.333  -1.973  11.230  0.00  0.00     0.000 A 
HETATM   14  C   UNK     0       7.284  -0.950  11.080  0.00  0.00     0.003 A 
HETATM   15  C   UNK     0       7.851   1.357  10.339  0.00  0.00     0.215 C 
HETATM   16  O   UNK     0       9.060   1.201  10.639  0.00  0.00    -0.285 OA
ENDBRANCH   1   4
BRANCH   2  17
HETATM   17  C   UNK     0       9.290   3.738   7.796  0.00  0.00     0.219 C 
BRANCH  17  18
HETATM   18  N   UNK     0       8.833   4.652   6.795  0.00  0.00    -0.221 N 
HETATM   19  C   UNK     0       9.526   5.671   6.262  0.00  0.00     0.114 A 
HETATM   20  C   UNK     0       8.715   6.232   5.289  0.00  0.00     0.101 A 
HETATM   21  N   UNK     0       7.574   5.524   5.308  0.00  0.00    -0.133 NA
HETATM   22  N   UNK     0       7.674   4.600   6.213  0.00  0.00    -0.064 NA
BRANCH  20  23
HETATM   23  C   UNK     0       9.055   7.364   4.391  0.00  0.00     0.044 C 
HETATM   24  C   UNK     0       8.715   7.123   2.902  0.00  0.00     0.006 C 
HETATM   25  C   UNK     0       9.572   8.150   2.141  0.00  0.00     0.000 C 
HETATM   26  C   UNK     0      10.834   8.374   3.003  0.00  0.00     0.000 C 
HETATM   27  C   UNK     0      10.559   7.725   4.380  0.00  0.00     0.006 C 
ENDBRANCH  20  23
ENDBRANCH  17  18
ENDBRANCH   2  17
TORSDOF 4
ENDMDL
MODEL 2
REMARK VINA RESULT:      -8.0      1.816      2.574
REMARK  4 active torsions:
REMARK  status: ('A' for Active; 'I' for Inactive)
REMARK    1  A    between atoms: C_9  and  N_13 
REMARK       I    between atoms: N_13  and  C_14 
REMARK    2  A    between atoms: C_14  and  C_17 
REMARK    3  A    between atoms: C_17  and  N_18 
REMARK    4  A    between atoms: C_20  and  C_23 
ROOT
HETATM    1  N   UNK     0       8.547   1.783   7.738  0.00  0.00    -0.205 NA
HETATM    2  C   UNK     0       9.105   2.900   7.182  0.00  0.00     0.281 C 
HETATM    3  O   UNK     0       9.877   2.700   6.216  0.00  0.00    -0.268 OA
ENDROOT
BRANCH   1   4
HETATM    4  C   UNK     0       7.664   1.746   8.743  0.00  0.00     0.146 C 
HETATM    5  C   UNK     0       8.112   1.792  10.021  0.00  0.00     0.162 C 
HETATM    6  C   UNK     0       7.226   1.669  11.099  0.00  0.00     0.217 C 
HETATM    7  N   UNK     0       9.405   1.919  10.290  0.00  0.00    -0.143 N 
HETATM    8  C   UNK     0       5.865   1.307  10.867  0.00  0.00     0.044 A 
HETATM    9  O   UNK     0       7.633   1.858  12.272  0.00  0.00    -0.285 OA
HETATM   10  C   UNK     0       5.003   0.910  11.915  0.00  0.00     0.003 A 
HETATM   11  C   UNK     0       5.378   1.320   9.529  0.00  0.00     0.044 A 
HETATM   12  C   UNK     0       3.675   0.531  11.643  0.00  0.00     0.000 A 
HETATM   13  C   UNK     0       3.188   0.573  10.327  0.00  0.00     0.000 A 
HETATM   14  C   UNK     0       4.030   0.973   9.276  0.00  0.00     0.003 A 
HETATM   15  C   UNK     0       6.287   1.653   8.478  0.00  0.00     0.215 C 
HETATM   16  O   UNK     0       5.862   1.846   7.312  0.00  0.00    -0.285 OA
ENDBRANCH   1   4
BRANCH   2  17
HETATM   17  C   UNK     0       8.863   4.311   7.579  0.00  0.00     0.219 C 
BRANCH  17  18
HETATM   18  N   UNK     0       8.622   5.152   6.447  0.00  0.00    -0.221 N 
HETATM   19  C   UNK     0       9.423   6.127   5.988  0.00  0.00     0.114 A 
HETATM   20  C   UNK     0       8.824   6.619   4.839  0.00  0.00     0.101 A 
HETATM   21  N   UNK     0       7.687   5.919   4.688  0.00  0.00    -0.133 NA
HETATM   22  N   UNK     0       7.596   5.062   5.658  0.00  0.00    -0.064 NA
BRANCH  20  23
HETATM   23  C   UNK     0       9.349   7.682   3.947  0.00  0.00     0.044 C 
HETATM   24  C   UNK     0       9.083   7.442   2.443  0.00  0.00     0.006 C 
HETATM   25  C   UNK     0      10.101   8.346   1.723  0.00  0.00     0.000 C 
HETATM   26  C   UNK     0      11.320   8.448   2.666  0.00  0.00     0.000 C 
HETATM   27  C   UNK     0      10.883   7.871   4.032  0.00  0.00     0.006 C 
ENDBRANCH  20  23
ENDBRANCH  17  18
ENDBRANCH   2  17
TORSDOF 4
ENDMDL
MODEL 3
REMARK VINA RESULT:      -8.0      2.081      8.699
REMARK  4 active torsions:
REMARK  status: ('A' for Active; 'I' for Inactive)
REMARK    1  A    between atoms: C_9  and  N_13 
REMARK       I    between atoms: N_13  and  C_14 
REMARK    2  A    between atoms: C_14  and  C_17 
REMARK    3  A    between atoms: C_17  and  N_18 
REMARK    4  A    between atoms: C_20  and  C_23 
ROOT
HETATM    1  N   UNK     0       9.604   5.483   7.661  0.00  0.00    -0.205 NA
HETATM    2  C   UNK     0       9.241   4.282   8.205  0.00  0.00     0.281 C 
HETATM    3  O   UNK     0       8.922   4.307   9.416  0.00  0.00    -0.268 OA
ENDROOT
BRANCH   1   4
HETATM    4  C   UNK     0       9.941   5.714   6.387  0.00  0.00     0.146 C 
HETATM    5  C   UNK     0      11.247   5.672   6.028  0.00  0.00     0.162 C 
HETATM    6  C   UNK     0      11.646   5.994   4.725  0.00  0.00     0.217 C 
HETATM    7  N   UNK     0      12.190   5.362   6.909  0.00  0.00    -0.143 N 
HETATM    8  C   UNK     0      10.704   6.548   3.806  0.00  0.00     0.044 A 
HETATM    9  O   UNK     0      12.836   5.811   4.369  0.00  0.00    -0.285 OA
HETATM   10  C   UNK     0      11.103   7.135   2.582  0.00  0.00     0.003 A 
HETATM   11  C   UNK     0       9.325   6.534   4.157  0.00  0.00     0.044 A 
HETATM   12  C   UNK     0      10.148   7.698   1.716  0.00  0.00     0.000 A 
HETATM   13  C   UNK     0       8.785   7.657   2.050  0.00  0.00     0.000 A 
HETATM   14  C   UNK     0       8.373   7.071   3.258  0.00  0.00     0.003 A 
HETATM   15  C   UNK     0       8.953   6.005   5.431  0.00  0.00     0.215 C 
HETATM   16  O   UNK     0       7.743   5.813   5.707  0.00  0.00    -0.285 OA
ENDBRANCH   1   4
BRANCH   2  17
HETATM   17  C   UNK     0       9.155   2.975   7.505  0.00  0.00     0.219 C 
BRANCH  17  18
HETATM   18  N   UNK     0       7.856   2.388   7.627  0.00  0.00    -0.221 N 
HETATM   19  C   UNK     0       7.487   1.432   8.495  0.00  0.00     0.114 A 
HETATM   20  C   UNK     0       6.130   1.227   8.301  0.00  0.00     0.101 A 
HETATM   21  N   UNK     0       5.769   2.063   7.312  0.00  0.00    -0.133 NA
HETATM   22  N   UNK     0       6.814   2.731   6.933  0.00  0.00    -0.064 NA
BRANCH  20  23
HETATM   23  C   UNK     0       5.254   0.296   9.053  0.00  0.00     0.044 C 
HETATM   24  C   UNK     0       3.938   0.929   9.563  0.00  0.00     0.006 C 
HETATM   25  C   UNK     0       3.464  -0.017  10.682  0.00  0.00     0.000 C 
HETATM   26  C   UNK     0       4.745  -0.634  11.287  0.00  0.00     0.000 C 
HETATM   27  C   UNK     0       5.908  -0.288  10.328  0.00  0.00     0.006 C 
ENDBRANCH  20  23
ENDBRANCH  17  18
ENDBRANCH   2  17
TORSDOF 4
ENDMDL
MODEL 4
REMARK VINA RESULT:      -7.7      1.913      2.105
REMARK  4 active torsions:
REMARK  status: ('A' for Active; 'I' for Inactive)
REMARK    1  A    between atoms: C_9  and  N_13 
REMARK       I    between atoms: N_13  and  C_14 
REMARK    2  A    between atoms: C_14  and  C_17 
REMARK    3  A    between atoms: C_17  and  N_18 
REMARK    4  A    between atoms: C_20  and  C_23 
ROOT
HETATM    1  N   UNK     0       8.601   1.671   9.624  0.00  0.00    -0.205 NA
HETATM    2  C   UNK     0       8.880   2.863   9.017  0.00  0.00     0.281 C 
HETATM    3  O   UNK     0      10.080   3.052   8.711  0.00  0.00    -0.268 OA
ENDROOT
BRANCH   1   4
HETATM    4  C   UNK     0       7.396   1.228  10.001  0.00  0.00     0.146 C 
HETATM    5  C   UNK     0       6.550   0.732   9.065  0.00  0.00     0.162 C 
HETATM    6  C   UNK     0       5.250   0.339   9.407  0.00  0.00     0.217 C 
HETATM    7  N   UNK     0       6.915   0.636   7.793  0.00  0.00    -0.143 N 
HETATM    8  C   UNK     0       4.735   0.629  10.706  0.00  0.00     0.044 A 
HETATM    9  O   UNK     0       4.530  -0.251   8.564  0.00  0.00    -0.285 OA
HETATM   10  C   UNK     0       3.361   0.501  11.017  0.00  0.00     0.003 A 
HETATM   11  C   UNK     0       5.636   1.091  11.706  0.00  0.00     0.044 A 
HETATM   12  C   UNK     0       2.886   0.826  12.301  0.00  0.00     0.000 A 
HETATM   13  C   UNK     0       3.780   1.252  13.295  0.00  0.00     0.000 A 
HETATM   14  C   UNK     0       5.149   1.376  13.004  0.00  0.00     0.003 A 
HETATM   15  C   UNK     0       7.006   1.283  11.350  0.00  0.00     0.215 C 
HETATM   16  O   UNK     0       7.863   1.519  12.237  0.00  0.00    -0.285 OA
ENDBRANCH   1   4
BRANCH   2  17
HETATM   17  C   UNK     0       7.910   3.929   8.655  0.00  0.00     0.219 C 
BRANCH  17  18
HETATM   18  N   UNK     0       8.068   4.358   7.299  0.00  0.00    -0.221 N 
HETATM   19  C   UNK     0       8.726   5.449   6.875  0.00  0.00     0.114 A 
HETATM   20  C   UNK     0       8.679   5.423   5.490  0.00  0.00     0.101 A 
HETATM   21  N   UNK     0       7.978   4.323   5.166  0.00  0.00    -0.133 NA
HETATM   22  N   UNK     0       7.628   3.718   6.259  0.00  0.00    -0.064 NA
BRANCH  20  23
HETATM   23  C   UNK     0       9.301   6.396   4.560  0.00  0.00     0.044 C 
HETATM   24  C   UNK     0       8.310   7.073   3.585  0.00  0.00     0.006 C 
HETATM   25  C   UNK     0       9.197   7.615   2.449  0.00  0.00     0.000 C 
HETATM   26  C   UNK     0      10.411   6.664   2.367  0.00  0.00     0.000 C 
HETATM   27  C   UNK     0      10.377   5.779   3.634  0.00  0.00     0.006 C 
ENDBRANCH  20  23
ENDBRANCH  17  18
ENDBRANCH   2  17
TORSDOF 4
ENDMDL
MODEL 5
REMARK VINA RESULT:      -7.6      3.598      7.186
REMARK  4 active torsions:
REMARK  status: ('A' for Active; 'I' for Inactive)
REMARK    1  A    between atoms: C_9  and  N_13 
REMARK       I    between atoms: N_13  and  C_14 
REMARK    2  A    between atoms: C_14  and  C_17 
REMARK    3  A    between atoms: C_17  and  N_18 
REMARK    4  A    between atoms: C_20  and  C_23 
ROOT
HETATM    1  N   UNK     0       7.974   3.644   8.143  0.00  0.00    -0.205 NA
HETATM    2  C   UNK     0       7.658   2.726   7.180  0.00  0.00     0.281 C 
HETATM    3  O   UNK     0       7.645   3.154   6.003  0.00  0.00    -0.268 OA
ENDROOT
BRANCH   1   4
HETATM    4  C   UNK     0       8.094   3.415   9.456  0.00  0.00     0.146 C 
HETATM    5  C   UNK     0       9.286   3.000   9.951  0.00  0.00     0.162 C 
HETATM    6  C   UNK     0       9.427   2.668  11.304  0.00  0.00     0.217 C 
HETATM    7  N   UNK     0      10.344   2.861   9.162  0.00  0.00    -0.143 N 
HETATM    8  C   UNK     0       8.274   2.584  12.142  0.00  0.00     0.044 A 
HETATM    9  O   UNK     0      10.565   2.426  11.776  0.00  0.00    -0.285 OA
HETATM   10  C   UNK     0       8.321   2.000  13.430  0.00  0.00     0.003 A 
HETATM   11  C   UNK     0       7.036   3.078  11.645  0.00  0.00     0.044 A 
HETATM   12  C   UNK     0       7.158   1.908  14.215  0.00  0.00     0.000 A 
HETATM   13  C   UNK     0       5.943   2.422  13.735  0.00  0.00     0.000 A 
HETATM   14  C   UNK     0       5.882   3.013  12.462  0.00  0.00     0.003 A 
HETATM   15  C   UNK     0       6.996   3.595  10.314  0.00  0.00     0.215 C 
HETATM   16  O   UNK     0       5.974   4.198   9.900  0.00  0.00    -0.285 OA
ENDBRANCH   1   4
BRANCH   2  17
HETATM   17  C   UNK     0       7.367   1.284   7.383  0.00  0.00     0.219 C 
BRANCH  17  18
HETATM   18  N   UNK     0       6.181   1.081   8.156  0.00  0.00    -0.221 N 
HETATM   19  C   UNK     0       6.041   0.258   9.208  0.00  0.00     0.114 A 
HETATM   20  C   UNK     0       4.751   0.442   9.682  0.00  0.00     0.101 A 
HETATM   21  N   UNK     0       4.188   1.354   8.872  0.00  0.00    -0.133 NA
HETATM   22  N   UNK     0       5.059   1.708   7.978  0.00  0.00    -0.064 NA
BRANCH  20  23
HETATM   23  C   UNK     0       4.134  -0.215  10.860  0.00  0.00     0.044 C 
HETATM   24  C   UNK     0       3.194   0.698  11.681  0.00  0.00     0.006 C 
HETATM   25  C   UNK     0       3.086   0.006  13.052  0.00  0.00     0.000 C 
HETATM   26  C   UNK     0       4.423  -0.739  13.259  0.00  0.00     0.000 C 
HETATM   27  C   UNK     0       5.159  -0.731  11.899  0.00  0.00     0.006 C 
ENDBRANCH  20  23
ENDBRANCH  17  18
ENDBRANCH   2  17
TORSDOF 4
ENDMDL
MODEL 6
REMARK VINA RESULT:      -7.5     16.756     18.779
REMARK  4 active torsions:
REMARK  status: ('A' for Active; 'I' for Inactive)
REMARK    1  A    between atoms: C_9  and  N_13 
REMARK       I    between atoms: N_13  and  C_14 
REMARK    2  A    between atoms: C_14  and  C_17 
REMARK    3  A    between atoms: C_17  and  N_18 
REMARK    4  A    between atoms: C_20  and  C_23 
ROOT
HETATM    1  N   UNK     0      -7.878   7.405  -3.684  0.00  0.00    -0.205 NA
HETATM    2  C   UNK     0      -7.900   8.024  -2.466  0.00  0.00     0.281 C 
HETATM    3  O   UNK     0      -8.101   9.260  -2.486  0.00  0.00    -0.268 OA
ENDROOT
BRANCH   1   4
HETATM    4  C   UNK     0      -7.726   6.095  -3.913  0.00  0.00     0.146 C 
HETATM    5  C   UNK     0      -6.509   5.622  -4.277  0.00  0.00     0.162 C 
HETATM    6  C   UNK     0      -6.332   4.273  -4.608  0.00  0.00     0.217 C 
HETATM    7  N   UNK     0      -5.459   6.428  -4.365  0.00  0.00    -0.143 N 
HETATM    8  C   UNK     0      -7.465   3.416  -4.747  0.00  0.00     0.044 A 
HETATM    9  O   UNK     0      -5.177   3.820  -4.801  0.00  0.00    -0.285 OA
HETATM   10  C   UNK     0      -7.371   2.133  -5.334  0.00  0.00     0.003 A 
HETATM   11  C   UNK     0      -8.733   3.891  -4.306  0.00  0.00     0.044 A 
HETATM   12  C   UNK     0      -8.517   1.330  -5.481  0.00  0.00     0.000 A 
HETATM   13  C   UNK     0      -9.761   1.787  -5.019  0.00  0.00     0.000 A 
HETATM   14  C   UNK     0      -9.869   3.056  -4.427  0.00  0.00     0.003 A 
HETATM   15  C   UNK     0      -8.817   5.219  -3.786  0.00  0.00     0.215 C 
HETATM   16  O   UNK     0      -9.871   5.613  -3.227  0.00  0.00    -0.285 OA
ENDBRANCH   1   4
BRANCH   2  17
HETATM   17  C   UNK     0      -7.748   7.381  -1.135  0.00  0.00     0.219 C 
BRANCH  17  18
HETATM   18  N   UNK     0      -6.483   7.679  -0.539  0.00  0.00    -0.221 N 
HETATM   19  C   UNK     0      -6.260   8.029   0.738  0.00  0.00     0.114 A 
HETATM   20  C   UNK     0      -4.887   8.149   0.880  0.00  0.00     0.101 A 
HETATM   21  N   UNK     0      -4.367   7.880  -0.329  0.00  0.00    -0.133 NA
HETATM   22  N   UNK     0      -5.338   7.611  -1.147  0.00  0.00    -0.064 NA
BRANCH  20  23
HETATM   23  C   UNK     0      -4.146   8.477   2.123  0.00  0.00     0.044 C 
HETATM   24  C   UNK     0      -4.926   8.191   3.427  0.00  0.00     0.006 C 
HETATM   25  C   UNK     0      -4.211   9.036   4.497  0.00  0.00     0.000 C 
HETATM   26  C   UNK     0      -3.637  10.263   3.755  0.00  0.00     0.000 C 
HETATM   27  C   UNK     0      -3.752   9.969   2.241  0.00  0.00     0.006 C 
ENDBRANCH  20  23
ENDBRANCH  17  18
ENDBRANCH   2  17
TORSDOF 4
ENDMDL
MODEL 7
REMARK VINA RESULT:      -7.5     19.028     21.034
REMARK  4 active torsions:
REMARK  status: ('A' for Active; 'I' for Inactive)
REMARK    1  A    between atoms: C_9  and  N_13 
REMARK       I    between atoms: N_13  and  C_14 
REMARK    2  A    between atoms: C_14  and  C_17 
REMARK    3  A    between atoms: C_17  and  N_18 
REMARK    4  A    between atoms: C_20  and  C_23 
ROOT
HETATM    1  N   UNK     0      -6.643   6.880  -2.517  0.00  0.00    -0.205 NA
HETATM    2  C   UNK     0      -7.407   7.985  -2.767  0.00  0.00     0.281 C 
HETATM    3  O   UNK     0      -7.210   8.965  -2.013  0.00  0.00    -0.268 OA
ENDROOT
BRANCH   1   4
HETATM    4  C   UNK     0      -6.642   5.735  -3.210  0.00  0.00     0.146 C 
HETATM    5  C   UNK     0      -5.874   5.632  -4.321  0.00  0.00     0.162 C 
HETATM    6  C   UNK     0      -5.913   4.482  -5.120  0.00  0.00     0.217 C 
HETATM    7  N   UNK     0      -5.089   6.631  -4.706  0.00  0.00    -0.143 N 
HETATM    8  C   UNK     0      -6.898   3.478  -4.878  0.00  0.00     0.044 A 
HETATM    9  O   UNK     0      -5.093   4.342  -6.060  0.00  0.00    -0.285 OA
HETATM   10  C   UNK     0      -7.157   2.440  -5.803  0.00  0.00     0.003 A 
HETATM   11  C   UNK     0      -7.662   3.552  -3.679  0.00  0.00     0.044 A 
HETATM   12  C   UNK     0      -8.158   1.486  -5.543  0.00  0.00     0.000 A 
HETATM   13  C   UNK     0      -8.890   1.542  -4.347  0.00  0.00     0.000 A 
HETATM   14  C   UNK     0      -8.639   2.563  -3.415  0.00  0.00     0.003 A 
HETATM   15  C   UNK     0      -7.436   4.651  -2.795  0.00  0.00     0.215 C 
HETATM   16  O   UNK     0      -7.957   4.662  -1.653  0.00  0.00    -0.285 OA
ENDBRANCH   1   4
BRANCH   2  17
HETATM   17  C   UNK     0      -8.410   8.150  -3.850  0.00  0.00     0.219 C 
BRANCH  17  18
HETATM   18  N   UNK     0      -9.514   7.253  -3.698  0.00  0.00    -0.221 N 
HETATM   19  C   UNK     0     -10.026   6.444  -4.640  0.00  0.00     0.114 A 
HETATM   20  C   UNK     0     -11.030   5.713  -4.027  0.00  0.00     0.101 A 
HETATM   21  N   UNK     0     -11.073   6.141  -2.754  0.00  0.00    -0.133 NA
HETATM   22  N   UNK     0     -10.167   7.055  -2.593  0.00  0.00    -0.064 NA
BRANCH  20  23
HETATM   23  C   UNK     0     -11.865   4.654  -4.645  0.00  0.00     0.044 C 
HETATM   24  C   UNK     0     -12.136   3.437  -3.730  0.00  0.00     0.006 C 
HETATM   25  C   UNK     0     -12.555   2.314  -4.696  0.00  0.00     0.000 C 
HETATM   26  C   UNK     0     -11.824   2.603  -6.026  0.00  0.00     0.000 C 
HETATM   27  C   UNK     0     -11.246   4.033  -5.921  0.00  0.00     0.006 C 
ENDBRANCH  20  23
ENDBRANCH  17  18
ENDBRANCH   2  17
TORSDOF 4
ENDMDL
MODEL 8
REMARK VINA RESULT:      -7.4     19.922     22.033
REMARK  4 active torsions:
REMARK  status: ('A' for Active; 'I' for Inactive)
REMARK    1  A    between atoms: C_9  and  N_13 
REMARK       I    between atoms: N_13  and  C_14 
REMARK    2  A    between atoms: C_14  and  C_17 
REMARK    3  A    between atoms: C_17  and  N_18 
REMARK    4  A    between atoms: C_20  and  C_23 
ROOT
HETATM    1  N   UNK     0      -9.637   5.788  -2.480  0.00  0.00    -0.205 NA
HETATM    2  C   UNK     0     -10.808   6.098  -3.113  0.00  0.00     0.281 C 
HETATM    3  O   UNK     0     -11.746   6.470  -2.371  0.00  0.00    -0.268 OA
ENDROOT
BRANCH   1   4
HETATM    4  C   UNK     0      -8.491   5.412  -3.059  0.00  0.00     0.146 C 
HETATM    5  C   UNK     0      -7.504   6.324  -3.231  0.00  0.00     0.162 C 
HETATM    6  C   UNK     0      -6.325   5.991  -3.909  0.00  0.00     0.217 C 
HETATM    7  N   UNK     0      -7.639   7.570  -2.794  0.00  0.00    -0.143 N 
HETATM    8  C   UNK     0      -6.223   4.741  -4.591  0.00  0.00     0.044 A 
HETATM    9  O   UNK     0      -5.364   6.799  -3.934  0.00  0.00    -0.285 OA
HETATM   10  C   UNK     0      -5.179   4.465  -5.504  0.00  0.00     0.003 A 
HETATM   11  C   UNK     0      -7.227   3.758  -4.361  0.00  0.00     0.044 A 
HETATM   12  C   UNK     0      -5.129   3.232  -6.180  0.00  0.00     0.000 A 
HETATM   13  C   UNK     0      -6.103   2.252  -5.930  0.00  0.00     0.000 A 
HETATM   14  C   UNK     0      -7.142   2.508  -5.019  0.00  0.00     0.003 A 
HETATM   15  C   UNK     0      -8.313   4.087  -3.492  0.00  0.00     0.215 C 
HETATM   16  O   UNK     0      -9.120   3.197  -3.125  0.00  0.00    -0.285 OA
ENDBRANCH   1   4
BRANCH   2  17
HETATM   17  C   UNK     0     -11.066   6.073  -4.576  0.00  0.00     0.219 C 
BRANCH  17  18
HETATM   18  N   UNK     0     -11.357   4.754  -5.045  0.00  0.00    -0.221 N 
HETATM   19  C   UNK     0     -10.813   4.143  -6.110  0.00  0.00     0.114 A 
HETATM   20  C   UNK     0     -11.337   2.861  -6.139  0.00  0.00     0.101 A 
HETATM   21  N   UNK     0     -12.180   2.784  -5.096  0.00  0.00    -0.133 NA
HETATM   22  N   UNK     0     -12.172   3.922  -4.472  0.00  0.00    -0.064 NA
BRANCH  20  23
HETATM   23  C   UNK     0     -11.009   1.787  -7.108  0.00  0.00     0.044 C 
HETATM   24  C   UNK     0     -12.220   0.933  -7.550  0.00  0.00     0.006 C 
HETATM   25  C   UNK     0     -11.596  -0.357  -8.114  0.00  0.00     0.000 C 
HETATM   26  C   UNK     0     -10.273  -0.562  -7.343  0.00  0.00     0.000 C 
HETATM   27  C   UNK     0      -9.992   0.750  -6.574  0.00  0.00     0.006 C 
ENDBRANCH  20  23
ENDBRANCH  17  18
ENDBRANCH   2  17
TORSDOF 4
ENDMDL
MODEL 9
REMARK VINA RESULT:      -7.4     12.942     14.948
REMARK  4 active torsions:
REMARK  status: ('A' for Active; 'I' for Inactive)
REMARK    1  A    between atoms: C_9  and  N_13 
REMARK       I    between atoms: N_13  and  C_14 
REMARK    2  A    between atoms: C_14  and  C_17 
REMARK    3  A    between atoms: C_17  and  N_18 
REMARK    4  A    between atoms: C_20  and  C_23 
ROOT
HETATM    1  N   UNK     0       7.694   6.743  -7.150  0.00  0.00    -0.205 NA
HETATM    2  C   UNK     0       7.478   7.853  -6.382  0.00  0.00     0.281 C 
HETATM    3  O   UNK     0       7.799   8.947  -6.903  0.00  0.00    -0.268 OA
ENDROOT
BRANCH   1   4
HETATM    4  C   UNK     0       7.393   5.479  -6.830  0.00  0.00     0.146 C 
HETATM    5  C   UNK     0       6.293   4.902  -7.370  0.00  0.00     0.162 C 
HETATM    6  C   UNK     0       5.898   3.612  -6.993  0.00  0.00     0.217 C 
HETATM    7  N   UNK     0       5.537   5.553  -8.245  0.00  0.00    -0.143 N 
HETATM    8  C   UNK     0       6.542   2.960  -5.898  0.00  0.00     0.044 A 
HETATM    9  O   UNK     0       4.966   3.036  -7.606  0.00  0.00    -0.285 OA
HETATM   10  C   UNK     0       6.016   1.788  -5.307  0.00  0.00     0.003 A 
HETATM   11  C   UNK     0       7.733   3.534  -5.371  0.00  0.00     0.044 A 
HETATM   12  C   UNK     0       6.663   1.190  -4.209  0.00  0.00     0.000 A 
HETATM   13  C   UNK     0       7.854   1.741  -3.710  0.00  0.00     0.000 A 
HETATM   14  C   UNK     0       8.392   2.900  -4.291  0.00  0.00     0.003 A 
HETATM   15  C   UNK     0       8.204   4.759  -5.936  0.00  0.00     0.215 C 
HETATM   16  O   UNK     0       9.336   5.205  -5.624  0.00  0.00    -0.285 OA
ENDBRANCH   1   4
BRANCH   2  17
HETATM   17  C   UNK     0       6.878   7.897  -5.024  0.00  0.00     0.219 C 
BRANCH  17  18
HETATM   18  N   UNK     0       5.477   7.608  -5.050  0.00  0.00    -0.221 N 
HETATM   19  C   UNK     0       4.506   8.392  -5.546  0.00  0.00     0.114 A 
HETATM   20  C   UNK     0       3.324   7.679  -5.420  0.00  0.00     0.101 A 
HETATM   21  N   UNK     0       3.655   6.514  -4.839  0.00  0.00    -0.133 NA
HETATM   22  N   UNK     0       4.936   6.506  -4.629  0.00  0.00    -0.064 NA
BRANCH  20  23
HETATM   23  C   UNK     0       1.975   8.108  -5.866  0.00  0.00     0.044 C 
HETATM   24  C   UNK     0       1.924   9.529  -6.473  0.00  0.00     0.006 C 
HETATM   25  C   UNK     0       0.439   9.929  -6.391  0.00  0.00     0.000 C 
HETATM   26  C   UNK     0      -0.133   9.190  -5.161  0.00  0.00     0.000 C 
HETATM   27  C   UNK     0       0.923   8.145  -4.732  0.00  0.00     0.006 C 
ENDBRANCH  20  23
ENDBRANCH  17  18
ENDBRANCH   2  17
TORSDOF 4
ENDMDL
