MODEL 1
REMARK VINA RESULT:      -7.3      0.000      0.000
REMARK  5 active torsions:
REMARK  status: ('A' for Active; 'I' for Inactive)
REMARK    1  A    between atoms: C_9  and  N_13 
REMARK       I    between atoms: N_13  and  C_14 
REMARK    2  A    between atoms: C_14  and  C_17 
REMARK    3  A    between atoms: C_17  and  N_18 
REMARK    4  A    between atoms: C_20  and  C_23 
REMARK    5  A    between atoms: C_23  and  C_24 
ROOT
HETATM    1  C   UNK     0       7.215  -1.031  11.134  0.00  0.00     0.003 A 
HETATM    2  C   UNK     0       6.260  -2.059  11.238  0.00  0.00     0.000 A 
HETATM    3  C   UNK     0       4.974  -1.884  10.701  0.00  0.00     0.000 A 
HETATM    4  C   UNK     0       4.643  -0.688  10.042  0.00  0.00     0.003 A 
HETATM    5  C   UNK     0       5.593   0.355   9.930  0.00  0.00     0.044 A 
HETATM    6  C   UNK     0       6.887   0.193  10.504  0.00  0.00     0.044 A 
HETATM    7  C   UNK     0       5.288   1.585   9.274  0.00  0.00     0.217 C 
HETATM    8  C   UNK     0       6.156   2.676   9.396  0.00  0.00     0.162 C 
HETATM    9  C   UNK     0       7.371   2.542   9.982  0.00  0.00     0.146 C 
HETATM   10  C   UNK     0       7.804   1.287  10.443  0.00  0.00     0.215 C 
HETATM   11  O   UNK     0       8.993   1.140  10.816  0.00  0.00    -0.285 OA
HETATM   12  O   UNK     0       4.234   1.693   8.598  0.00  0.00    -0.285 OA
HETATM   13  N   UNK     0       5.740   3.854   8.945  0.00  0.00    -0.143 N 
ENDROOT
BRANCH   9  14
HETATM   14  N   UNK     0       8.153   3.621  10.109  0.00  0.00    -0.205 NA
HETATM   15  C   UNK     0       8.993   4.134   9.163  0.00  0.00     0.281 C 
HETATM   16  O   UNK     0       9.658   5.136   9.513  0.00  0.00    -0.268 OA
BRANCH  15  17
HETATM   17  C   UNK     0       9.221   3.599   7.796  0.00  0.00     0.219 C 
BRANCH  17  18
HETATM   18  N   UNK     0       8.843   4.551   6.795  0.00  0.00    -0.221 N 
HETATM   19  C   UNK     0       9.599   5.542   6.290  0.00  0.00     0.114 A 
HETATM   20  C   UNK     0       8.820   6.172   5.328  0.00  0.00     0.102 A 
HETATM   21  N   UNK     0       7.637   5.537   5.333  0.00  0.00    -0.133 NA
HETATM   22  N   UNK     0       7.686   4.580   6.208  0.00  0.00    -0.064 NA
BRANCH  20  23
HETATM   23  C   UNK     0       9.182   7.306   4.447  0.00  0.00     0.062 C 
BRANCH  23  24
HETATM   24  C   UNK     0       9.044   7.066   2.931  0.00  0.00     0.074 C 
HETATM   25 Br   UNK     0       9.793   7.971   1.936  0.00  0.00    -0.081 Br
ENDBRANCH  23  24
ENDBRANCH  20  23
ENDBRANCH  17  18
ENDBRANCH  15  17
ENDBRANCH   9  14
TORSDOF 5
ENDMDL
MODEL 2
REMARK VINA RESULT:      -7.1     16.672     18.659
REMARK  5 active torsions:
REMARK  status: ('A' for Active; 'I' for Inactive)
REMARK    1  A    between atoms: C_9  and  N_13 
REMARK       I    between atoms: N_13  and  C_14 
REMARK    2  A    between atoms: C_14  and  C_17 
REMARK    3  A    between atoms: C_17  and  N_18 
REMARK    4  A    between atoms: C_20  and  C_23 
REMARK    5  A    between atoms: C_23  and  C_24 
ROOT
HETATM    1  C   UNK     0      -6.666   8.627   2.271  0.00  0.00     0.003 A 
HETATM    2  C   UNK     0      -5.557   8.538   3.131  0.00  0.00     0.000 A 
HETATM    3  C   UNK     0      -4.273   8.317   2.606  0.00  0.00     0.000 A 
HETATM    4  C   UNK     0      -4.090   8.202   1.218  0.00  0.00     0.003 A 
HETATM    5  C   UNK     0      -5.197   8.290   0.339  0.00  0.00     0.044 A 
HETATM    6  C   UNK     0      -6.505   8.480   0.873  0.00  0.00     0.044 A 
HETATM    7  C   UNK     0      -5.048   8.170  -1.074  0.00  0.00     0.217 C 
HETATM    8  C   UNK     0      -6.178   8.016  -1.886  0.00  0.00     0.162 C 
HETATM    9  C   UNK     0      -7.428   8.149  -1.377  0.00  0.00     0.146 C 
HETATM   10  C   UNK     0      -7.614   8.491  -0.028  0.00  0.00     0.215 C 
HETATM   11  O   UNK     0      -8.762   8.788   0.385  0.00  0.00    -0.285 OA
HETATM   12  O   UNK     0      -3.903   8.192  -1.591  0.00  0.00    -0.285 OA
HETATM   13  N   UNK     0      -5.989   7.706  -3.163  0.00  0.00    -0.143 N 
ENDROOT
BRANCH   9  14
HETATM   14  N   UNK     0      -8.480   7.958  -2.183  0.00  0.00    -0.205 NA
HETATM   15  C   UNK     0      -9.199   6.806  -2.326  0.00  0.00     0.281 C 
HETATM   16  O   UNK     0     -10.126   6.845  -3.167  0.00  0.00    -0.268 OA
BRANCH  15  17
HETATM   17  C   UNK     0      -8.961   5.520  -1.622  0.00  0.00     0.219 C 
BRANCH  17  18
HETATM   18  N   UNK     0      -8.094   4.667  -2.377  0.00  0.00    -0.221 N 
HETATM   19  C   UNK     0      -8.442   3.828  -3.370  0.00  0.00     0.114 A 
HETATM   20  C   UNK     0      -7.263   3.247  -3.817  0.00  0.00     0.102 A 
HETATM   21  N   UNK     0      -6.284   3.753  -3.050  0.00  0.00    -0.133 NA
HETATM   22  N   UNK     0      -6.809   4.594  -2.213  0.00  0.00    -0.064 NA
BRANCH  20  23
HETATM   23  C   UNK     0      -7.075   2.274  -4.919  0.00  0.00     0.062 C 
BRANCH  23  24
HETATM   24  C   UNK     0      -5.632   2.081  -5.422  0.00  0.00     0.074 C 
HETATM   25 Br   UNK     0      -4.984   3.144  -6.328  0.00  0.00    -0.081 Br
ENDBRANCH  23  24
ENDBRANCH  20  23
ENDBRANCH  17  18
ENDBRANCH  15  17
ENDBRANCH   9  14
TORSDOF 5
ENDMDL
MODEL 3
REMARK VINA RESULT:      -7.0      1.937      2.711
REMARK  5 active torsions:
REMARK  status: ('A' for Active; 'I' for Inactive)
REMARK    1  A    between atoms: C_9  and  N_13 
REMARK       I    between atoms: N_13  and  C_14 
REMARK    2  A    between atoms: C_14  and  C_17 
REMARK    3  A    between atoms: C_17  and  N_18 
REMARK    4  A    between atoms: C_20  and  C_23 
REMARK    5  A    between atoms: C_23  and  C_24 
ROOT
HETATM    1  C   UNK     0       3.974   0.875   9.567  0.00  0.00     0.003 A 
HETATM    2  C   UNK     0       3.186   0.531  10.680  0.00  0.00     0.000 A 
HETATM    3  C   UNK     0       3.695   0.687  11.980  0.00  0.00     0.000 A 
HETATM    4  C   UNK     0       4.987   1.204  12.173  0.00  0.00     0.003 A 
HETATM    5  C   UNK     0       5.792   1.554  11.062  0.00  0.00     0.044 A 
HETATM    6  C   UNK     0       5.290   1.364   9.742  0.00  0.00     0.044 A 
HETATM    7  C   UNK     0       7.111   2.074  11.222  0.00  0.00     0.217 C 
HETATM    8  C   UNK     0       7.960   2.176  10.115  0.00  0.00     0.162 C 
HETATM    9  C   UNK     0       7.503   1.952   8.858  0.00  0.00     0.146 C 
HETATM   10  C   UNK     0       6.148   1.655   8.637  0.00  0.00     0.215 C 
HETATM   11  O   UNK     0       5.702   1.629   7.464  0.00  0.00    -0.285 OA
HETATM   12  O   UNK     0       7.514   2.430  12.357  0.00  0.00    -0.285 OA
HETATM   13  N   UNK     0       9.237   2.470  10.335  0.00  0.00    -0.143 N 
ENDROOT
BRANCH   9  14
HETATM   14  N   UNK     0       8.361   2.026   7.832  0.00  0.00    -0.205 NA
HETATM   15  C   UNK     0       8.670   3.140   7.106  0.00  0.00     0.281 C 
HETATM   16  O   UNK     0       9.477   2.968   6.164  0.00  0.00    -0.268 OA
BRANCH  15  17
HETATM   17  C   UNK     0       8.114   4.504   7.297  0.00  0.00     0.219 C 
BRANCH  17  18
HETATM   18  N   UNK     0       8.424   5.352   6.185  0.00  0.00    -0.221 N 
HETATM   19  C   UNK     0       9.541   6.079   6.004  0.00  0.00     0.114 A 
HETATM   20  C   UNK     0       9.401   6.703   4.771  0.00  0.00     0.102 A 
HETATM   21  N   UNK     0       8.199   6.333   4.301  0.00  0.00    -0.133 NA
HETATM   22  N   UNK     0       7.650   5.529   5.158  0.00  0.00    -0.064 NA
BRANCH  20  23
HETATM   23  C   UNK     0      10.360   7.592   4.075  0.00  0.00     0.062 C 
BRANCH  23  24
HETATM   24  C   UNK     0       9.801   8.411   2.896  0.00  0.00     0.074 C 
HETATM   25 Br   UNK     0      10.261   8.105   1.459  0.00  0.00    -0.081 Br
ENDBRANCH  23  24
ENDBRANCH  20  23
ENDBRANCH  17  18
ENDBRANCH  15  17
ENDBRANCH   9  14
TORSDOF 5
ENDMDL
MODEL 4
REMARK VINA RESULT:      -7.0     17.248     19.030
REMARK  5 active torsions:
REMARK  status: ('A' for Active; 'I' for Inactive)
REMARK    1  A    between atoms: C_9  and  N_13 
REMARK       I    between atoms: N_13  and  C_14 
REMARK    2  A    between atoms: C_14  and  C_17 
REMARK    3  A    between atoms: C_17  and  N_18 
REMARK    4  A    between atoms: C_20  and  C_23 
REMARK    5  A    between atoms: C_23  and  C_24 
ROOT
HETATM    1  C   UNK     0     -10.332   3.246  -3.779  0.00  0.00     0.003 A 
HETATM    2  C   UNK     0     -10.329   1.914  -4.231  0.00  0.00     0.000 A 
HETATM    3  C   UNK     0      -9.137   1.324  -4.682  0.00  0.00     0.000 A 
HETATM    4  C   UNK     0      -7.939   2.058  -4.666  0.00  0.00     0.003 A 
HETATM    5  C   UNK     0      -7.925   3.399  -4.214  0.00  0.00     0.044 A 
HETATM    6  C   UNK     0      -9.141   4.010  -3.788  0.00  0.00     0.044 A 
HETATM    7  C   UNK     0      -6.729   4.175  -4.191  0.00  0.00     0.217 C 
HETATM    8  C   UNK     0      -6.795   5.556  -3.975  0.00  0.00     0.162 C 
HETATM    9  C   UNK     0      -7.958   6.154  -3.615  0.00  0.00     0.146 C 
HETATM   10  C   UNK     0      -9.116   5.387  -3.407  0.00  0.00     0.215 C 
HETATM   11  O   UNK     0     -10.133   5.923  -2.901  0.00  0.00    -0.285 OA
HETATM   12  O   UNK     0      -5.616   3.622  -4.376  0.00  0.00    -0.285 OA
HETATM   13  N   UNK     0      -5.690   6.269  -4.163  0.00  0.00    -0.143 N 
ENDROOT
BRANCH   9  14
HETATM   14  N   UNK     0      -7.982   7.482  -3.454  0.00  0.00    -0.205 NA
HETATM   15  C   UNK     0      -7.922   8.162  -2.271  0.00  0.00     0.281 C 
HETATM   16  O   UNK     0      -7.996   9.409  -2.357  0.00  0.00    -0.268 OA
BRANCH  15  17
HETATM   17  C   UNK     0      -7.824   7.569  -0.913  0.00  0.00     0.219 C 
BRANCH  17  18
HETATM   18  N   UNK     0      -6.537   7.810  -0.333  0.00  0.00    -0.221 N 
HETATM   19  C   UNK     0      -6.276   8.321   0.884  0.00  0.00     0.114 A 
HETATM   20  C   UNK     0      -4.894   8.330   1.012  0.00  0.00     0.102 A 
HETATM   21  N   UNK     0      -4.409   7.849  -0.144  0.00  0.00    -0.133 NA
HETATM   22  N   UNK     0      -5.407   7.545  -0.915  0.00  0.00    -0.064 NA
BRANCH  20  23
HETATM   23  C   UNK     0      -4.079   8.763   2.172  0.00  0.00     0.062 C 
BRANCH  23  24
HETATM   24  C   UNK     0      -4.478   8.182   3.542  0.00  0.00     0.074 C 
HETATM   25 Br   UNK     0      -3.572   8.406   4.767  0.00  0.00    -0.081 Br
ENDBRANCH  23  24
ENDBRANCH  20  23
ENDBRANCH  17  18
ENDBRANCH  15  17
ENDBRANCH   9  14
TORSDOF 5
ENDMDL
MODEL 5
REMARK VINA RESULT:      -6.9      3.530      8.359
REMARK  5 active torsions:
REMARK  status: ('A' for Active; 'I' for Inactive)
REMARK    1  A    between atoms: C_9  and  N_13 
REMARK       I    between atoms: N_13  and  C_14 
REMARK    2  A    between atoms: C_14  and  C_17 
REMARK    3  A    between atoms: C_17  and  N_18 
REMARK    4  A    between atoms: C_20  and  C_23 
REMARK    5  A    between atoms: C_23  and  C_24 
ROOT
HETATM    1  C   UNK     0       8.318   6.951   3.317  0.00  0.00     0.003 A 
HETATM    2  C   UNK     0       8.739   7.508   2.096  0.00  0.00     0.000 A 
HETATM    3  C   UNK     0      10.109   7.593   1.794  0.00  0.00     0.000 A 
HETATM    4  C   UNK     0      11.061   7.105   2.704  0.00  0.00     0.003 A 
HETATM    5  C   UNK     0      10.653   6.542   3.937  0.00  0.00     0.044 A 
HETATM    6  C   UNK     0       9.266   6.486   4.260  0.00  0.00     0.044 A 
HETATM    7  C   UNK     0      11.594   6.044   4.887  0.00  0.00     0.217 C 
HETATM    8  C   UNK     0      11.176   5.725   6.184  0.00  0.00     0.162 C 
HETATM    9  C   UNK     0       9.860   5.715   6.513  0.00  0.00     0.146 C 
HETATM   10  C   UNK     0       8.882   5.982   5.540  0.00  0.00     0.215 C 
HETATM   11  O   UNK     0       7.671   5.792   5.810  0.00  0.00    -0.285 OA
HETATM   12  O   UNK     0      12.800   5.904   4.564  0.00  0.00    -0.285 OA
HETATM   13  N   UNK     0      12.109   5.462   7.091  0.00  0.00    -0.143 N 
ENDROOT
BRANCH   9  14
HETATM   14  N   UNK     0       9.509   5.438   7.775  0.00  0.00    -0.205 NA
HETATM   15  C   UNK     0       9.132   4.223   8.269  0.00  0.00     0.281 C 
HETATM   16  O   UNK     0       8.811   4.204   9.479  0.00  0.00    -0.268 OA
BRANCH  15  17
HETATM   17  C   UNK     0       9.025   2.952   7.508  0.00  0.00     0.219 C 
BRANCH  17  18
HETATM   18  N   UNK     0       7.728   2.363   7.659  0.00  0.00    -0.221 N 
HETATM   19  C   UNK     0       7.358   1.431   8.557  0.00  0.00     0.114 A 
HETATM   20  C   UNK     0       6.006   1.202   8.342  0.00  0.00     0.102 A 
HETATM   21  N   UNK     0       5.654   1.990   7.314  0.00  0.00    -0.133 NA
HETATM   22  N   UNK     0       6.694   2.667   6.937  0.00  0.00    -0.064 NA
BRANCH  20  23
HETATM   23  C   UNK     0       5.097   0.293   9.079  0.00  0.00     0.062 C 
BRANCH  23  24
HETATM   24  C   UNK     0       4.230   0.937  10.177  0.00  0.00     0.074 C 
HETATM   25 Br   UNK     0       3.798   0.109  11.402  0.00  0.00    -0.081 Br
ENDBRANCH  23  24
ENDBRANCH  20  23
ENDBRANCH  17  18
ENDBRANCH  15  17
ENDBRANCH   9  14
TORSDOF 5
ENDMDL
MODEL 6
REMARK VINA RESULT:      -6.8     17.087     18.913
REMARK  5 active torsions:
REMARK  status: ('A' for Active; 'I' for Inactive)
REMARK    1  A    between atoms: C_9  and  N_13 
REMARK       I    between atoms: N_13  and  C_14 
REMARK    2  A    between atoms: C_14  and  C_17 
REMARK    3  A    between atoms: C_17  and  N_18 
REMARK    4  A    between atoms: C_20  and  C_23 
REMARK    5  A    between atoms: C_23  and  C_24 
ROOT
HETATM    1  C   UNK     0      -5.551   3.921  -4.591  0.00  0.00     0.003 A 
HETATM    2  C   UNK     0      -5.490   2.526  -4.753  0.00  0.00     0.000 A 
HETATM    3  C   UNK     0      -6.667   1.760  -4.728  0.00  0.00     0.000 A 
HETATM    4  C   UNK     0      -7.912   2.388  -4.558  0.00  0.00     0.003 A 
HETATM    5  C   UNK     0      -7.990   3.792  -4.393  0.00  0.00     0.044 A 
HETATM    6  C   UNK     0      -6.794   4.566  -4.384  0.00  0.00     0.044 A 
HETATM    7  C   UNK     0      -9.237   4.461  -4.211  0.00  0.00     0.217 C 
HETATM    8  C   UNK     0      -9.258   5.801  -3.809  0.00  0.00     0.162 C 
HETATM    9  C   UNK     0      -8.119   6.533  -3.752  0.00  0.00     0.146 C 
HETATM   10  C   UNK     0      -6.892   5.971  -4.142  0.00  0.00     0.215 C 
HETATM   11  O   UNK     0      -5.881   6.707  -4.259  0.00  0.00    -0.285 OA
HETATM   12  O   UNK     0     -10.315   3.844  -4.400  0.00  0.00    -0.285 OA
HETATM   13  N   UNK     0     -10.426   6.325  -3.454  0.00  0.00    -0.143 N 
ENDROOT
BRANCH   9  14
HETATM   14  N   UNK     0      -8.183   7.801  -3.327  0.00  0.00    -0.205 NA
HETATM   15  C   UNK     0      -8.027   8.240  -2.044  0.00  0.00     0.281 C 
HETATM   16  O   UNK     0      -8.163   9.473  -1.871  0.00  0.00    -0.268 OA
BRANCH  15  17
HETATM   17  C   UNK     0      -7.760   7.402  -0.847  0.00  0.00     0.219 C 
BRANCH  17  18
HETATM   18  N   UNK     0      -6.490   7.717  -0.264  0.00  0.00    -0.221 N 
HETATM   19  C   UNK     0      -6.263   8.244   0.952  0.00  0.00     0.114 A 
HETATM   20  C   UNK     0      -4.883   8.334   1.084  0.00  0.00     0.102 A 
HETATM   21  N   UNK     0      -4.369   7.879  -0.070  0.00  0.00    -0.133 NA
HETATM   22  N   UNK     0      -5.346   7.517  -0.843  0.00  0.00    -0.064 NA
BRANCH  20  23
HETATM   23  C   UNK     0      -4.098   8.814   2.245  0.00  0.00     0.062 C 
BRANCH  23  24
HETATM   24  C   UNK     0      -4.408   8.153   3.601  0.00  0.00     0.074 C 
HETATM   25 Br   UNK     0      -3.522   8.451   4.824  0.00  0.00    -0.081 Br
ENDBRANCH  23  24
ENDBRANCH  20  23
ENDBRANCH  17  18
ENDBRANCH  15  17
ENDBRANCH   9  14
TORSDOF 5
ENDMDL
MODEL 7
REMARK VINA RESULT:      -6.7     16.931     18.730
REMARK  5 active torsions:
REMARK  status: ('A' for Active; 'I' for Inactive)
REMARK    1  A    between atoms: C_9  and  N_13 
REMARK       I    between atoms: N_13  and  C_14 
REMARK    2  A    between atoms: C_14  and  C_17 
REMARK    3  A    between atoms: C_17  and  N_18 
REMARK    4  A    between atoms: C_20  and  C_23 
REMARK    5  A    between atoms: C_23  and  C_24 
ROOT
HETATM    1  C   UNK     0      -7.623   2.652  -3.968  0.00  0.00     0.003 A 
HETATM    2  C   UNK     0      -6.876   1.756  -4.754  0.00  0.00     0.000 A 
HETATM    3  C   UNK     0      -5.782   2.219  -5.504  0.00  0.00     0.000 A 
HETATM    4  C   UNK     0      -5.420   3.575  -5.458  0.00  0.00     0.003 A 
HETATM    5  C   UNK     0      -6.162   4.489  -4.673  0.00  0.00     0.044 A 
HETATM    6  C   UNK     0      -7.293   4.028  -3.938  0.00  0.00     0.044 A 
HETATM    7  C   UNK     0      -5.827   5.874  -4.609  0.00  0.00     0.217 C 
HETATM    8  C   UNK     0      -6.718   6.783  -4.027  0.00  0.00     0.162 C 
HETATM    9  C   UNK     0      -7.822   6.355  -3.366  0.00  0.00     0.146 C 
HETATM   10  C   UNK     0      -8.071   4.982  -3.211  0.00  0.00     0.215 C 
HETATM   11  O   UNK     0      -8.990   4.599  -2.447  0.00  0.00    -0.285 OA
HETATM   12  O   UNK     0      -4.738   6.281  -5.086  0.00  0.00    -0.285 OA
HETATM   13  N   UNK     0      -6.465   8.079  -4.169  0.00  0.00    -0.143 N 
ENDROOT
BRANCH   9  14
HETATM   14  N   UNK     0      -8.665   7.262  -2.856  0.00  0.00    -0.205 NA
HETATM   15  C   UNK     0      -8.656   7.759  -1.584  0.00  0.00     0.281 C 
HETATM   16  O   UNK     0      -9.565   8.578  -1.315  0.00  0.00    -0.268 OA
BRANCH  15  17
HETATM   17  C   UNK     0      -7.713   7.394  -0.496  0.00  0.00     0.219 C 
BRANCH  17  18
HETATM   18  N   UNK     0      -6.440   8.024  -0.677  0.00  0.00    -0.221 N 
HETATM   19  C   UNK     0      -6.179   9.344  -0.678  0.00  0.00     0.114 A 
HETATM   20  C   UNK     0      -4.808   9.467  -0.853  0.00  0.00     0.102 A 
HETATM   21  N   UNK     0      -4.333   8.217  -0.971  0.00  0.00    -0.133 NA
HETATM   22  N   UNK     0      -5.324   7.387  -0.857  0.00  0.00    -0.064 NA
BRANCH  20  23
HETATM   23  C   UNK     0      -3.992  10.704  -0.894  0.00  0.00     0.062 C 
BRANCH  23  24
HETATM   24  C   UNK     0      -2.623  10.597  -1.593  0.00  0.00     0.074 C 
HETATM   25 Br   UNK     0      -2.527  10.743  -3.123  0.00  0.00    -0.081 Br
ENDBRANCH  23  24
ENDBRANCH  20  23
ENDBRANCH  17  18
ENDBRANCH  15  17
ENDBRANCH   9  14
TORSDOF 5
ENDMDL
MODEL 8
REMARK VINA RESULT:      -6.7      2.033      2.223
REMARK  5 active torsions:
REMARK  status: ('A' for Active; 'I' for Inactive)
REMARK    1  A    between atoms: C_9  and  N_13 
REMARK       I    between atoms: N_13  and  C_14 
REMARK    2  A    between atoms: C_14  and  C_17 
REMARK    3  A    between atoms: C_17  and  N_18 
REMARK    4  A    between atoms: C_20  and  C_23 
REMARK    5  A    between atoms: C_23  and  C_24 
ROOT
HETATM    1  C   UNK     0       5.274   1.567  13.101  0.00  0.00     0.003 A 
HETATM    2  C   UNK     0       3.918   1.429  13.446  0.00  0.00     0.000 A 
HETATM    3  C   UNK     0       2.993   0.961  12.499  0.00  0.00     0.000 A 
HETATM    4  C   UNK     0       3.423   0.612  11.208  0.00  0.00     0.003 A 
HETATM    5  C   UNK     0       4.785   0.746  10.845  0.00  0.00     0.044 A 
HETATM    6  C   UNK     0       5.719   1.253  11.796  0.00  0.00     0.044 A 
HETATM    7  C   UNK     0       5.255   0.408   9.542  0.00  0.00     0.217 C 
HETATM    8  C   UNK     0       6.544   0.780   9.145  0.00  0.00     0.162 C 
HETATM    9  C   UNK     0       7.425   1.307  10.031  0.00  0.00     0.146 C 
HETATM   10  C   UNK     0       7.074   1.449  11.384  0.00  0.00     0.215 C 
HETATM   11  O   UNK     0       7.952   1.765  12.224  0.00  0.00    -0.285 OA
HETATM   12  O   UNK     0       4.508  -0.214   8.745  0.00  0.00    -0.285 OA
HETATM   13  N   UNK     0       6.870   0.630   7.866  0.00  0.00    -0.143 N 
ENDROOT
BRANCH   9  14
HETATM   14  N   UNK     0       8.635   1.682   9.599  0.00  0.00    -0.205 NA
HETATM   15  C   UNK     0       8.945   2.840   8.945  0.00  0.00     0.281 C 
HETATM   16  O   UNK     0      10.143   2.966   8.602  0.00  0.00    -0.268 OA
BRANCH  15  17
HETATM   17  C   UNK     0       8.002   3.924   8.568  0.00  0.00     0.219 C 
BRANCH  17  18
HETATM   18  N   UNK     0       8.141   4.277   7.187  0.00  0.00    -0.221 N 
HETATM   19  C   UNK     0       8.700   5.393   6.685  0.00  0.00     0.114 A 
HETATM   20  C   UNK     0       8.637   5.270   5.304  0.00  0.00     0.102 A 
HETATM   21  N   UNK     0       8.021   4.102   5.062  0.00  0.00    -0.133 NA
HETATM   22  N   UNK     0       7.746   3.537   6.196  0.00  0.00    -0.064 NA
BRANCH  20  23
HETATM   23  C   UNK     0       9.142   6.206   4.272  0.00  0.00     0.062 C 
BRANCH  23  24
HETATM   24  C   UNK     0      10.667   6.230   4.058  0.00  0.00     0.074 C 
HETATM   25 Br   UNK     0      11.257   5.885   2.679  0.00  0.00    -0.081 Br
ENDBRANCH  23  24
ENDBRANCH  20  23
ENDBRANCH  17  18
ENDBRANCH  15  17
ENDBRANCH   9  14
TORSDOF 5
ENDMDL
MODEL 9
REMARK VINA RESULT:      -6.6      3.798      8.216
REMARK  5 active torsions:
REMARK  status: ('A' for Active; 'I' for Inactive)
REMARK    1  A    between atoms: C_9  and  N_13 
REMARK       I    between atoms: N_13  and  C_14 
REMARK    2  A    between atoms: C_14  and  C_17 
REMARK    3  A    between atoms: C_17  and  N_18 
REMARK    4  A    between atoms: C_20  and  C_23 
REMARK    5  A    between atoms: C_23  and  C_24 
ROOT
HETATM    1  C   UNK     0      13.521   5.567   4.311  0.00  0.00     0.003 A 
HETATM    2  C   UNK     0      13.967   5.457   2.982  0.00  0.00     0.000 A 
HETATM    3  C   UNK     0      13.063   5.610   1.919  0.00  0.00     0.000 A 
HETATM    4  C   UNK     0      11.712   5.893   2.180  0.00  0.00     0.003 A 
HETATM    5  C   UNK     0      11.247   6.006   3.512  0.00  0.00     0.044 A 
HETATM    6  C   UNK     0      12.157   5.816   4.593  0.00  0.00     0.044 A 
HETATM    7  C   UNK     0       9.880   6.284   3.813  0.00  0.00     0.217 C 
HETATM    8  C   UNK     0       9.411   6.146   5.124  0.00  0.00     0.162 C 
HETATM    9  C   UNK     0      10.265   5.919   6.153  0.00  0.00     0.146 C 
HETATM   10  C   UNK     0      11.650   5.862   5.928  0.00  0.00     0.215 C 
HETATM   11  O   UNK     0      12.437   5.833   6.906  0.00  0.00    -0.285 OA
HETATM   12  O   UNK     0       9.095   6.641   2.900  0.00  0.00    -0.285 OA
HETATM   13  N   UNK     0       8.101   6.214   5.326  0.00  0.00    -0.143 N 
ENDROOT
BRANCH   9  14
HETATM   14  N   UNK     0       9.768   5.758   7.386  0.00  0.00    -0.205 NA
HETATM   15  C   UNK     0       9.335   4.590   7.944  0.00  0.00     0.281 C 
HETATM   16  O   UNK     0       8.874   4.681   9.105  0.00  0.00    -0.268 OA
BRANCH  15  17
HETATM   17  C   UNK     0       9.317   3.252   7.299  0.00  0.00     0.219 C 
BRANCH  17  18
HETATM   18  N   UNK     0       8.046   2.613   7.462  0.00  0.00    -0.221 N 
HETATM   19  C   UNK     0       7.722   1.663   8.356  0.00  0.00     0.114 A 
HETATM   20  C   UNK     0       6.377   1.384   8.156  0.00  0.00     0.102 A 
HETATM   21  N   UNK     0       5.983   2.165   7.137  0.00  0.00    -0.133 NA
HETATM   22  N   UNK     0       6.992   2.884   6.754  0.00  0.00    -0.064 NA
BRANCH  20  23
HETATM   23  C   UNK     0       5.512   0.436   8.897  0.00  0.00     0.062 C 
BRANCH  23  24
HETATM   24  C   UNK     0       4.568   1.050   9.948  0.00  0.00     0.074 C 
HETATM   25 Br   UNK     0       3.320   0.276  10.409  0.00  0.00    -0.081 Br
ENDBRANCH  23  24
ENDBRANCH  20  23
ENDBRANCH  17  18
ENDBRANCH  15  17
ENDBRANCH   9  14
TORSDOF 5
ENDMDL
