MODEL 1
REMARK VINA RESULT:      -8.3      0.000      0.000
REMARK  3 active torsions:
REMARK  status: ('A' for Active; 'I' for Inactive)
REMARK    1  A    between atoms: C_9  and  N_13 
REMARK       I    between atoms: N_13  and  C_14 
REMARK    2  A    between atoms: C_14  and  C_17 
REMARK    3  A    between atoms: C_17  and  N_18 
ROOT
HETATM    1  N   UNK     0      -6.304   5.787  -3.003  0.00  0.00    -0.205 NA
HETATM    2  C   UNK     0      -6.569   7.107  -3.228  0.00  0.00     0.281 C 
HETATM    3  O   UNK     0      -7.395   7.477  -4.098  0.00  0.00    -0.268 OA
ENDROOT
BRANCH   1   4
HETATM    4  C   UNK     0      -6.888   4.745  -3.617  0.00  0.00     0.146 A 
HETATM    5  C   UNK     0      -6.247   4.143  -4.650  0.00  0.00     0.162 A 
HETATM    6  C   UNK     0      -6.821   3.062  -5.334  0.00  0.00     0.217 A 
HETATM    7  N   UNK     0      -5.058   4.578  -5.051  0.00  0.00    -0.143 N 
HETATM    8  C   UNK     0      -8.139   2.623  -5.009  0.00  0.00     0.044 A 
HETATM    9  O   UNK     0      -6.172   2.479  -6.237  0.00  0.00    -0.285 OA
HETATM   10  C   UNK     0      -8.798   1.617  -5.757  0.00  0.00     0.003 A 
HETATM   11  C   UNK     0      -8.805   3.221  -3.904  0.00  0.00     0.044 A 
HETATM   12  C   UNK     0     -10.095   1.201  -5.409  0.00  0.00     0.000 A 
HETATM   13  C   UNK     0     -10.744   1.775  -4.305  0.00  0.00     0.000 A 
HETATM   14  C   UNK     0     -10.104   2.775  -3.554  0.00  0.00     0.003 A 
HETATM   15  C   UNK     0      -8.136   4.259  -3.182  0.00  0.00     0.215 A 
HETATM   16  O   UNK     0      -8.652   4.715  -2.133  0.00  0.00    -0.285 OA
ENDBRANCH   1   4
BRANCH   2  17
HETATM   17  C   UNK     0      -5.884   8.141  -2.426  0.00  0.00     0.219 C 
BRANCH  17  18
HETATM   18  N   UNK     0      -6.161   8.079  -1.023  0.00  0.00    -0.221 N 
HETATM   19  C   UNK     0      -5.300   8.273  -0.009  0.00  0.00     0.118 A 
HETATM   20  C   UNK     0      -6.056   8.251   1.157  0.00  0.00     0.123 A 
HETATM   21  N   UNK     0      -7.318   8.000   0.769  0.00  0.00    -0.129 NA
HETATM   22  C   UNK     0      -5.632   8.484   2.488  0.00  0.00     0.021 A 
HETATM   23  N   UNK     0      -7.345   7.898  -0.522  0.00  0.00    -0.063 NA
HETATM   24  C   UNK     0      -6.489   9.142   3.404  0.00  0.00     0.002 A 
HETATM   25  C   UNK     0      -4.350   8.079   2.933  0.00  0.00     0.002 A 
HETATM   26  C   UNK     0      -6.075   9.393   4.726  0.00  0.00     0.000 A 
HETATM   27  C   UNK     0      -4.803   8.976   5.156  0.00  0.00     0.000 A 
HETATM   28  C   UNK     0      -3.941   8.319   4.258  0.00  0.00     0.000 A 
ENDBRANCH  17  18
ENDBRANCH   2  17
TORSDOF 3
ENDMDL
MODEL 2
REMARK VINA RESULT:      -8.1     16.673     18.890
REMARK  3 active torsions:
REMARK  status: ('A' for Active; 'I' for Inactive)
REMARK    1  A    between atoms: C_9  and  N_13 
REMARK       I    between atoms: N_13  and  C_14 
REMARK    2  A    between atoms: C_14  and  C_17 
REMARK    3  A    between atoms: C_17  and  N_18 
ROOT
HETATM    1  N   UNK     0       9.576   5.916   6.466  0.00  0.00    -0.205 NA
HETATM    2  C   UNK     0       9.826   4.578   6.576  0.00  0.00     0.281 C 
HETATM    3  O   UNK     0      10.270   3.907   5.612  0.00  0.00    -0.268 OA
ENDROOT
BRANCH   1   4
HETATM    4  C   UNK     0       9.797   6.678   5.381  0.00  0.00     0.146 A 
HETATM    5  C   UNK     0       8.819   6.798   4.448  0.00  0.00     0.162 A 
HETATM    6  C   UNK     0       9.006   7.567   3.292  0.00  0.00     0.217 A 
HETATM    7  N   UNK     0       7.660   6.170   4.602  0.00  0.00    -0.143 N 
HETATM    8  C   UNK     0      10.269   8.178   3.030  0.00  0.00     0.044 A 
HETATM    9  O   UNK     0       8.058   7.719   2.482  0.00  0.00    -0.285 OA
HETATM   10  C   UNK     0      10.534   8.860   1.817  0.00  0.00     0.003 A 
HETATM   11  C   UNK     0      11.288   8.090   4.018  0.00  0.00     0.044 A 
HETATM   12  C   UNK     0      11.786   9.457   1.590  0.00  0.00     0.000 A 
HETATM   13  C   UNK     0      12.784   9.390   2.574  0.00  0.00     0.000 A 
HETATM   14  C   UNK     0      12.538   8.716   3.783  0.00  0.00     0.003 A 
HETATM   15  C   UNK     0      11.013   7.369   5.222  0.00  0.00     0.215 A 
HETATM   16  O   UNK     0      11.851   7.382   6.157  0.00  0.00    -0.285 OA
ENDBRANCH   1   4
BRANCH   2  17
HETATM   17  C   UNK     0       9.585   3.889   7.859  0.00  0.00     0.219 C 
BRANCH  17  18
HETATM   18  N   UNK     0       8.359   3.151   7.911  0.00  0.00    -0.221 N 
HETATM   19  C   UNK     0       7.970   2.275   8.854  0.00  0.00     0.118 A 
HETATM   20  C   UNK     0       6.659   1.929   8.549  0.00  0.00     0.123 A 
HETATM   21  N   UNK     0       6.361   2.585   7.416  0.00  0.00    -0.129 NA
HETATM   22  C   UNK     0       5.774   1.097   9.279  0.00  0.00     0.021 A 
HETATM   23  N   UNK     0       7.387   3.293   7.062  0.00  0.00    -0.063 NA
HETATM   24  C   UNK     0       4.389   1.391   9.318  0.00  0.00     0.002 A 
HETATM   25  C   UNK     0       6.245  -0.034   9.989  0.00  0.00     0.002 A 
HETATM   26  C   UNK     0       3.501   0.581  10.051  0.00  0.00     0.000 A 
HETATM   27  C   UNK     0       3.982  -0.544  10.742  0.00  0.00     0.000 A 
HETATM   28  C   UNK     0       5.355  -0.850  10.711  0.00  0.00     0.000 A 
ENDBRANCH  17  18
ENDBRANCH   2  17
TORSDOF 3
ENDMDL
MODEL 3
REMARK VINA RESULT:      -8.1     17.140     18.532
REMARK  3 active torsions:
REMARK  status: ('A' for Active; 'I' for Inactive)
REMARK    1  A    between atoms: C_9  and  N_13 
REMARK       I    between atoms: N_13  and  C_14 
REMARK    2  A    between atoms: C_14  and  C_17 
REMARK    3  A    between atoms: C_17  and  N_18 
ROOT
HETATM    1  N   UNK     0       7.687   2.236   8.925  0.00  0.00    -0.205 NA
HETATM    2  C   UNK     0       7.708   3.411   8.230  0.00  0.00     0.281 C 
HETATM    3  O   UNK     0       6.692   4.141   8.136  0.00  0.00    -0.268 OA
ENDROOT
BRANCH   1   4
HETATM    4  C   UNK     0       6.643   1.738   9.610  0.00  0.00     0.146 A 
HETATM    5  C   UNK     0       5.793   0.884   8.987  0.00  0.00     0.162 A 
HETATM    6  C   UNK     0       4.680   0.350   9.652  0.00  0.00     0.217 A 
HETATM    7  N   UNK     0       5.986   0.545   7.718  0.00  0.00    -0.143 N 
HETATM    8  C   UNK     0       4.371   0.761  10.982  0.00  0.00     0.044 A 
HETATM    9  O   UNK     0       3.953  -0.494   9.072  0.00  0.00    -0.285 OA
HETATM   10  C   UNK     0       3.190   0.338  11.642  0.00  0.00     0.003 A 
HETATM   11  C   UNK     0       5.276   1.626  11.658  0.00  0.00     0.044 A 
HETATM   12  C   UNK     0       2.916   0.755  12.955  0.00  0.00     0.000 A 
HETATM   13  C   UNK     0       3.820   1.590  13.630  0.00  0.00     0.000 A 
HETATM   14  C   UNK     0       4.994   2.020  12.989  0.00  0.00     0.003 A 
HETATM   15  C   UNK     0       6.445   2.069  10.964  0.00  0.00     0.215 A 
HETATM   16  O   UNK     0       7.316   2.732  11.578  0.00  0.00    -0.285 OA
ENDBRANCH   1   4
BRANCH   2  17
HETATM   17  C   UNK     0       8.956   3.854   7.576  0.00  0.00     0.219 C 
BRANCH  17  18
HETATM   18  N   UNK     0       8.762   4.786   6.506  0.00  0.00    -0.221 N 
HETATM   19  C   UNK     0       9.673   5.616   5.969  0.00  0.00     0.118 A 
HETATM   20  C   UNK     0       9.059   6.215   4.875  0.00  0.00     0.123 A 
HETATM   21  N   UNK     0       7.804   5.738   4.855  0.00  0.00    -0.129 NA
HETATM   22  C   UNK     0       9.619   7.110   3.931  0.00  0.00     0.021 A 
HETATM   23  N   UNK     0       7.659   4.902   5.833  0.00  0.00    -0.063 NA
HETATM   24  C   UNK     0       9.214   7.060   2.575  0.00  0.00     0.002 A 
HETATM   25  C   UNK     0      10.595   8.064   4.311  0.00  0.00     0.002 A 
HETATM   26  C   UNK     0       9.773   7.935   1.623  0.00  0.00     0.000 A 
HETATM   27  C   UNK     0      10.733   8.882   2.017  0.00  0.00     0.000 A 
HETATM   28  C   UNK     0      11.144   8.946   3.361  0.00  0.00     0.000 A 
ENDBRANCH  17  18
ENDBRANCH   2  17
TORSDOF 3
ENDMDL
MODEL 4
REMARK VINA RESULT:      -8.1     17.201     19.152
REMARK  3 active torsions:
REMARK  status: ('A' for Active; 'I' for Inactive)
REMARK    1  A    between atoms: C_9  and  N_13 
REMARK       I    between atoms: N_13  and  C_14 
REMARK    2  A    between atoms: C_14  and  C_17 
REMARK    3  A    between atoms: C_17  and  N_18 
ROOT
HETATM    1  N   UNK     0       8.073   4.782   7.429  0.00  0.00    -0.205 NA
HETATM    2  C   UNK     0       7.285   3.666   7.462  0.00  0.00     0.281 C 
HETATM    3  O   UNK     0       7.317   2.807   6.548  0.00  0.00    -0.268 OA
ENDROOT
BRANCH   1   4
HETATM    4  C   UNK     0       8.980   5.084   6.484  0.00  0.00     0.146 A 
HETATM    5  C   UNK     0      10.283   4.773   6.697  0.00  0.00     0.162 A 
HETATM    6  C   UNK     0      11.269   5.082   5.750  0.00  0.00     0.217 A 
HETATM    7  N   UNK     0      10.659   4.180   7.823  0.00  0.00    -0.143 N 
HETATM    8  C   UNK     0      10.932   5.809   4.570  0.00  0.00     0.044 A 
HETATM    9  O   UNK     0      12.455   4.716   5.942  0.00  0.00    -0.285 OA
HETATM   10  C   UNK     0      11.918   6.244   3.651  0.00  0.00     0.003 A 
HETATM   11  C   UNK     0       9.564   6.107   4.318  0.00  0.00     0.044 A 
HETATM   12  C   UNK     0      11.554   6.954   2.494  0.00  0.00     0.000 A 
HETATM   13  C   UNK     0      10.203   7.229   2.234  0.00  0.00     0.000 A 
HETATM   14  C   UNK     0       9.212   6.805   3.136  0.00  0.00     0.003 A 
HETATM   15  C   UNK     0       8.586   5.688   5.274  0.00  0.00     0.215 A 
HETATM   16  O   UNK     0       7.366   5.831   5.016  0.00  0.00    -0.285 OA
ENDBRANCH   1   4
BRANCH   2  17
HETATM   17  C   UNK     0       6.375   3.445   8.603  0.00  0.00     0.219 C 
BRANCH  17  18
HETATM   18  N   UNK     0       6.086   2.068   8.870  0.00  0.00    -0.221 N 
HETATM   19  C   UNK     0       6.665   1.273   9.785  0.00  0.00     0.118 A 
HETATM   20  C   UNK     0       5.959   0.076   9.766  0.00  0.00     0.123 A 
HETATM   21  N   UNK     0       5.030   0.215   8.807  0.00  0.00    -0.129 NA
HETATM   22  C   UNK     0       6.125  -1.059  10.597  0.00  0.00     0.021 A 
HETATM   23  N   UNK     0       5.135   1.399   8.293  0.00  0.00    -0.063 NA
HETATM   24  C   UNK     0       5.000  -1.824  10.992  0.00  0.00     0.002 A 
HETATM   25  C   UNK     0       7.405  -1.452  11.059  0.00  0.00     0.002 A 
HETATM   26  C   UNK     0       5.148  -2.946  11.829  0.00  0.00     0.000 A 
HETATM   27  C   UNK     0       6.427  -3.329  12.271  0.00  0.00     0.000 A 
HETATM   28  C   UNK     0       7.554  -2.581  11.886  0.00  0.00     0.000 A 
ENDBRANCH  17  18
ENDBRANCH   2  17
TORSDOF 3
ENDMDL
MODEL 5
REMARK VINA RESULT:      -7.9     16.846     18.881
REMARK  3 active torsions:
REMARK  status: ('A' for Active; 'I' for Inactive)
REMARK    1  A    between atoms: C_9  and  N_13 
REMARK       I    between atoms: N_13  and  C_14 
REMARK    2  A    between atoms: C_14  and  C_17 
REMARK    3  A    between atoms: C_17  and  N_18 
ROOT
HETATM    1  N   UNK     0       7.303   3.591   9.816  0.00  0.00    -0.205 NA
HETATM    2  C   UNK     0       8.630   3.282   9.714  0.00  0.00     0.281 C 
HETATM    3  O   UNK     0       9.075   2.158  10.051  0.00  0.00    -0.268 OA
ENDROOT
BRANCH   1   4
HETATM    4  C   UNK     0       6.327   2.765  10.229  0.00  0.00     0.146 A 
HETATM    5  C   UNK     0       5.701   1.977   9.320  0.00  0.00     0.162 A 
HETATM    6  C   UNK     0       4.666   1.110   9.697  0.00  0.00     0.217 A 
HETATM    7  N   UNK     0       6.046   2.019   8.039  0.00  0.00    -0.143 N 
HETATM    8  C   UNK     0       4.189   1.101  11.042  0.00  0.00     0.044 A 
HETATM    9  O   UNK     0       4.155   0.340   8.847  0.00  0.00    -0.285 OA
HETATM   10  C   UNK     0       3.066   0.330  11.433  0.00  0.00     0.003 A 
HETATM   11  C   UNK     0       4.862   1.896  12.011  0.00  0.00     0.044 A 
HETATM   12  C   UNK     0       2.624   0.338  12.767  0.00  0.00     0.000 A 
HETATM   13  C   UNK     0       3.301   1.104  13.728  0.00  0.00     0.000 A 
HETATM   14  C   UNK     0       4.415   1.875  13.356  0.00  0.00     0.003 A 
HETATM   15  C   UNK     0       5.972   2.693  11.590  0.00  0.00     0.215 A 
HETATM   16  O   UNK     0       6.655   3.306  12.446  0.00  0.00    -0.285 OA
ENDBRANCH   1   4
BRANCH   2  17
HETATM   17  C   UNK     0       9.577   4.283   9.184  0.00  0.00     0.219 C 
BRANCH  17  18
HETATM   18  N   UNK     0       9.611   4.365   7.755  0.00  0.00    -0.221 N 
HETATM   19  C   UNK     0       9.176   5.376   6.983  0.00  0.00     0.118 A 
HETATM   20  C   UNK     0       9.549   5.062   5.681  0.00  0.00     0.123 A 
HETATM   21  N   UNK     0      10.143   3.859   5.751  0.00  0.00    -0.129 NA
HETATM   22  C   UNK     0       9.392   5.839   4.507  0.00  0.00     0.021 A 
HETATM   23  N   UNK     0      10.159   3.473   6.987  0.00  0.00    -0.063 NA
HETATM   24  C   UNK     0      10.378   5.801   3.490  0.00  0.00     0.002 A 
HETATM   25  C   UNK     0       8.263   6.673   4.323  0.00  0.00     0.002 A 
HETATM   26  C   UNK     0      10.242   6.579   2.325  0.00  0.00     0.000 A 
HETATM   27  C   UNK     0       9.110   7.394   2.152  0.00  0.00     0.000 A 
HETATM   28  C   UNK     0       8.121   7.441   3.152  0.00  0.00     0.000 A 
ENDBRANCH  17  18
ENDBRANCH   2  17
TORSDOF 3
ENDMDL
MODEL 6
REMARK VINA RESULT:      -7.9     17.006     18.725
REMARK  3 active torsions:
REMARK  status: ('A' for Active; 'I' for Inactive)
REMARK    1  A    between atoms: C_9  and  N_13 
REMARK       I    between atoms: N_13  and  C_14 
REMARK    2  A    between atoms: C_14  and  C_17 
REMARK    3  A    between atoms: C_17  and  N_18 
ROOT
HETATM    1  N   UNK     0       7.784   2.135   7.821  0.00  0.00    -0.205 NA
HETATM    2  C   UNK     0       7.745   3.285   7.086  0.00  0.00     0.281 C 
HETATM    3  O   UNK     0       7.002   4.246   7.401  0.00  0.00    -0.268 OA
ENDROOT
BRANCH   1   4
HETATM    4  C   UNK     0       7.101   1.894   8.953  0.00  0.00     0.146 A 
HETATM    5  C   UNK     0       7.733   2.024  10.146  0.00  0.00     0.162 A 
HETATM    6  C   UNK     0       7.070   1.769  11.354  0.00  0.00     0.217 A 
HETATM    7  N   UNK     0       9.011   2.383  10.196  0.00  0.00    -0.143 N 
HETATM    8  C   UNK     0       5.729   1.282  11.350  0.00  0.00     0.044 A 
HETATM    9  O   UNK     0       7.660   1.968  12.445  0.00  0.00    -0.285 OA
HETATM   10  C   UNK     0       5.067   0.898  12.543  0.00  0.00     0.003 A 
HETATM   11  C   UNK     0       5.043   1.179  10.108  0.00  0.00     0.044 A 
HETATM   12  C   UNK     0       3.744   0.429  12.507  0.00  0.00     0.000 A 
HETATM   13  C   UNK     0       3.060   0.347  11.284  0.00  0.00     0.000 A 
HETATM   14  C   UNK     0       3.702   0.723  10.092  0.00  0.00     0.003 A 
HETATM   15  C   UNK     0       5.739   1.539   8.911  0.00  0.00     0.215 A 
HETATM   16  O   UNK     0       5.118   1.572   7.820  0.00  0.00    -0.285 OA
ENDBRANCH   1   4
BRANCH   2  17
HETATM   17  C   UNK     0       8.603   3.422   5.892  0.00  0.00     0.219 C 
BRANCH  17  18
HETATM   18  N   UNK     0       8.715   4.760   5.397  0.00  0.00    -0.221 N 
HETATM   19  C   UNK     0       9.838   5.480   5.230  0.00  0.00     0.118 A 
HETATM   20  C   UNK     0       9.459   6.657   4.595  0.00  0.00     0.123 A 
HETATM   21  N   UNK     0       8.124   6.586   4.462  0.00  0.00    -0.129 NA
HETATM   22  C   UNK     0      10.280   7.712   4.129  0.00  0.00     0.021 A 
HETATM   23  N   UNK     0       7.715   5.458   4.950  0.00  0.00    -0.063 NA
HETATM   24  C   UNK     0       9.941   8.410   2.943  0.00  0.00     0.002 A 
HETATM   25  C   UNK     0      11.455   8.090   4.823  0.00  0.00     0.002 A 
HETATM   26  C   UNK     0      10.756   9.451   2.461  0.00  0.00     0.000 A 
HETATM   27  C   UNK     0      11.915   9.821   3.167  0.00  0.00     0.000 A 
HETATM   28  C   UNK     0      12.264   9.140   4.347  0.00  0.00     0.000 A 
ENDBRANCH  17  18
ENDBRANCH   2  17
TORSDOF 3
ENDMDL
MODEL 7
REMARK VINA RESULT:      -7.9      3.333      5.372
REMARK  3 active torsions:
REMARK  status: ('A' for Active; 'I' for Inactive)
REMARK    1  A    between atoms: C_9  and  N_13 
REMARK       I    between atoms: N_13  and  C_14 
REMARK    2  A    between atoms: C_14  and  C_17 
REMARK    3  A    between atoms: C_17  and  N_18 
ROOT
HETATM    1  N   UNK     0      -6.288   5.758  -2.998  0.00  0.00    -0.205 NA
HETATM    2  C   UNK     0      -6.538   7.080  -3.234  0.00  0.00     0.281 C 
HETATM    3  O   UNK     0      -7.343   7.453  -4.122  0.00  0.00    -0.268 OA
ENDROOT
BRANCH   1   4
HETATM    4  C   UNK     0      -6.869   4.719  -3.621  0.00  0.00     0.146 A 
HETATM    5  C   UNK     0      -6.223   4.124  -4.655  0.00  0.00     0.162 A 
HETATM    6  C   UNK     0      -6.793   3.047  -5.347  0.00  0.00     0.217 A 
HETATM    7  N   UNK     0      -5.034   4.564  -5.051  0.00  0.00    -0.143 N 
HETATM    8  C   UNK     0      -8.111   2.603  -5.028  0.00  0.00     0.044 A 
HETATM    9  O   UNK     0      -6.141   2.471  -6.253  0.00  0.00    -0.285 OA
HETATM   10  C   UNK     0      -8.767   1.600  -5.784  0.00  0.00     0.003 A 
HETATM   11  C   UNK     0      -8.782   3.193  -3.921  0.00  0.00     0.044 A 
HETATM   12  C   UNK     0     -10.063   1.179  -5.441  0.00  0.00     0.000 A 
HETATM   13  C   UNK     0     -10.716   1.745  -4.336  0.00  0.00     0.000 A 
HETATM   14  C   UNK     0     -10.080   2.742  -3.577  0.00  0.00     0.003 A 
HETATM   15  C   UNK     0      -8.117   4.227  -3.192  0.00  0.00     0.215 A 
HETATM   16  O   UNK     0      -8.636   4.677  -2.141  0.00  0.00    -0.285 OA
ENDBRANCH   1   4
BRANCH   2  17
HETATM   17  C   UNK     0      -5.859   8.111  -2.422  0.00  0.00     0.219 C 
BRANCH  17  18
HETATM   18  N   UNK     0      -4.825   8.820  -3.114  0.00  0.00    -0.221 N 
HETATM   19  C   UNK     0      -3.604   8.367  -3.447  0.00  0.00     0.118 A 
HETATM   20  C   UNK     0      -3.018   9.358  -4.225  0.00  0.00     0.123 A 
HETATM   21  N   UNK     0      -3.909  10.362  -4.270  0.00  0.00    -0.129 NA
HETATM   22  C   UNK     0      -1.765   9.335  -4.885  0.00  0.00     0.021 A 
HETATM   23  N   UNK     0      -4.962  10.016  -3.600  0.00  0.00    -0.063 NA
HETATM   24  C   UNK     0      -1.609   9.976  -6.139  0.00  0.00     0.002 A 
HETATM   25  C   UNK     0      -0.649   8.672  -4.322  0.00  0.00     0.002 A 
HETATM   26  C   UNK     0      -0.373   9.949  -6.814  0.00  0.00     0.000 A 
HETATM   27  C   UNK     0       0.729   9.294  -6.236  0.00  0.00     0.000 A 
HETATM   28  C   UNK     0       0.590   8.655  -4.991  0.00  0.00     0.000 A 
ENDBRANCH  17  18
ENDBRANCH   2  17
TORSDOF 3
ENDMDL
MODEL 8
REMARK VINA RESULT:      -7.8      3.894      5.941
REMARK  3 active torsions:
REMARK  status: ('A' for Active; 'I' for Inactive)
REMARK    1  A    between atoms: C_9  and  N_13 
REMARK       I    between atoms: N_13  and  C_14 
REMARK    2  A    between atoms: C_14  and  C_17 
REMARK    3  A    between atoms: C_17  and  N_18 
ROOT
HETATM    1  N   UNK     0      -6.333   7.788  -3.386  0.00  0.00    -0.205 NA
HETATM    2  C   UNK     0      -5.701   8.154  -2.232  0.00  0.00     0.281 C 
HETATM    3  O   UNK     0      -5.404   7.316  -1.347  0.00  0.00    -0.268 OA
ENDROOT
BRANCH   1   4
HETATM    4  C   UNK     0      -6.672   6.537  -3.741  0.00  0.00     0.146 A 
HETATM    5  C   UNK     0      -7.862   6.033  -3.329  0.00  0.00     0.162 A 
HETATM    6  C   UNK     0      -8.254   4.728  -3.659  0.00  0.00     0.217 A 
HETATM    7  N   UNK     0      -8.681   6.763  -2.582  0.00  0.00    -0.143 N 
HETATM    8  C   UNK     0      -7.366   3.868  -4.372  0.00  0.00     0.044 A 
HETATM    9  O   UNK     0      -9.392   4.314  -3.325  0.00  0.00    -0.285 OA
HETATM   10  C   UNK     0      -7.678   2.508  -4.618  0.00  0.00     0.003 A 
HETATM   11  C   UNK     0      -6.133   4.398  -4.843  0.00  0.00     0.044 A 
HETATM   12  C   UNK     0      -6.785   1.687  -5.329  0.00  0.00     0.000 A 
HETATM   13  C   UNK     0      -5.578   2.215  -5.812  0.00  0.00     0.000 A 
HETATM   14  C   UNK     0      -5.254   3.562  -5.576  0.00  0.00     0.003 A 
HETATM   15  C   UNK     0      -5.822   5.764  -4.556  0.00  0.00     0.215 A 
HETATM   16  O   UNK     0      -4.799   6.286  -5.063  0.00  0.00    -0.285 OA
ENDBRANCH   1   4
BRANCH   2  17
HETATM   17  C   UNK     0      -5.341   9.569  -2.011  0.00  0.00     0.219 C 
BRANCH  17  18
HETATM   18  N   UNK     0      -3.958   9.867  -2.228  0.00  0.00    -0.221 N 
HETATM   19  C   UNK     0      -3.129   9.301  -3.123  0.00  0.00     0.118 A 
HETATM   20  C   UNK     0      -1.937  10.012  -3.057  0.00  0.00     0.123 A 
HETATM   21  N   UNK     0      -2.112  10.930  -2.092  0.00  0.00    -0.129 NA
HETATM   22  C   UNK     0      -0.774   9.859  -3.851  0.00  0.00     0.021 A 
HETATM   23  N   UNK     0      -3.312  10.815  -1.620  0.00  0.00    -0.063 NA
HETATM   24  C   UNK     0      -0.002  10.992  -4.208  0.00  0.00     0.002 A 
HETATM   25  C   UNK     0      -0.360   8.586  -4.313  0.00  0.00     0.002 A 
HETATM   26  C   UNK     0       1.148  10.857  -5.009  0.00  0.00     0.000 A 
HETATM   27  C   UNK     0       1.551   9.585  -5.452  0.00  0.00     0.000 A 
HETATM   28  C   UNK     0       0.796   8.450  -5.103  0.00  0.00     0.000 A 
ENDBRANCH  17  18
ENDBRANCH   2  17
TORSDOF 3
ENDMDL
MODEL 9
REMARK VINA RESULT:      -7.8      2.091      3.391
REMARK  3 active torsions:
REMARK  status: ('A' for Active; 'I' for Inactive)
REMARK    1  A    between atoms: C_9  and  N_13 
REMARK       I    between atoms: N_13  and  C_14 
REMARK    2  A    between atoms: C_14  and  C_17 
REMARK    3  A    between atoms: C_17  and  N_18 
ROOT
HETATM    1  N   UNK     0      -7.026   7.716  -2.294  0.00  0.00    -0.205 NA
HETATM    2  C   UNK     0      -6.135   8.084  -1.327  0.00  0.00     0.281 C 
HETATM    3  O   UNK     0      -5.234   7.307  -0.929  0.00  0.00    -0.268 OA
ENDROOT
BRANCH   1   4
HETATM    4  C   UNK     0      -7.040   6.546  -2.956  0.00  0.00     0.146 A 
HETATM    5  C   UNK     0      -7.965   5.611  -2.624  0.00  0.00     0.162 A 
HETATM    6  C   UNK     0      -8.011   4.369  -3.273  0.00  0.00     0.217 A 
HETATM    7  N   UNK     0      -8.844   5.846  -1.657  0.00  0.00    -0.143 N 
HETATM    8  C   UNK     0      -7.025   4.030  -4.246  0.00  0.00     0.044 A 
HETATM    9  O   UNK     0      -8.923   3.553  -2.994  0.00  0.00    -0.285 OA
HETATM   10  C   UNK     0      -6.966   2.742  -4.834  0.00  0.00     0.003 A 
HETATM   11  C   UNK     0      -6.074   5.016  -4.630  0.00  0.00     0.044 A 
HETATM   12  C   UNK     0      -5.987   2.439  -5.796  0.00  0.00     0.000 A 
HETATM   13  C   UNK     0      -5.063   3.418  -6.190  0.00  0.00     0.000 A 
HETATM   14  C   UNK     0      -5.107   4.700  -5.616  0.00  0.00     0.003 A 
HETATM   15  C   UNK     0      -6.129   6.299  -4.001  0.00  0.00     0.215 A 
HETATM   16  O   UNK     0      -5.381   7.221  -4.408  0.00  0.00    -0.285 OA
ENDBRANCH   1   4
BRANCH   2  17
HETATM   17  C   UNK     0      -6.214   9.434  -0.732  0.00  0.00     0.219 C 
BRANCH  17  18
HETATM   18  N   UNK     0      -5.582   9.552   0.547  0.00  0.00    -0.221 N 
HETATM   19  C   UNK     0      -5.866   8.865   1.667  0.00  0.00     0.118 A 
HETATM   20  C   UNK     0      -4.901   9.222   2.601  0.00  0.00     0.123 A 
HETATM   21  N   UNK     0      -4.127  10.137   1.994  0.00  0.00    -0.129 NA
HETATM   22  C   UNK     0      -4.713   8.719   3.911  0.00  0.00     0.021 A 
HETATM   23  N   UNK     0      -4.558  10.313   0.786  0.00  0.00    -0.063 NA
HETATM   24  C   UNK     0      -3.406   8.575   4.439  0.00  0.00     0.002 A 
HETATM   25  C   UNK     0      -5.813   8.341   4.719  0.00  0.00     0.002 A 
HETATM   26  C   UNK     0      -3.203   8.062   5.734  0.00  0.00     0.000 A 
HETATM   27  C   UNK     0      -4.306   7.701   6.528  0.00  0.00     0.000 A 
HETATM   28  C   UNK     0      -5.610   7.840   6.019  0.00  0.00     0.000 A 
ENDBRANCH  17  18
ENDBRANCH   2  17
TORSDOF 3
ENDMDL
