MODEL 1
REMARK VINA RESULT:      -7.1      0.000      0.000
REMARK  6 active torsions:
REMARK  status: ('A' for Active; 'I' for Inactive)
REMARK    1  A    between atoms: C_9  and  N_13 
REMARK       I    between atoms: N_13  and  C_14 
REMARK    2  A    between atoms: C_14  and  C_17 
REMARK    3  A    between atoms: C_17  and  N_18 
REMARK    4  A    between atoms: C_20  and  C_23 
REMARK    5  A    between atoms: C_23  and  C_24 
REMARK    6  A    between atoms: C_24  and  C_25 
ROOT
HETATM    1  N   UNK     0      -3.929  -5.334  -2.747  0.00  0.00    -0.205 NA
HETATM    2  C   UNK     0      -4.436  -4.361  -3.560  0.00  0.00     0.281 C 
HETATM    3  O   UNK     0      -3.958  -3.215  -3.404  0.00  0.00    -0.268 OA
ENDROOT
BRANCH   2   4
HETATM    4  C   UNK     0      -5.437  -4.544  -4.640  0.00  0.00     0.219 C 
BRANCH   4   5
HETATM    5  N   UNK     0      -4.886  -5.302  -5.722  0.00  0.00    -0.221 N 
HETATM    6  C   UNK     0      -5.317  -6.496  -6.171  0.00  0.00     0.114 A 
HETATM    7  C   UNK     0      -4.499  -6.822  -7.242  0.00  0.00     0.101 A 
HETATM    8  N   UNK     0      -3.623  -5.813  -7.362  0.00  0.00    -0.133 NA
HETATM    9  N   UNK     0      -3.881  -4.927  -6.450  0.00  0.00    -0.064 NA
BRANCH   7  10
HETATM   10  C   UNK     0      -4.550  -8.018  -8.107  0.00  0.00     0.054 C 
BRANCH  10  11
HETATM   11  C   UNK     0      -3.505  -9.091  -7.695  0.00  0.00     0.033 C 
BRANCH  11  12
HETATM   12  C   UNK     0      -4.143 -10.260  -7.029  0.00  0.00    -0.022 A 
HETATM   13  C   UNK     0      -5.353 -10.114  -6.308  0.00  0.00    -0.004 A 
HETATM   14  C   UNK     0      -5.967 -11.224  -5.698  0.00  0.00    -0.000 A 
HETATM   15  C   UNK     0      -5.378 -12.497  -5.796  0.00  0.00     0.000 A 
HETATM   16  C   UNK     0      -4.171 -12.658  -6.500  0.00  0.00    -0.000 A 
HETATM   17  C   UNK     0      -3.558 -11.547  -7.111  0.00  0.00    -0.004 A 
ENDBRANCH  11  12
ENDBRANCH  10  11
ENDBRANCH   7  10
ENDBRANCH   4   5
ENDBRANCH   2   4
BRANCH   1  18
HETATM   18  C   UNK     0      -4.257  -6.633  -2.757  0.00  0.00     0.146 C 
HETATM   19  C   UNK     0      -5.361  -7.044  -2.089  0.00  0.00     0.162 C 
HETATM   20  C   UNK     0      -5.679  -8.403  -1.987  0.00  0.00     0.217 C 
HETATM   21  N   UNK     0      -6.148  -6.169  -1.474  0.00  0.00    -0.143 N 
HETATM   22  C   UNK     0      -4.747  -9.386  -2.435  0.00  0.00     0.044 A 
HETATM   23  O   UNK     0      -6.774  -8.756  -1.486  0.00  0.00    -0.285 OA
HETATM   24  C   UNK     0      -4.895 -10.760  -2.127  0.00  0.00     0.003 A 
HETATM   25  C   UNK     0      -3.616  -8.961  -3.188  0.00  0.00     0.044 A 
HETATM   26  C   UNK     0      -3.937 -11.696  -2.555  0.00  0.00     0.000 A 
HETATM   27  C   UNK     0      -2.831 -11.278  -3.314  0.00  0.00     0.000 A 
HETATM   28  C   UNK     0      -2.675  -9.919  -3.635  0.00  0.00     0.003 A 
HETATM   29  C   UNK     0      -3.451  -7.566  -3.433  0.00  0.00     0.215 C 
HETATM   30  O   UNK     0      -2.579  -7.168  -4.244  0.00  0.00    -0.285 OA
ENDBRANCH   1  18
TORSDOF 6
ENDMDL
MODEL 2
REMARK VINA RESULT:      -7.0      0.751      1.384
REMARK  6 active torsions:
REMARK  status: ('A' for Active; 'I' for Inactive)
REMARK    1  A    between atoms: C_9  and  N_13 
REMARK       I    between atoms: N_13  and  C_14 
REMARK    2  A    between atoms: C_14  and  C_17 
REMARK    3  A    between atoms: C_17  and  N_18 
REMARK    4  A    between atoms: C_20  and  C_23 
REMARK    5  A    between atoms: C_23  and  C_24 
REMARK    6  A    between atoms: C_24  and  C_25 
ROOT
HETATM    1  N   UNK     0      -3.896  -5.377  -2.774  0.00  0.00    -0.205 NA
HETATM    2  C   UNK     0      -4.444  -4.412  -3.570  0.00  0.00     0.281 C 
HETATM    3  O   UNK     0      -3.963  -3.263  -3.445  0.00  0.00    -0.268 OA
ENDROOT
BRANCH   2   4
HETATM    4  C   UNK     0      -5.493  -4.607  -4.602  0.00  0.00     0.219 C 
BRANCH   4   5
HETATM    5  N   UNK     0      -4.981  -5.347  -5.714  0.00  0.00    -0.221 N 
HETATM    6  C   UNK     0      -5.479  -6.492  -6.218  0.00  0.00     0.114 A 
HETATM    7  C   UNK     0      -4.675  -6.818  -7.300  0.00  0.00     0.101 A 
HETATM    8  N   UNK     0      -3.741  -5.858  -7.372  0.00  0.00    -0.133 NA
HETATM    9  N   UNK     0      -3.951  -5.001  -6.422  0.00  0.00    -0.064 NA
BRANCH   7  10
HETATM   10  C   UNK     0      -4.793  -7.970  -8.218  0.00  0.00     0.054 C 
BRANCH  10  11
HETATM   11  C   UNK     0      -5.048  -9.303  -7.464  0.00  0.00     0.033 C 
BRANCH  11  12
HETATM   12  C   UNK     0      -3.791 -10.077  -7.263  0.00  0.00    -0.022 A 
HETATM   13  C   UNK     0      -2.529  -9.437  -7.316  0.00  0.00    -0.004 A 
HETATM   14  C   UNK     0      -1.344 -10.166  -7.102  0.00  0.00    -0.000 A 
HETATM   15  C   UNK     0      -1.402 -11.545  -6.838  0.00  0.00     0.000 A 
HETATM   16  C   UNK     0      -2.648 -12.198  -6.793  0.00  0.00    -0.000 A 
HETATM   17  C   UNK     0      -3.834 -11.469  -7.005  0.00  0.00    -0.004 A 
ENDBRANCH  11  12
ENDBRANCH  10  11
ENDBRANCH   7  10
ENDBRANCH   4   5
ENDBRANCH   2   4
BRANCH   1  18
HETATM   18  C   UNK     0      -4.219  -6.677  -2.759  0.00  0.00     0.146 C 
HETATM   19  C   UNK     0      -5.290  -7.086  -2.038  0.00  0.00     0.162 C 
HETATM   20  C   UNK     0      -5.598  -8.445  -1.911  0.00  0.00     0.217 C 
HETATM   21  N   UNK     0      -6.051  -6.208  -1.395  0.00  0.00    -0.143 N 
HETATM   22  C   UNK     0      -4.684  -9.428  -2.393  0.00  0.00     0.044 A 
HETATM   23  O   UNK     0      -6.668  -8.798  -1.358  0.00  0.00    -0.285 OA
HETATM   24  C   UNK     0      -4.812 -10.800  -2.068  0.00  0.00     0.003 A 
HETATM   25  C   UNK     0      -3.590  -9.006  -3.199  0.00  0.00     0.044 A 
HETATM   26  C   UNK     0      -3.872 -11.736  -2.531  0.00  0.00     0.000 A 
HETATM   27  C   UNK     0      -2.803 -11.321  -3.343  0.00  0.00     0.000 A 
HETATM   28  C   UNK     0      -2.666  -9.965  -3.682  0.00  0.00     0.003 A 
HETATM   29  C   UNK     0      -3.441  -7.612  -3.463  0.00  0.00     0.215 C 
HETATM   30  O   UNK     0      -2.609  -7.218  -4.316  0.00  0.00    -0.285 OA
ENDBRANCH   1  18
TORSDOF 6
ENDMDL
MODEL 3
REMARK VINA RESULT:      -6.9      1.368      4.625
REMARK  6 active torsions:
REMARK  status: ('A' for Active; 'I' for Inactive)
REMARK    1  A    between atoms: C_9  and  N_13 
REMARK       I    between atoms: N_13  and  C_14 
REMARK    2  A    between atoms: C_14  and  C_17 
REMARK    3  A    between atoms: C_17  and  N_18 
REMARK    4  A    between atoms: C_20  and  C_23 
REMARK    5  A    between atoms: C_23  and  C_24 
REMARK    6  A    between atoms: C_24  and  C_25 
ROOT
HETATM    1  N   UNK     0      -5.313  -5.430  -6.060  0.00  0.00    -0.205 NA
HETATM    2  C   UNK     0      -5.086  -4.505  -5.082  0.00  0.00     0.281 C 
HETATM    3  O   UNK     0      -5.732  -3.438  -5.178  0.00  0.00    -0.268 OA
ENDROOT
BRANCH   2   4
HETATM    4  C   UNK     0      -4.208  -4.670  -3.896  0.00  0.00     0.219 C 
BRANCH   4   5
HETATM    5  N   UNK     0      -4.789  -5.577  -2.955  0.00  0.00    -0.221 N 
HETATM    6  C   UNK     0      -4.281  -6.757  -2.553  0.00  0.00     0.114 A 
HETATM    7  C   UNK     0      -5.174  -7.263  -1.620  0.00  0.00     0.101 A 
HETATM    8  N   UNK     0      -6.165  -6.364  -1.528  0.00  0.00    -0.133 NA
HETATM    9  N   UNK     0      -5.907  -5.376  -2.327  0.00  0.00    -0.064 NA
BRANCH   7  10
HETATM   10  C   UNK     0      -5.086  -8.523  -0.853  0.00  0.00     0.054 C 
BRANCH  10  11
HETATM   11  C   UNK     0      -5.794  -9.703  -1.574  0.00  0.00     0.033 C 
BRANCH  11  12
HETATM   12  C   UNK     0      -4.819 -10.609  -2.245  0.00  0.00    -0.022 A 
HETATM   13  C   UNK     0      -3.635 -10.096  -2.828  0.00  0.00    -0.004 A 
HETATM   14  C   UNK     0      -2.704 -10.956  -3.440  0.00  0.00    -0.000 A 
HETATM   15  C   UNK     0      -2.945 -12.340  -3.484  0.00  0.00     0.000 A 
HETATM   16  C   UNK     0      -4.122 -12.864  -2.918  0.00  0.00    -0.000 A 
HETATM   17  C   UNK     0      -5.052 -12.004  -2.304  0.00  0.00    -0.004 A 
ENDBRANCH  11  12
ENDBRANCH  10  11
ENDBRANCH   7  10
ENDBRANCH   4   5
ENDBRANCH   2   4
BRANCH   1  18
HETATM   18  C   UNK     0      -4.769  -6.651  -6.146  0.00  0.00     0.146 C 
HETATM   19  C   UNK     0      -3.551  -6.796  -6.720  0.00  0.00     0.162 C 
HETATM   20  C   UNK     0      -2.994  -8.063  -6.923  0.00  0.00     0.217 C 
HETATM   21  N   UNK     0      -2.870  -5.738  -7.145  0.00  0.00    -0.143 N 
HETATM   22  C   UNK     0      -3.783  -9.230  -6.692  0.00  0.00     0.044 A 
HETATM   23  O   UNK     0      -1.811  -8.173  -7.327  0.00  0.00    -0.285 OA
HETATM   24  C   UNK     0      -3.371 -10.514  -7.120  0.00  0.00     0.003 A 
HETATM   25  C   UNK     0      -5.038  -9.086  -6.037  0.00  0.00     0.044 A 
HETATM   26  C   UNK     0      -4.190 -11.637  -6.906  0.00  0.00     0.000 A 
HETATM   27  C   UNK     0      -5.420 -11.496  -6.243  0.00  0.00     0.000 A 
HETATM   28  C   UNK     0      -5.840 -10.230  -5.803  0.00  0.00     0.003 A 
HETATM   29  C   UNK     0      -5.464  -7.775  -5.669  0.00  0.00     0.215 C 
HETATM   30  O   UNK     0      -6.467  -7.623  -4.929  0.00  0.00    -0.285 OA
ENDBRANCH   1  18
TORSDOF 6
ENDMDL
MODEL 4
REMARK VINA RESULT:      -6.7      1.814      4.446
REMARK  6 active torsions:
REMARK  status: ('A' for Active; 'I' for Inactive)
REMARK    1  A    between atoms: C_9  and  N_13 
REMARK       I    between atoms: N_13  and  C_14 
REMARK    2  A    between atoms: C_14  and  C_17 
REMARK    3  A    between atoms: C_17  and  N_18 
REMARK    4  A    between atoms: C_20  and  C_23 
REMARK    5  A    between atoms: C_23  and  C_24 
REMARK    6  A    between atoms: C_24  and  C_25 
ROOT
HETATM    1  N   UNK     0      -3.880  -5.357  -5.593  0.00  0.00    -0.205 NA
HETATM    2  C   UNK     0      -5.122  -4.922  -5.230  0.00  0.00     0.281 C 
HETATM    3  O   UNK     0      -5.293  -3.682  -5.246  0.00  0.00    -0.268 OA
ENDROOT
BRANCH   2   4
HETATM    4  C   UNK     0      -6.291  -5.770  -4.888  0.00  0.00     0.219 C 
BRANCH   4   5
HETATM    5  N   UNK     0      -6.155  -6.319  -3.574  0.00  0.00    -0.221 N 
HETATM    6  C   UNK     0      -6.181  -7.623  -3.238  0.00  0.00     0.114 A 
HETATM    7  C   UNK     0      -5.983  -7.671  -1.867  0.00  0.00     0.101 A 
HETATM    8  N   UNK     0      -5.862  -6.397  -1.463  0.00  0.00    -0.133 NA
HETATM    9  N   UNK     0      -5.965  -5.622  -2.497  0.00  0.00    -0.064 NA
BRANCH   7  10
HETATM   10  C   UNK     0      -5.904  -8.858  -0.990  0.00  0.00     0.054 C 
BRANCH  10  11
HETATM   11  C   UNK     0      -6.935  -9.951  -1.383  0.00  0.00     0.033 C 
BRANCH  11  12
HETATM   12  C   UNK     0      -6.271 -11.223  -1.782  0.00  0.00    -0.022 A 
HETATM   13  C   UNK     0      -5.370 -11.877  -0.907  0.00  0.00    -0.004 A 
HETATM   14  C   UNK     0      -4.762 -13.092  -1.276  0.00  0.00    -0.000 A 
HETATM   15  C   UNK     0      -5.041 -13.668  -2.528  0.00  0.00     0.000 A 
HETATM   16  C   UNK     0      -5.925 -13.025  -3.413  0.00  0.00    -0.000 A 
HETATM   17  C   UNK     0      -6.535 -11.812  -3.043  0.00  0.00    -0.004 A 
ENDBRANCH  11  12
ENDBRANCH  10  11
ENDBRANCH   7  10
ENDBRANCH   4   5
ENDBRANCH   2   4
BRANCH   1  18
HETATM   18  C   UNK     0      -3.476  -6.631  -5.687  0.00  0.00     0.146 C 
HETATM   19  C   UNK     0      -3.486  -7.243  -6.895  0.00  0.00     0.162 C 
HETATM   20  C   UNK     0      -3.172  -8.601  -7.019  0.00  0.00     0.217 C 
HETATM   21  N   UNK     0      -3.838  -6.579  -7.990  0.00  0.00    -0.143 N 
HETATM   22  C   UNK     0      -3.011  -9.402  -5.849  0.00  0.00     0.044 A 
HETATM   23  O   UNK     0      -3.051  -9.117  -8.157  0.00  0.00    -0.285 OA
HETATM   24  C   UNK     0      -2.951 -10.815  -5.906  0.00  0.00     0.003 A 
HETATM   25  C   UNK     0      -2.942  -8.755  -4.583  0.00  0.00     0.044 A 
HETATM   26  C   UNK     0      -2.827 -11.574  -4.730  0.00  0.00     0.000 A 
HETATM   27  C   UNK     0      -2.740 -10.933  -3.482  0.00  0.00     0.000 A 
HETATM   28  C   UNK     0      -2.790  -9.531  -3.409  0.00  0.00     0.003 A 
HETATM   29  C   UNK     0      -3.068  -7.335  -4.541  0.00  0.00     0.215 C 
HETATM   30  O   UNK     0      -2.827  -6.713  -3.477  0.00  0.00    -0.285 OA
ENDBRANCH   1  18
TORSDOF 6
ENDMDL
MODEL 5
REMARK VINA RESULT:      -6.4      1.396      2.584
REMARK  6 active torsions:
REMARK  status: ('A' for Active; 'I' for Inactive)
REMARK    1  A    between atoms: C_9  and  N_13 
REMARK       I    between atoms: N_13  and  C_14 
REMARK    2  A    between atoms: C_14  and  C_17 
REMARK    3  A    between atoms: C_17  and  N_18 
REMARK    4  A    between atoms: C_20  and  C_23 
REMARK    5  A    between atoms: C_23  and  C_24 
REMARK    6  A    between atoms: C_24  and  C_25 
ROOT
HETATM    1  N   UNK     0      -4.288  -5.619  -2.434  0.00  0.00    -0.205 NA
HETATM    2  C   UNK     0      -4.758  -4.724  -3.351  0.00  0.00     0.281 C 
HETATM    3  O   UNK     0      -4.342  -3.549  -3.230  0.00  0.00    -0.268 OA
ENDROOT
BRANCH   2   4
HETATM    4  C   UNK     0      -5.648  -5.020  -4.501  0.00  0.00     0.219 C 
BRANCH   4   5
HETATM    5  N   UNK     0      -4.900  -5.547  -5.601  0.00  0.00    -0.221 N 
HETATM    6  C   UNK     0      -5.027  -6.770  -6.149  0.00  0.00     0.114 A 
HETATM    7  C   UNK     0      -4.120  -6.818  -7.197  0.00  0.00     0.101 A 
HETATM    8  N   UNK     0      -3.499  -5.629  -7.206  0.00  0.00    -0.133 NA
HETATM    9  N   UNK     0      -3.985  -4.898  -6.252  0.00  0.00    -0.064 NA
BRANCH   7  10
HETATM   10  C   UNK     0      -3.864  -7.925  -8.142  0.00  0.00     0.054 C 
BRANCH  10  11
HETATM   11  C   UNK     0      -4.665  -9.206  -7.781  0.00  0.00     0.033 C 
BRANCH  11  12
HETATM   12  C   UNK     0      -3.801 -10.240  -7.145  0.00  0.00    -0.022 A 
HETATM   13  C   UNK     0      -2.394 -10.085  -7.104  0.00  0.00    -0.004 A 
HETATM   14  C   UNK     0      -1.581 -11.052  -6.482  0.00  0.00    -0.000 A 
HETATM   15  C   UNK     0      -2.162 -12.191  -5.898  0.00  0.00     0.000 A 
HETATM   16  C   UNK     0      -3.557 -12.366  -5.941  0.00  0.00    -0.000 A 
HETATM   17  C   UNK     0      -4.370 -11.397  -6.560  0.00  0.00    -0.004 A 
ENDBRANCH  11  12
ENDBRANCH  10  11
ENDBRANCH   7  10
ENDBRANCH   4   5
ENDBRANCH   2   4
BRANCH   1  18
HETATM   18  C   UNK     0      -4.561  -6.930  -2.386  0.00  0.00     0.146 C 
HETATM   19  C   UNK     0      -3.725  -7.805  -2.994  0.00  0.00     0.162 C 
HETATM   20  C   UNK     0      -4.029  -9.170  -3.057  0.00  0.00     0.217 C 
HETATM   21  N   UNK     0      -2.614  -7.383  -3.586  0.00  0.00    -0.143 N 
HETATM   22  C   UNK     0      -5.312  -9.631  -2.636  0.00  0.00     0.044 A 
HETATM   23  O   UNK     0      -3.181  -9.983  -3.499  0.00  0.00    -0.285 OA
HETATM   24  C   UNK     0      -5.768 -10.942  -2.912  0.00  0.00     0.003 A 
HETATM   25  C   UNK     0      -6.169  -8.729  -1.946  0.00  0.00     0.044 A 
HETATM   26  C   UNK     0      -7.052 -11.352  -2.514  0.00  0.00     0.000 A 
HETATM   27  C   UNK     0      -7.890 -10.466  -1.816  0.00  0.00     0.000 A 
HETATM   28  C   UNK     0      -7.449  -9.164  -1.526  0.00  0.00     0.003 A 
HETATM   29  C   UNK     0      -5.716  -7.393  -1.733  0.00  0.00     0.215 C 
HETATM   30  O   UNK     0      -6.354  -6.626  -0.971  0.00  0.00    -0.285 OA
ENDBRANCH   1  18
TORSDOF 6
ENDMDL
MODEL 6
REMARK VINA RESULT:      -6.4      2.369      4.805
REMARK  6 active torsions:
REMARK  status: ('A' for Active; 'I' for Inactive)
REMARK    1  A    between atoms: C_9  and  N_13 
REMARK       I    between atoms: N_13  and  C_14 
REMARK    2  A    between atoms: C_14  and  C_17 
REMARK    3  A    between atoms: C_17  and  N_18 
REMARK    4  A    between atoms: C_20  and  C_23 
REMARK    5  A    between atoms: C_23  and  C_24 
REMARK    6  A    between atoms: C_24  and  C_25 
ROOT
HETATM    1  N   UNK     0      -5.071  -6.188  -7.221  0.00  0.00    -0.205 NA
HETATM    2  C   UNK     0      -3.908  -6.605  -7.804  0.00  0.00     0.281 C 
HETATM    3  O   UNK     0      -3.879  -6.562  -9.054  0.00  0.00    -0.268 OA
ENDROOT
BRANCH   2   4
HETATM    4  C   UNK     0      -2.672  -7.035  -7.103  0.00  0.00     0.219 C 
BRANCH   4   5
HETATM    5  N   UNK     0      -2.933  -8.155  -6.252  0.00  0.00    -0.221 N 
HETATM    6  C   UNK     0      -2.658  -8.250  -4.938  0.00  0.00     0.114 A 
HETATM    7  C   UNK     0      -3.111  -9.499  -4.539  0.00  0.00     0.101 A 
HETATM    8  N   UNK     0      -3.617 -10.079  -5.638  0.00  0.00    -0.133 NA
HETATM    9  N   UNK     0      -3.500  -9.257  -6.634  0.00  0.00    -0.064 NA
BRANCH   7  10
HETATM   10  C   UNK     0      -3.073 -10.103  -3.191  0.00  0.00     0.054 C 
BRANCH  10  11
HETATM   11  C   UNK     0      -3.832 -11.456  -3.129  0.00  0.00     0.033 C 
BRANCH  11  12
HETATM   12  C   UNK     0      -4.736 -11.532  -1.947  0.00  0.00    -0.022 A 
HETATM   13  C   UNK     0      -4.313 -11.063  -0.680  0.00  0.00    -0.004 A 
HETATM   14  C   UNK     0      -5.176 -11.113   0.431  0.00  0.00    -0.000 A 
HETATM   15  C   UNK     0      -6.473 -11.639   0.293  0.00  0.00     0.000 A 
HETATM   16  C   UNK     0      -6.904 -12.120  -0.957  0.00  0.00    -0.000 A 
HETATM   17  C   UNK     0      -6.041 -12.067  -2.068  0.00  0.00    -0.004 A 
ENDBRANCH  11  12
ENDBRANCH  10  11
ENDBRANCH   7  10
ENDBRANCH   4   5
ENDBRANCH   2   4
BRANCH   1  18
HETATM   18  C   UNK     0      -5.321  -6.110  -5.907  0.00  0.00     0.146 C 
HETATM   19  C   UNK     0      -4.852  -5.051  -5.204  0.00  0.00     0.162 C 
HETATM   20  C   UNK     0      -5.003  -4.984  -3.814  0.00  0.00     0.217 C 
HETATM   21  N   UNK     0      -4.198  -4.069  -5.811  0.00  0.00    -0.143 N 
HETATM   22  C   UNK     0      -5.494  -6.116  -3.098  0.00  0.00     0.044 A 
HETATM   23  O   UNK     0      -4.688  -3.937  -3.198  0.00  0.00    -0.285 OA
HETATM   24  C   UNK     0      -5.426  -6.202  -1.687  0.00  0.00     0.003 A 
HETATM   25  C   UNK     0      -6.041  -7.205  -3.834  0.00  0.00     0.044 A 
HETATM   26  C   UNK     0      -5.888  -7.348  -1.017  0.00  0.00     0.000 A 
HETATM   27  C   UNK     0      -6.444  -8.414  -1.743  0.00  0.00     0.000 A 
HETATM   28  C   UNK     0      -6.528  -8.341  -3.143  0.00  0.00     0.003 A 
HETATM   29  C   UNK     0      -6.043  -7.126  -5.258  0.00  0.00     0.215 C 
HETATM   30  O   UNK     0      -6.680  -7.971  -5.934  0.00  0.00    -0.285 OA
ENDBRANCH   1  18
TORSDOF 6
ENDMDL
MODEL 7
REMARK VINA RESULT:      -6.3      1.696      4.124
REMARK  6 active torsions:
REMARK  status: ('A' for Active; 'I' for Inactive)
REMARK    1  A    between atoms: C_9  and  N_13 
REMARK       I    between atoms: N_13  and  C_14 
REMARK    2  A    between atoms: C_14  and  C_17 
REMARK    3  A    between atoms: C_17  and  N_18 
REMARK    4  A    between atoms: C_20  and  C_23 
REMARK    5  A    between atoms: C_23  and  C_24 
REMARK    6  A    between atoms: C_24  and  C_25 
ROOT
HETATM    1  N   UNK     0      -5.079  -5.099  -6.160  0.00  0.00    -0.205 NA
HETATM    2  C   UNK     0      -4.688  -4.427  -5.038  0.00  0.00     0.281 C 
HETATM    3  O   UNK     0      -5.065  -3.236  -4.954  0.00  0.00    -0.268 OA
ENDROOT
BRANCH   2   4
HETATM    4  C   UNK     0      -3.925  -4.986  -3.893  0.00  0.00     0.219 C 
BRANCH   4   5
HETATM    5  N   UNK     0      -4.725  -5.911  -3.151  0.00  0.00    -0.221 N 
HETATM    6  C   UNK     0      -4.496  -7.227  -2.992  0.00  0.00     0.114 A 
HETATM    7  C   UNK     0      -5.515  -7.699  -2.179  0.00  0.00     0.101 A 
HETATM    8  N   UNK     0      -6.297  -6.643  -1.910  0.00  0.00    -0.133 NA
HETATM    9  N   UNK     0      -5.801  -5.599  -2.497  0.00  0.00    -0.064 NA
BRANCH   7  10
HETATM   10  C   UNK     0      -5.730  -9.073  -1.678  0.00  0.00     0.054 C 
BRANCH  10  11
HETATM   11  C   UNK     0      -6.178 -10.048  -2.801  0.00  0.00     0.033 C 
BRANCH  11  12
HETATM   12  C   UNK     0      -5.106 -11.023  -3.150  0.00  0.00    -0.022 A 
HETATM   13  C   UNK     0      -3.742 -10.703  -2.949  0.00  0.00    -0.004 A 
HETATM   14  C   UNK     0      -2.732 -11.634  -3.257  0.00  0.00    -0.000 A 
HETATM   15  C   UNK     0      -3.071 -12.896  -3.776  0.00  0.00     0.000 A 
HETATM   16  C   UNK     0      -4.422 -13.225  -3.992  0.00  0.00    -0.000 A 
HETATM   17  C   UNK     0      -5.432 -12.294  -3.681  0.00  0.00    -0.004 A 
ENDBRANCH  11  12
ENDBRANCH  10  11
ENDBRANCH   7  10
ENDBRANCH   4   5
ENDBRANCH   2   4
BRANCH   1  18
HETATM   18  C   UNK     0      -4.829  -6.382  -6.450  0.00  0.00     0.146 C 
HETATM   19  C   UNK     0      -5.783  -7.315  -6.212  0.00  0.00     0.162 C 
HETATM   20  C   UNK     0      -5.525  -8.677  -6.402  0.00  0.00     0.217 C 
HETATM   21  N   UNK     0      -6.976  -6.962  -5.749  0.00  0.00    -0.143 N 
HETATM   22  C   UNK     0      -4.195  -9.115  -6.678  0.00  0.00     0.044 A 
HETATM   23  O   UNK     0      -6.457  -9.512  -6.311  0.00  0.00    -0.285 OA
HETATM   24  C   UNK     0      -3.827 -10.480  -6.625  0.00  0.00     0.003 A 
HETATM   25  C   UNK     0      -3.205  -8.140  -6.986  0.00  0.00     0.044 A 
HETATM   26  C   UNK     0      -2.499 -10.873  -6.869  0.00  0.00     0.000 A 
HETATM   27  C   UNK     0      -1.526  -9.912  -7.190  0.00  0.00     0.000 A 
HETATM   28  C   UNK     0      -1.878  -8.553  -7.256  0.00  0.00     0.003 A 
HETATM   29  C   UNK     0      -3.582  -6.765  -6.973  0.00  0.00     0.215 C 
HETATM   30  O   UNK     0      -2.796  -5.892  -7.417  0.00  0.00    -0.285 OA
ENDBRANCH   1  18
TORSDOF 6
ENDMDL
MODEL 8
REMARK VINA RESULT:      -6.3      2.036      4.149
REMARK  6 active torsions:
REMARK  status: ('A' for Active; 'I' for Inactive)
REMARK    1  A    between atoms: C_9  and  N_13 
REMARK       I    between atoms: N_13  and  C_14 
REMARK    2  A    between atoms: C_14  and  C_17 
REMARK    3  A    between atoms: C_17  and  N_18 
REMARK    4  A    between atoms: C_20  and  C_23 
REMARK    5  A    between atoms: C_23  and  C_24 
REMARK    6  A    between atoms: C_24  and  C_25 
ROOT
HETATM    1  N   UNK     0      -4.727  -9.347  -1.494  0.00  0.00    -0.205 NA
HETATM    2  C   UNK     0      -5.298  -8.359  -0.744  0.00  0.00     0.281 C 
HETATM    3  O   UNK     0      -4.999  -8.354   0.471  0.00  0.00    -0.268 OA
ENDROOT
BRANCH   2   4
HETATM    4  C   UNK     0      -6.173  -7.267  -1.239  0.00  0.00     0.219 C 
BRANCH   4   5
HETATM    5  N   UNK     0      -5.470  -6.431  -2.164  0.00  0.00    -0.221 N 
HETATM    6  C   UNK     0      -5.788  -6.213  -3.454  0.00  0.00     0.114 A 
HETATM    7  C   UNK     0      -4.843  -5.319  -3.936  0.00  0.00     0.101 A 
HETATM    8  N   UNK     0      -4.013  -5.067  -2.913  0.00  0.00    -0.133 NA
HETATM    9  N   UNK     0      -4.413  -5.737  -1.878  0.00  0.00    -0.064 NA
BRANCH   7  10
HETATM   10  C   UNK     0      -4.740  -4.732  -5.288  0.00  0.00     0.054 C 
BRANCH  10  11
HETATM   11  C   UNK     0      -3.731  -5.495  -6.188  0.00  0.00     0.033 C 
BRANCH  11  12
HETATM   12  C   UNK     0      -4.420  -6.334  -7.208  0.00  0.00    -0.022 A 
HETATM   13  C   UNK     0      -5.742  -6.796  -6.994  0.00  0.00    -0.004 A 
HETATM   14  C   UNK     0      -6.401  -7.568  -7.969  0.00  0.00    -0.000 A 
HETATM   15  C   UNK     0      -5.747  -7.896  -9.170  0.00  0.00     0.000 A 
HETATM   16  C   UNK     0      -4.430  -7.455  -9.392  0.00  0.00    -0.000 A 
HETATM   17  C   UNK     0      -3.771  -6.680  -8.418  0.00  0.00    -0.004 A 
ENDBRANCH  11  12
ENDBRANCH  10  11
ENDBRANCH   7  10
ENDBRANCH   4   5
ENDBRANCH   2   4
BRANCH   1  18
HETATM   18  C   UNK     0      -4.868  -9.530  -2.813  0.00  0.00     0.146 C 
HETATM   19  C   UNK     0      -5.986 -10.132  -3.284  0.00  0.00     0.162 C 
HETATM   20  C   UNK     0      -6.125 -10.436  -4.643  0.00  0.00     0.217 C 
HETATM   21  N   UNK     0      -6.963 -10.490  -2.459  0.00  0.00    -0.143 N 
HETATM   22  C   UNK     0      -5.013 -10.277  -5.523  0.00  0.00     0.044 A 
HETATM   23  O   UNK     0      -7.220 -10.865  -5.082  0.00  0.00    -0.285 OA
HETATM   24  C   UNK     0      -5.012 -10.804  -6.836  0.00  0.00     0.003 A 
HETATM   25  C   UNK     0      -3.859  -9.593  -5.048  0.00  0.00     0.044 A 
HETATM   26  C   UNK     0      -3.885 -10.658  -7.664  0.00  0.00     0.000 A 
HETATM   27  C   UNK     0      -2.753  -9.967  -7.200  0.00  0.00     0.000 A 
HETATM   28  C   UNK     0      -2.742  -9.431  -5.902  0.00  0.00     0.003 A 
HETATM   29  C   UNK     0      -3.856  -9.125  -3.700  0.00  0.00     0.215 C 
HETATM   30  O   UNK     0      -2.944  -8.360  -3.302  0.00  0.00    -0.285 OA
ENDBRANCH   1  18
TORSDOF 6
ENDMDL
MODEL 9
REMARK VINA RESULT:      -6.2      2.222      5.139
REMARK  6 active torsions:
REMARK  status: ('A' for Active; 'I' for Inactive)
REMARK    1  A    between atoms: C_9  and  N_13 
REMARK       I    between atoms: N_13  and  C_14 
REMARK    2  A    between atoms: C_14  and  C_17 
REMARK    3  A    between atoms: C_17  and  N_18 
REMARK    4  A    between atoms: C_20  and  C_23 
REMARK    5  A    between atoms: C_23  and  C_24 
REMARK    6  A    between atoms: C_24  and  C_25 
ROOT
HETATM    1  N   UNK     0      -5.078  -4.465  -4.859  0.00  0.00    -0.205 NA
HETATM    2  C   UNK     0      -4.342  -4.509  -3.710  0.00  0.00     0.281 C 
HETATM    3  O   UNK     0      -4.168  -3.414  -3.130  0.00  0.00    -0.268 OA
ENDROOT
BRANCH   2   4
HETATM    4  C   UNK     0      -3.794  -5.725  -3.058  0.00  0.00     0.219 C 
BRANCH   4   5
HETATM    5  N   UNK     0      -4.848  -6.556  -2.563  0.00  0.00    -0.221 N 
HETATM    6  C   UNK     0      -5.090  -7.837  -2.898  0.00  0.00     0.114 A 
HETATM    7  C   UNK     0      -6.188  -8.230  -2.150  0.00  0.00     0.101 A 
HETATM    8  N   UNK     0      -6.545  -7.161  -1.423  0.00  0.00    -0.133 NA
HETATM    9  N   UNK     0      -5.731  -6.188  -1.687  0.00  0.00    -0.064 NA
BRANCH   7  10
HETATM   10  C   UNK     0      -6.856  -9.549  -2.120  0.00  0.00     0.054 C 
BRANCH  10  11
HETATM   11  C   UNK     0      -8.152  -9.573  -2.976  0.00  0.00     0.033 C 
BRANCH  11  12
HETATM   12  C   UNK     0      -7.954 -10.300  -4.262  0.00  0.00    -0.022 A 
HETATM   13  C   UNK     0      -9.047 -10.903  -4.930  0.00  0.00    -0.004 A 
HETATM   14  C   UNK     0      -8.863 -11.569  -6.156  0.00  0.00    -0.000 A 
HETATM   15  C   UNK     0      -7.582 -11.646  -6.731  0.00  0.00     0.000 A 
HETATM   16  C   UNK     0      -6.484 -11.061  -6.075  0.00  0.00    -0.000 A 
HETATM   17  C   UNK     0      -6.669 -10.393  -4.849  0.00  0.00    -0.004 A 
ENDBRANCH  11  12
ENDBRANCH  10  11
ENDBRANCH   7  10
ENDBRANCH   4   5
ENDBRANCH   2   4
BRANCH   1  18
HETATM   18  C   UNK     0      -5.424  -5.507  -5.627  0.00  0.00     0.146 C 
HETATM   19  C   UNK     0      -4.540  -5.985  -6.534  0.00  0.00     0.162 C 
HETATM   20  C   UNK     0      -4.899  -7.003  -7.425  0.00  0.00     0.217 C 
HETATM   21  N   UNK     0      -3.320  -5.470  -6.631  0.00  0.00    -0.143 N 
HETATM   22  C   UNK     0      -6.259  -7.426  -7.509  0.00  0.00     0.044 A 
HETATM   23  O   UNK     0      -4.029  -7.528  -8.163  0.00  0.00    -0.285 OA
HETATM   24  C   UNK     0      -6.727  -8.255  -8.556  0.00  0.00     0.003 A 
HETATM   25  C   UNK     0      -7.177  -6.970  -6.522  0.00  0.00     0.044 A 
HETATM   26  C   UNK     0      -8.081  -8.623  -8.626  0.00  0.00     0.000 A 
HETATM   27  C   UNK     0      -8.983  -8.188  -7.641  0.00  0.00     0.000 A 
HETATM   28  C   UNK     0      -8.533  -7.372  -6.590  0.00  0.00     0.003 A 
HETATM   29  C   UNK     0      -6.700  -6.084  -5.510  0.00  0.00     0.215 C 
HETATM   30  O   UNK     0      -7.423  -5.810  -4.522  0.00  0.00    -0.285 OA
ENDBRANCH   1  18
TORSDOF 6
ENDMDL
