MODEL 1
REMARK VINA RESULT:      -7.2      0.000      0.000
REMARK  4 active torsions:
REMARK  status: ('A' for Active; 'I' for Inactive)
REMARK    1  A    between atoms: C_9  and  N_13 
REMARK       I    between atoms: N_13  and  C_14 
REMARK    2  A    between atoms: C_14  and  C_17 
REMARK    3  A    between atoms: C_17  and  N_18 
REMARK    4  A    between atoms: C_20  and  C_23 
ROOT
HETATM    1  C   UNK     0      -2.446  -8.575  -6.475  0.00  0.00     0.003 A 
HETATM    2  C   UNK     0      -2.197  -8.484  -7.855  0.00  0.00     0.000 A 
HETATM    3  C   UNK     0      -2.472  -7.290  -8.539  0.00  0.00     0.000 A 
HETATM    4  C   UNK     0      -2.994  -6.185  -7.845  0.00  0.00     0.003 A 
HETATM    5  C   UNK     0      -3.263  -6.262  -6.458  0.00  0.00     0.044 A 
HETATM    6  C   UNK     0      -2.981  -7.473  -5.765  0.00  0.00     0.044 A 
HETATM    7  C   UNK     0      -3.819  -5.168  -5.721  0.00  0.00     0.217 C 
HETATM    8  C   UNK     0      -4.199  -5.336  -4.381  0.00  0.00     0.162 C 
HETATM    9  C   UNK     0      -3.961  -6.500  -3.732  0.00  0.00     0.146 C 
HETATM   10  C   UNK     0      -3.254  -7.533  -4.368  0.00  0.00     0.215 C 
HETATM   11  O   UNK     0      -2.822  -8.496  -3.688  0.00  0.00    -0.285 OA
HETATM   12  O   UNK     0      -3.971  -4.054  -6.279  0.00  0.00    -0.285 OA
HETATM   13  N   UNK     0      -4.818  -4.337  -3.761  0.00  0.00    -0.143 N 
ENDROOT
BRANCH   9  14
HETATM   14  N   UNK     0      -4.390  -6.660  -2.470  0.00  0.00    -0.205 NA
HETATM   15  C   UNK     0      -5.627  -7.114  -2.101  0.00  0.00     0.281 C 
HETATM   16  O   UNK     0      -6.526  -7.336  -2.948  0.00  0.00    -0.268 OA
BRANCH  15  17
HETATM   17  C   UNK     0      -5.916  -7.354  -0.672  0.00  0.00     0.219 C 
BRANCH  17  18
HETATM   18  N   UNK     0      -5.452  -8.640  -0.262  0.00  0.00    -0.221 N 
HETATM   19  C   UNK     0      -5.578  -9.789  -0.942  0.00  0.00     0.114 A 
HETATM   20  C   UNK     0      -5.011 -10.769  -0.143  0.00  0.00     0.101 A 
HETATM   21  N   UNK     0      -4.566 -10.152   0.960  0.00  0.00    -0.133 NA
HETATM   22  N   UNK     0      -4.839  -8.887   0.857  0.00  0.00    -0.064 NA
BRANCH  20  23
HETATM   23  C   UNK     0      -4.877 -12.204  -0.449  0.00  0.00     0.044 A 
HETATM   24  C   UNK     0      -5.993 -13.156   0.021  0.00  0.00     0.006 A 
HETATM   25  C   UNK     0      -5.859 -12.810  -1.465  0.00  0.00     0.006 A 
ENDBRANCH  20  23
ENDBRANCH  17  18
ENDBRANCH  15  17
ENDBRANCH   9  14
TORSDOF 4
ENDMDL
MODEL 2
REMARK VINA RESULT:      -7.1     13.516     16.780
REMARK  4 active torsions:
REMARK  status: ('A' for Active; 'I' for Inactive)
REMARK    1  A    between atoms: C_9  and  N_13 
REMARK       I    between atoms: N_13  and  C_14 
REMARK    2  A    between atoms: C_14  and  C_17 
REMARK    3  A    between atoms: C_17  and  N_18 
REMARK    4  A    between atoms: C_20  and  C_23 
ROOT
HETATM    1  C   UNK     0       0.736   2.531 -12.998  0.00  0.00     0.003 A 
HETATM    2  C   UNK     0      -0.074   1.459 -13.409  0.00  0.00     0.000 A 
HETATM    3  C   UNK     0      -1.084   0.978 -12.561  0.00  0.00     0.000 A 
HETATM    4  C   UNK     0      -1.287   1.569 -11.302  0.00  0.00     0.003 A 
HETATM    5  C   UNK     0      -0.472   2.641 -10.865  0.00  0.00     0.044 A 
HETATM    6  C   UNK     0       0.549   3.130 -11.728  0.00  0.00     0.044 A 
HETATM    7  C   UNK     0      -0.630   3.252  -9.581  0.00  0.00     0.217 C 
HETATM    8  C   UNK     0       0.288   4.215  -9.136  0.00  0.00     0.162 C 
HETATM    9  C   UNK     0       1.280   4.655  -9.944  0.00  0.00     0.146 C 
HETATM   10  C   UNK     0       1.357   4.212 -11.274  0.00  0.00     0.215 C 
HETATM   11  O   UNK     0       2.115   4.806 -12.081  0.00  0.00    -0.285 OA
HETATM   12  O   UNK     0      -1.593   2.920  -8.847  0.00  0.00    -0.285 OA
HETATM   13  N   UNK     0       0.180   4.677  -7.894  0.00  0.00    -0.143 N 
ENDROOT
BRANCH   9  14
HETATM   14  N   UNK     0       2.185   5.529  -9.477  0.00  0.00    -0.205 NA
HETATM   15  C   UNK     0       2.079   6.893  -9.533  0.00  0.00     0.281 C 
HETATM   16  O   UNK     0       1.131   7.454 -10.136  0.00  0.00    -0.268 OA
BRANCH  15  17
HETATM   17  C   UNK     0       3.099   7.729  -8.869  0.00  0.00     0.219 C 
BRANCH  17  18
HETATM   18  N   UNK     0       2.726   8.023  -7.522  0.00  0.00    -0.221 N 
HETATM   19  C   UNK     0       1.996   9.068  -7.105  0.00  0.00     0.114 A 
HETATM   20  C   UNK     0       1.920   8.956  -5.727  0.00  0.00     0.101 A 
HETATM   21  N   UNK     0       2.595   7.845  -5.397  0.00  0.00    -0.133 NA
HETATM   22  N   UNK     0       3.058   7.312  -6.487  0.00  0.00    -0.064 NA
BRANCH  20  23
HETATM   23  C   UNK     0       1.208   9.847  -4.796  0.00  0.00     0.044 A 
HETATM   24  C   UNK     0       1.933  11.111  -4.300  0.00  0.00     0.006 A 
HETATM   25  C   UNK     0       0.792  11.233  -5.314  0.00  0.00     0.006 A 
ENDBRANCH  20  23
ENDBRANCH  17  18
ENDBRANCH  15  17
ENDBRANCH   9  14
TORSDOF 4
ENDMDL
MODEL 3
REMARK VINA RESULT:      -6.9     13.860     17.431
REMARK  4 active torsions:
REMARK  status: ('A' for Active; 'I' for Inactive)
REMARK    1  A    between atoms: C_9  and  N_13 
REMARK       I    between atoms: N_13  and  C_14 
REMARK    2  A    between atoms: C_14  and  C_17 
REMARK    3  A    between atoms: C_17  and  N_18 
REMARK    4  A    between atoms: C_20  and  C_23 
ROOT
HETATM    1  C   UNK     0      -1.074   2.356 -10.065  0.00  0.00     0.003 A 
HETATM    2  C   UNK     0      -1.376   1.719 -11.280  0.00  0.00     0.000 A 
HETATM    3  C   UNK     0      -0.682   2.073 -12.448  0.00  0.00     0.000 A 
HETATM    4  C   UNK     0       0.315   3.063 -12.402  0.00  0.00     0.003 A 
HETATM    5  C   UNK     0       0.623   3.725 -11.189  0.00  0.00     0.044 A 
HETATM    6  C   UNK     0      -0.079   3.362 -10.005  0.00  0.00     0.044 A 
HETATM    7  C   UNK     0       1.613   4.755 -11.107  0.00  0.00     0.217 C 
HETATM    8  C   UNK     0       1.786   5.479  -9.917  0.00  0.00     0.162 C 
HETATM    9  C   UNK     0       1.092   5.156  -8.800  0.00  0.00     0.146 C 
HETATM   10  C   UNK     0       0.246   4.035  -8.792  0.00  0.00     0.215 C 
HETATM   11  O   UNK     0      -0.191   3.599  -7.699  0.00  0.00    -0.285 OA
HETATM   12  O   UNK     0       2.326   5.016 -12.106  0.00  0.00    -0.285 OA
HETATM   13  N   UNK     0       2.630   6.505  -9.908  0.00  0.00    -0.143 N 
ENDROOT
BRANCH   9  14
HETATM   14  N   UNK     0       1.226   5.901  -7.692  0.00  0.00    -0.205 NA
HETATM   15  C   UNK     0       0.520   7.038  -7.406  0.00  0.00     0.281 C 
HETATM   16  O   UNK     0      -0.275   7.544  -8.236  0.00  0.00    -0.268 OA
BRANCH  15  17
HETATM   17  C   UNK     0       0.690   7.687  -6.090  0.00  0.00     0.219 C 
BRANCH  17  18
HETATM   18  N   UNK     0       1.735   8.660  -6.128  0.00  0.00    -0.221 N 
HETATM   19  C   UNK     0       1.720   9.871  -5.552  0.00  0.00     0.114 A 
HETATM   20  C   UNK     0       2.926  10.466  -5.883  0.00  0.00     0.101 A 
HETATM   21  N   UNK     0       3.600   9.576  -6.625  0.00  0.00    -0.133 NA
HETATM   22  N   UNK     0       2.866   8.512  -6.748  0.00  0.00    -0.064 NA
BRANCH  20  23
HETATM   23  C   UNK     0       3.407  11.797  -5.475  0.00  0.00     0.044 A 
HETATM   24  C   UNK     0       3.064  13.002  -6.370  0.00  0.00     0.006 A 
HETATM   25  C   UNK     0       2.358  12.826  -5.022  0.00  0.00     0.006 A 
ENDBRANCH  20  23
ENDBRANCH  17  18
ENDBRANCH  15  17
ENDBRANCH   9  14
TORSDOF 4
ENDMDL
MODEL 4
REMARK VINA RESULT:      -6.8      3.384      8.595
REMARK  4 active torsions:
REMARK  status: ('A' for Active; 'I' for Inactive)
REMARK    1  A    between atoms: C_9  and  N_13 
REMARK       I    between atoms: N_13  and  C_14 
REMARK    2  A    between atoms: C_14  and  C_17 
REMARK    3  A    between atoms: C_17  and  N_18 
REMARK    4  A    between atoms: C_20  and  C_23 
ROOT
HETATM    1  C   UNK     0      -4.138 -10.595   3.899  0.00  0.00     0.003 A 
HETATM    2  C   UNK     0      -3.857 -11.272   5.097  0.00  0.00     0.000 A 
HETATM    3  C   UNK     0      -3.781 -12.673   5.110  0.00  0.00     0.000 A 
HETATM    4  C   UNK     0      -3.985 -13.400   3.924  0.00  0.00     0.003 A 
HETATM    5  C   UNK     0      -4.283 -12.737   2.710  0.00  0.00     0.044 A 
HETATM    6  C   UNK     0      -4.356 -11.315   2.699  0.00  0.00     0.044 A 
HETATM    7  C   UNK     0      -4.523 -13.442   1.488  0.00  0.00     0.217 C 
HETATM    8  C   UNK     0      -4.952 -12.753   0.344  0.00  0.00     0.162 C 
HETATM    9  C   UNK     0      -5.054 -11.403   0.343  0.00  0.00     0.146 C 
HETATM   10  C   UNK     0      -4.653 -10.663   1.467  0.00  0.00     0.215 C 
HETATM   11  O   UNK     0      -4.513  -9.419   1.370  0.00  0.00    -0.285 OA
HETATM   12  O   UNK     0      -4.354 -14.685   1.442  0.00  0.00    -0.285 OA
HETATM   13  N   UNK     0      -5.278 -13.449  -0.740  0.00  0.00    -0.143 N 
ENDROOT
BRANCH   9  14
HETATM   14  N   UNK     0      -5.527 -10.769  -0.741  0.00  0.00    -0.205 NA
HETATM   15  C   UNK     0      -6.773 -10.217  -0.862  0.00  0.00     0.281 C 
HETATM   16  O   UNK     0      -7.640 -10.348   0.037  0.00  0.00    -0.268 OA
BRANCH  15  17
HETATM   17  C   UNK     0      -7.111  -9.445  -2.075  0.00  0.00     0.219 C 
BRANCH  17  18
HETATM   18  N   UNK     0      -6.415  -8.198  -2.102  0.00  0.00    -0.221 N 
HETATM   19  C   UNK     0      -5.432  -7.851  -2.945  0.00  0.00     0.114 A 
HETATM   20  C   UNK     0      -5.045  -6.574  -2.575  0.00  0.00     0.101 A 
HETATM   21  N   UNK     0      -5.826  -6.222  -1.544  0.00  0.00    -0.133 NA
HETATM   22  N   UNK     0      -6.632  -7.208  -1.290  0.00  0.00    -0.064 NA
BRANCH  20  23
HETATM   23  C   UNK     0      -4.012  -5.735  -3.206  0.00  0.00     0.044 A 
HETATM   24  C   UNK     0      -4.338  -5.069  -4.555  0.00  0.00     0.006 A 
HETATM   25  C   UNK     0      -4.272  -4.221  -3.281  0.00  0.00     0.006 A 
ENDBRANCH  20  23
ENDBRANCH  17  18
ENDBRANCH  15  17
ENDBRANCH   9  14
TORSDOF 4
ENDMDL
MODEL 5
REMARK VINA RESULT:      -6.8     14.197     17.463
REMARK  4 active torsions:
REMARK  status: ('A' for Active; 'I' for Inactive)
REMARK    1  A    between atoms: C_9  and  N_13 
REMARK       I    between atoms: N_13  and  C_14 
REMARK    2  A    between atoms: C_14  and  C_17 
REMARK    3  A    between atoms: C_17  and  N_18 
REMARK    4  A    between atoms: C_20  and  C_23 
ROOT
HETATM    1  C   UNK     0       2.995  10.596  -5.362  0.00  0.00     0.003 A 
HETATM    2  C   UNK     0       2.932  11.988  -5.184  0.00  0.00     0.000 A 
HETATM    3  C   UNK     0       1.807  12.702  -5.625  0.00  0.00     0.000 A 
HETATM    4  C   UNK     0       0.742  12.024  -6.244  0.00  0.00     0.003 A 
HETATM    5  C   UNK     0       0.793  10.624  -6.444  0.00  0.00     0.044 A 
HETATM    6  C   UNK     0       1.934   9.901  -5.992  0.00  0.00     0.044 A 
HETATM    7  C   UNK     0      -0.259   9.902  -7.093  0.00  0.00     0.217 C 
HETATM    8  C   UNK     0      -0.103   8.541  -7.394  0.00  0.00     0.162 C 
HETATM    9  C   UNK     0       0.997   7.861  -6.994  0.00  0.00     0.146 C 
HETATM   10  C   UNK     0       1.967   8.492  -6.198  0.00  0.00     0.215 C 
HETATM   11  O   UNK     0       2.845   7.799  -5.628  0.00  0.00    -0.285 OA
HETATM   12  O   UNK     0      -1.324  10.492  -7.398  0.00  0.00    -0.285 OA
HETATM   13  N   UNK     0      -1.049   7.929  -8.100  0.00  0.00    -0.143 N 
ENDROOT
BRANCH   9  14
HETATM   14  N   UNK     0       1.155   6.576  -7.348  0.00  0.00    -0.205 NA
HETATM   15  C   UNK     0       1.761   6.133  -8.492  0.00  0.00     0.281 C 
HETATM   16  O   UNK     0       2.151   6.930  -9.381  0.00  0.00    -0.268 OA
BRANCH  15  17
HETATM   17  C   UNK     0       1.968   4.684  -8.690  0.00  0.00     0.219 C 
BRANCH  17  18
HETATM   18  N   UNK     0       0.735   4.024  -8.982  0.00  0.00    -0.221 N 
HETATM   19  C   UNK     0       0.224   3.789 -10.199  0.00  0.00     0.114 A 
HETATM   20  C   UNK     0      -0.991   3.158  -9.986  0.00  0.00     0.101 A 
HETATM   21  N   UNK     0      -1.132   3.038  -8.659  0.00  0.00    -0.133 NA
HETATM   22  N   UNK     0      -0.087   3.559  -8.091  0.00  0.00    -0.064 NA
BRANCH  20  23
HETATM   23  C   UNK     0      -1.935   2.670 -11.006  0.00  0.00     0.044 A 
HETATM   24  C   UNK     0      -2.703   3.709 -11.844  0.00  0.00     0.006 A 
HETATM   25  C   UNK     0      -1.570   2.899 -12.482  0.00  0.00     0.006 A 
ENDBRANCH  20  23
ENDBRANCH  17  18
ENDBRANCH  15  17
ENDBRANCH   9  14
TORSDOF 4
ENDMDL
MODEL 6
REMARK VINA RESULT:      -6.7     14.611     16.808
REMARK  4 active torsions:
REMARK  status: ('A' for Active; 'I' for Inactive)
REMARK    1  A    between atoms: C_9  and  N_13 
REMARK       I    between atoms: N_13  and  C_14 
REMARK    2  A    between atoms: C_14  and  C_17 
REMARK    3  A    between atoms: C_17  and  N_18 
REMARK    4  A    between atoms: C_20  and  C_23 
ROOT
HETATM    1  C   UNK     0      -6.713   1.561   5.047  0.00  0.00     0.003 A 
HETATM    2  C   UNK     0      -7.534   1.588   3.908  0.00  0.00     0.000 A 
HETATM    3  C   UNK     0      -8.697   2.373   3.900  0.00  0.00     0.000 A 
HETATM    4  C   UNK     0      -9.041   3.133   5.032  0.00  0.00     0.003 A 
HETATM    5  C   UNK     0      -8.233   3.108   6.194  0.00  0.00     0.044 A 
HETATM    6  C   UNK     0      -7.051   2.314   6.198  0.00  0.00     0.044 A 
HETATM    7  C   UNK     0      -8.562   3.847   7.375  0.00  0.00     0.217 C 
HETATM    8  C   UNK     0      -7.810   3.682   8.547  0.00  0.00     0.162 C 
HETATM    9  C   UNK     0      -6.705   2.899   8.560  0.00  0.00     0.146 C 
HETATM   10  C   UNK     0      -6.247   2.303   7.375  0.00  0.00     0.215 C 
HETATM   11  O   UNK     0      -5.100   1.794   7.342  0.00  0.00    -0.285 OA
HETATM   12  O   UNK     0      -9.533   4.643   7.361  0.00  0.00    -0.285 OA
HETATM   13  N   UNK     0      -8.211   4.293   9.657  0.00  0.00    -0.143 N 
ENDROOT
BRANCH   9  14
HETATM   14  N   UNK     0      -6.037   2.705   9.708  0.00  0.00    -0.205 NA
HETATM   15  C   UNK     0      -5.010   3.481  10.173  0.00  0.00     0.281 C 
HETATM   16  O   UNK     0      -4.531   4.417   9.488  0.00  0.00    -0.268 OA
BRANCH  15  17
HETATM   17  C   UNK     0      -4.449   3.216  11.513  0.00  0.00     0.219 C 
BRANCH  17  18
HETATM   18  N   UNK     0      -3.175   2.577  11.421  0.00  0.00    -0.221 N 
HETATM   19  C   UNK     0      -2.170   2.668  12.305  0.00  0.00     0.114 A 
HETATM   20  C   UNK     0      -1.133   1.913  11.783  0.00  0.00     0.101 A 
HETATM   21  N   UNK     0      -1.578   1.402  10.627  0.00  0.00    -0.133 NA
HETATM   22  N   UNK     0      -2.796   1.812  10.443  0.00  0.00    -0.064 NA
BRANCH  20  23
HETATM   23  C   UNK     0       0.189   1.673  12.386  0.00  0.00     0.044 A 
HETATM   24  C   UNK     0       0.390   0.391  13.215  0.00  0.00     0.006 A 
HETATM   25  C   UNK     0       1.026   0.510  11.826  0.00  0.00     0.006 A 
ENDBRANCH  20  23
ENDBRANCH  17  18
ENDBRANCH  15  17
ENDBRANCH   9  14
TORSDOF 4
ENDMDL
MODEL 7
REMARK VINA RESULT:      -6.6     20.178     21.896
REMARK  4 active torsions:
REMARK  status: ('A' for Active; 'I' for Inactive)
REMARK    1  A    between atoms: C_9  and  N_13 
REMARK       I    between atoms: N_13  and  C_14 
REMARK    2  A    between atoms: C_14  and  C_17 
REMARK    3  A    between atoms: C_17  and  N_18 
REMARK    4  A    between atoms: C_20  and  C_23 
ROOT
HETATM    1  C   UNK     0      -2.099  10.188   4.069  0.00  0.00     0.003 A 
HETATM    2  C   UNK     0      -3.188  11.074   4.106  0.00  0.00     0.000 A 
HETATM    3  C   UNK     0      -2.967  12.448   4.293  0.00  0.00     0.000 A 
HETATM    4  C   UNK     0      -1.658  12.937   4.443  0.00  0.00     0.003 A 
HETATM    5  C   UNK     0      -0.549  12.057   4.421  0.00  0.00     0.044 A 
HETATM    6  C   UNK     0      -0.775  10.665   4.227  0.00  0.00     0.044 A 
HETATM    7  C   UNK     0       0.796  12.513   4.595  0.00  0.00     0.217 C 
HETATM    8  C   UNK     0       1.848  11.591   4.707  0.00  0.00     0.162 C 
HETATM    9  C   UNK     0       1.628  10.264   4.556  0.00  0.00     0.146 C 
HETATM   10  C   UNK     0       0.353   9.794   4.204  0.00  0.00     0.215 C 
HETATM   11  O   UNK     0       0.215   8.605   3.824  0.00  0.00    -0.285 OA
HETATM   12  O   UNK     0       1.035  13.744   4.653  0.00  0.00    -0.285 OA
HETATM   13  N   UNK     0       3.067  12.041   4.983  0.00  0.00    -0.143 N 
ENDROOT
BRANCH   9  14
HETATM   14  N   UNK     0       2.637   9.396   4.730  0.00  0.00    -0.205 NA
HETATM   15  C   UNK     0       2.984   8.804   5.914  0.00  0.00     0.281 C 
HETATM   16  O   UNK     0       2.421   9.112   6.993  0.00  0.00    -0.268 OA
BRANCH  15  17
HETATM   17  C   UNK     0       4.044   7.776   5.929  0.00  0.00     0.219 C 
BRANCH  17  18
HETATM   18  N   UNK     0       5.043   8.080   6.903  0.00  0.00    -0.221 N 
HETATM   19  C   UNK     0       5.347   7.353   7.988  0.00  0.00     0.114 A 
HETATM   20  C   UNK     0       6.346   8.051   8.647  0.00  0.00     0.101 A 
HETATM   21  N   UNK     0       6.594   9.145   7.914  0.00  0.00    -0.133 NA
HETATM   22  N   UNK     0       5.806   9.131   6.883  0.00  0.00    -0.064 NA
BRANCH  20  23
HETATM   23  C   UNK     0       7.040   7.661   9.886  0.00  0.00     0.044 A 
HETATM   24  C   UNK     0       8.133   6.580   9.799  0.00  0.00     0.006 A 
HETATM   25  C   UNK     0       8.524   8.044  10.021  0.00  0.00     0.006 A 
ENDBRANCH  20  23
ENDBRANCH  17  18
ENDBRANCH  15  17
ENDBRANCH   9  14
TORSDOF 4
ENDMDL
MODEL 8
REMARK VINA RESULT:      -6.6     14.356     17.862
REMARK  4 active torsions:
REMARK  status: ('A' for Active; 'I' for Inactive)
REMARK    1  A    between atoms: C_9  and  N_13 
REMARK       I    between atoms: N_13  and  C_14 
REMARK    2  A    between atoms: C_14  and  C_17 
REMARK    3  A    between atoms: C_17  and  N_18 
REMARK    4  A    between atoms: C_20  and  C_23 
ROOT
HETATM    1  C   UNK     0      -1.029   3.743  -8.299  0.00  0.00     0.003 A 
HETATM    2  C   UNK     0      -1.733   2.656  -8.844  0.00  0.00     0.000 A 
HETATM    3  C   UNK     0      -1.401   2.175 -10.120  0.00  0.00     0.000 A 
HETATM    4  C   UNK     0      -0.364   2.778 -10.852  0.00  0.00     0.003 A 
HETATM    5  C   UNK     0       0.348   3.882 -10.325  0.00  0.00     0.044 A 
HETATM    6  C   UNK     0       0.012   4.366  -9.029  0.00  0.00     0.044 A 
HETATM    7  C   UNK     0       1.392   4.540 -11.049  0.00  0.00     0.217 C 
HETATM    8  C   UNK     0       1.973   5.714 -10.547  0.00  0.00     0.162 C 
HETATM    9  C   UNK     0       1.629   6.194  -9.329  0.00  0.00     0.146 C 
HETATM   10  C   UNK     0       0.741   5.476  -8.511  0.00  0.00     0.215 C 
HETATM   11  O   UNK     0       0.623   5.790  -7.301  0.00  0.00    -0.285 OA
HETATM   12  O   UNK     0       1.786   4.065 -12.143  0.00  0.00    -0.285 OA
HETATM   13  N   UNK     0       2.857   6.364 -11.298  0.00  0.00    -0.143 N 
ENDROOT
BRANCH   9  14
HETATM   14  N   UNK     0       2.149   7.352  -8.895  0.00  0.00    -0.205 NA
HETATM   15  C   UNK     0       3.140   7.480  -7.960  0.00  0.00     0.281 C 
HETATM   16  O   UNK     0       3.592   6.486  -7.341  0.00  0.00    -0.268 OA
BRANCH  15  17
HETATM   17  C   UNK     0       3.697   8.817  -7.670  0.00  0.00     0.219 C 
BRANCH  17  18
HETATM   18  N   UNK     0       3.021   9.428  -6.570  0.00  0.00    -0.221 N 
HETATM   19  C   UNK     0       3.179  10.687  -6.136  0.00  0.00     0.114 A 
HETATM   20  C   UNK     0       2.348  10.819  -5.036  0.00  0.00     0.101 A 
HETATM   21  N   UNK     0       1.730   9.639  -4.882  0.00  0.00    -0.133 NA
HETATM   22  N   UNK     0       2.149   8.836  -5.812  0.00  0.00    -0.064 NA
BRANCH  20  23
HETATM   23  C   UNK     0       2.139  12.021  -4.212  0.00  0.00     0.044 A 
HETATM   24  C   UNK     0       3.069  12.248  -3.005  0.00  0.00     0.006 A 
HETATM   25  C   UNK     0       3.221  13.114  -4.260  0.00  0.00     0.006 A 
ENDBRANCH  20  23
ENDBRANCH  17  18
ENDBRANCH  15  17
ENDBRANCH   9  14
TORSDOF 4
ENDMDL
MODEL 9
REMARK VINA RESULT:      -6.6     20.091     21.747
REMARK  4 active torsions:
REMARK  status: ('A' for Active; 'I' for Inactive)
REMARK    1  A    between atoms: C_9  and  N_13 
REMARK       I    between atoms: N_13  and  C_14 
REMARK    2  A    between atoms: C_14  and  C_17 
REMARK    3  A    between atoms: C_17  and  N_18 
REMARK    4  A    between atoms: C_20  and  C_23 
ROOT
HETATM    1  C   UNK     0      -0.310   9.355   3.763  0.00  0.00     0.003 A 
HETATM    2  C   UNK     0      -1.687   9.579   3.604  0.00  0.00     0.000 A 
HETATM    3  C   UNK     0      -2.398  10.295   4.580  0.00  0.00     0.000 A 
HETATM    4  C   UNK     0      -1.732  10.787   5.716  0.00  0.00     0.003 A 
HETATM    5  C   UNK     0      -0.347  10.559   5.900  0.00  0.00     0.044 A 
HETATM    6  C   UNK     0       0.373   9.837   4.906  0.00  0.00     0.044 A 
HETATM    7  C   UNK     0       0.361  11.021   7.054  0.00  0.00     0.217 C 
HETATM    8  C   UNK     0       1.699  10.652   7.261  0.00  0.00     0.162 C 
HETATM    9  C   UNK     0       2.373   9.936   6.331  0.00  0.00     0.146 C 
HETATM   10  C   UNK     0       1.767   9.619   5.105  0.00  0.00     0.215 C 
HETATM   11  O   UNK     0       2.471   9.182   4.162  0.00  0.00    -0.285 OA
HETATM   12  O   UNK     0      -0.220  11.757   7.889  0.00  0.00    -0.285 OA
HETATM   13  N   UNK     0       2.292  11.001   8.398  0.00  0.00    -0.143 N 
ENDROOT
BRANCH   9  14
HETATM   14  N   UNK     0       3.632   9.539   6.577  0.00  0.00    -0.205 NA
HETATM   15  C   UNK     0       4.006   8.295   7.006  0.00  0.00     0.281 C 
HETATM   16  O   UNK     0       3.157   7.420   7.305  0.00  0.00    -0.268 OA
BRANCH  15  17
HETATM   17  C   UNK     0       5.441   7.967   7.120  0.00  0.00     0.219 C 
BRANCH  17  18
HETATM   18  N   UNK     0       5.759   7.494   8.430  0.00  0.00    -0.221 N 
HETATM   19  C   UNK     0       6.486   6.408   8.732  0.00  0.00     0.114 A 
HETATM   20  C   UNK     0       6.499   6.331  10.115  0.00  0.00     0.101 A 
HETATM   21  N   UNK     0       5.794   7.380  10.562  0.00  0.00    -0.133 NA
HETATM   22  N   UNK     0       5.372   8.053   9.536  0.00  0.00    -0.064 NA
BRANCH  20  23
HETATM   23  C   UNK     0       7.183   5.328  10.948  0.00  0.00     0.044 A 
HETATM   24  C   UNK     0       8.673   5.543  11.271  0.00  0.00     0.006 A 
HETATM   25  C   UNK     0       7.617   5.751  12.361  0.00  0.00     0.006 A 
ENDBRANCH  20  23
ENDBRANCH  17  18
ENDBRANCH  15  17
ENDBRANCH   9  14
TORSDOF 4
ENDMDL
