MODEL 1
REMARK VINA RESULT:      -7.2      0.000      0.000
REMARK  5 active torsions:
REMARK  status: ('A' for Active; 'I' for Inactive)
REMARK    1  A    between atoms: C_9  and  N_13 
REMARK       I    between atoms: N_13  and  C_14 
REMARK    2  A    between atoms: C_14  and  C_17 
REMARK    3  A    between atoms: C_17  and  N_18 
REMARK    4  A    between atoms: C_20  and  C_23 
REMARK    5  A    between atoms: C_23  and  C_24 
ROOT
HETATM    1  C   UNK     0      -2.751 -10.202  -3.666  0.00  0.00     0.003 A 
HETATM    2  C   UNK     0      -2.872 -11.576  -3.395  0.00  0.00     0.000 A 
HETATM    3  C   UNK     0      -3.896 -12.042  -2.554  0.00  0.00     0.000 A 
HETATM    4  C   UNK     0      -4.814 -11.138  -1.994  0.00  0.00     0.003 A 
HETATM    5  C   UNK     0      -4.704  -9.751  -2.257  0.00  0.00     0.044 A 
HETATM    6  C   UNK     0      -3.645  -9.273  -3.083  0.00  0.00     0.044 A 
HETATM    7  C   UNK     0      -5.614  -8.804  -1.699  0.00  0.00     0.217 C 
HETATM    8  C   UNK     0      -5.334  -7.436  -1.778  0.00  0.00     0.162 C 
HETATM    9  C   UNK     0      -4.300  -6.974  -2.524  0.00  0.00     0.146 C 
HETATM   10  C   UNK     0      -3.512  -7.863  -3.274  0.00  0.00     0.215 C 
HETATM   11  O   UNK     0      -2.679  -7.411  -4.098  0.00  0.00    -0.285 OA
HETATM   12  O   UNK     0      -6.661  -9.199  -1.127  0.00  0.00    -0.285 OA
HETATM   13  N   UNK     0      -6.094  -6.604  -1.075  0.00  0.00    -0.143 N 
ENDROOT
BRANCH   9  14
HETATM   14  N   UNK     0      -4.048  -5.660  -2.542  0.00  0.00    -0.205 NA
HETATM   15  C   UNK     0      -4.614  -4.731  -3.366  0.00  0.00     0.281 C 
HETATM   16  O   UNK     0      -4.200  -3.557  -3.229  0.00  0.00    -0.268 OA
BRANCH  15  17
HETATM   17  C   UNK     0      -5.626  -4.985  -4.424  0.00  0.00     0.219 C 
BRANCH  17  18
HETATM   18  N   UNK     0      -5.018  -5.516  -5.607  0.00  0.00    -0.221 N 
HETATM   19  C   UNK     0      -5.389  -6.616  -6.288  0.00  0.00     0.114 A 
HETATM   20  C   UNK     0      -4.530  -6.706  -7.375  0.00  0.00     0.102 A 
HETATM   21  N   UNK     0      -3.682  -5.671  -7.267  0.00  0.00    -0.133 NA
HETATM   22  N   UNK     0      -4.002  -4.984  -6.214  0.00  0.00    -0.064 NA
BRANCH  20  23
HETATM   23  C   UNK     0      -4.522  -7.713  -8.462  0.00  0.00     0.062 C 
BRANCH  23  24
HETATM   24  C   UNK     0      -3.277  -8.615  -8.550  0.00  0.00     0.074 C 
HETATM   25 Br   UNK     0      -2.721  -9.287  -7.282  0.00  0.00    -0.081 Br
ENDBRANCH  23  24
ENDBRANCH  20  23
ENDBRANCH  17  18
ENDBRANCH  15  17
ENDBRANCH   9  14
TORSDOF 5
ENDMDL
MODEL 2
REMARK VINA RESULT:      -7.0      1.357      2.538
REMARK  5 active torsions:
REMARK  status: ('A' for Active; 'I' for Inactive)
REMARK    1  A    between atoms: C_9  and  N_13 
REMARK       I    between atoms: N_13  and  C_14 
REMARK    2  A    between atoms: C_14  and  C_17 
REMARK    3  A    between atoms: C_17  and  N_18 
REMARK    4  A    between atoms: C_20  and  C_23 
REMARK    5  A    between atoms: C_23  and  C_24 
ROOT
HETATM    1  C   UNK     0      -7.337  -8.813  -1.070  0.00  0.00     0.003 A 
HETATM    2  C   UNK     0      -7.813 -10.131  -1.186  0.00  0.00     0.000 A 
HETATM    3  C   UNK     0      -7.082 -11.085  -1.914  0.00  0.00     0.000 A 
HETATM    4  C   UNK     0      -5.863 -10.729  -2.513  0.00  0.00     0.003 A 
HETATM    5  C   UNK     0      -5.370  -9.406  -2.406  0.00  0.00     0.044 A 
HETATM    6  C   UNK     0      -6.128  -8.429  -1.697  0.00  0.00     0.044 A 
HETATM    7  C   UNK     0      -4.139  -9.009  -3.008  0.00  0.00     0.217 C 
HETATM    8  C   UNK     0      -3.808  -7.652  -3.091  0.00  0.00     0.162 C 
HETATM    9  C   UNK     0      -4.550  -6.710  -2.458  0.00  0.00     0.146 C 
HETATM   10  C   UNK     0      -5.647  -7.084  -1.665  0.00  0.00     0.215 C 
HETATM   11  O   UNK     0      -6.212  -6.226  -0.943  0.00  0.00    -0.285 OA
HETATM   12  O   UNK     0      -3.359  -9.876  -3.475  0.00  0.00    -0.285 OA
HETATM   13  N   UNK     0      -2.761  -7.312  -3.834  0.00  0.00    -0.143 N 
ENDROOT
BRANCH   9  14
HETATM   14  N   UNK     0      -4.216  -5.421  -2.595  0.00  0.00    -0.205 NA
HETATM   15  C   UNK     0      -4.678  -4.555  -3.544  0.00  0.00     0.281 C 
HETATM   16  O   UNK     0      -4.200  -3.398  -3.503  0.00  0.00    -0.268 OA
BRANCH  15  17
HETATM   17  C   UNK     0      -5.644  -4.863  -4.630  0.00  0.00     0.219 C 
BRANCH  17  18
HETATM   18  N   UNK     0      -4.995  -5.498  -5.738  0.00  0.00    -0.221 N 
HETATM   19  C   UNK     0      -5.363  -6.639  -6.350  0.00  0.00     0.114 A 
HETATM   20  C   UNK     0      -4.456  -6.832  -7.384  0.00  0.00     0.102 A 
HETATM   21  N   UNK     0      -3.587  -5.812  -7.313  0.00  0.00    -0.133 NA
HETATM   22  N   UNK     0      -3.938  -5.038  -6.332  0.00  0.00    -0.064 NA
BRANCH  20  23
HETATM   23  C   UNK     0      -4.424  -7.921  -8.389  0.00  0.00     0.062 C 
BRANCH  23  24
HETATM   24  C   UNK     0      -3.845  -9.269  -7.919  0.00  0.00     0.074 C 
HETATM   25 Br   UNK     0      -2.618  -9.298  -6.990  0.00  0.00    -0.081 Br
ENDBRANCH  23  24
ENDBRANCH  20  23
ENDBRANCH  17  18
ENDBRANCH  15  17
ENDBRANCH   9  14
TORSDOF 5
ENDMDL
MODEL 3
REMARK VINA RESULT:      -6.9      2.307      4.665
REMARK  5 active torsions:
REMARK  status: ('A' for Active; 'I' for Inactive)
REMARK    1  A    between atoms: C_9  and  N_13 
REMARK       I    between atoms: N_13  and  C_14 
REMARK    2  A    between atoms: C_14  and  C_17 
REMARK    3  A    between atoms: C_17  and  N_18 
REMARK    4  A    between atoms: C_20  and  C_23 
REMARK    5  A    between atoms: C_23  and  C_24 
ROOT
HETATM    1  C   UNK     0      -2.745  -9.854  -3.374  0.00  0.00     0.003 A 
HETATM    2  C   UNK     0      -2.714 -11.246  -3.569  0.00  0.00     0.000 A 
HETATM    3  C   UNK     0      -2.774 -11.779  -4.867  0.00  0.00     0.000 A 
HETATM    4  C   UNK     0      -2.847 -10.921  -5.977  0.00  0.00     0.003 A 
HETATM    5  C   UNK     0      -2.880  -9.517  -5.797  0.00  0.00     0.044 A 
HETATM    6  C   UNK     0      -2.854  -8.977  -4.479  0.00  0.00     0.044 A 
HETATM    7  C   UNK     0      -2.962  -8.618  -6.901  0.00  0.00     0.217 C 
HETATM    8  C   UNK     0      -3.239  -7.264  -6.681  0.00  0.00     0.162 C 
HETATM    9  C   UNK     0      -3.262  -6.749  -5.427  0.00  0.00     0.146 C 
HETATM   10  C   UNK     0      -2.963  -7.560  -4.319  0.00  0.00     0.215 C 
HETATM   11  O   UNK     0      -2.810  -7.036  -3.189  0.00  0.00    -0.285 OA
HETATM   12  O   UNK     0      -2.798  -9.043  -8.072  0.00  0.00    -0.285 OA
HETATM   13  N   UNK     0      -3.507  -6.504  -7.736  0.00  0.00    -0.143 N 
ENDROOT
BRANCH   9  14
HETATM   14  N   UNK     0      -3.566  -5.456  -5.261  0.00  0.00    -0.205 NA
HETATM   15  C   UNK     0      -4.799  -4.937  -4.989  0.00  0.00     0.281 C 
HETATM   16  O   UNK     0      -4.857  -3.688  -4.910  0.00  0.00    -0.268 OA
BRANCH  15  17
HETATM   17  C   UNK     0      -6.065  -5.697  -4.827  0.00  0.00     0.219 C 
BRANCH  17  18
HETATM   18  N   UNK     0      -6.109  -6.369  -3.564  0.00  0.00    -0.221 N 
HETATM   19  C   UNK     0      -6.289  -7.685  -3.348  0.00  0.00     0.114 A 
HETATM   20  C   UNK     0      -6.221  -7.865  -1.973  0.00  0.00     0.102 A 
HETATM   21  N   UNK     0      -6.030  -6.645  -1.447  0.00  0.00    -0.133 NA
HETATM   22  N   UNK     0      -5.963  -5.783  -2.415  0.00  0.00    -0.064 NA
BRANCH  20  23
HETATM   23  C   UNK     0      -6.321  -9.127  -1.204  0.00  0.00     0.062 C 
BRANCH  23  24
HETATM   24  C   UNK     0      -5.063  -9.554  -0.424  0.00  0.00     0.074 C 
HETATM   25 Br   UNK     0      -4.789 -11.046  -0.162  0.00  0.00    -0.081 Br
ENDBRANCH  23  24
ENDBRANCH  20  23
ENDBRANCH  17  18
ENDBRANCH  15  17
ENDBRANCH   9  14
TORSDOF 5
ENDMDL
MODEL 4
REMARK VINA RESULT:      -6.6      2.612      5.848
REMARK  5 active torsions:
REMARK  status: ('A' for Active; 'I' for Inactive)
REMARK    1  A    between atoms: C_9  and  N_13 
REMARK       I    between atoms: N_13  and  C_14 
REMARK    2  A    between atoms: C_14  and  C_17 
REMARK    3  A    between atoms: C_17  and  N_18 
REMARK    4  A    between atoms: C_20  and  C_23 
REMARK    5  A    between atoms: C_23  and  C_24 
ROOT
HETATM    1  C   UNK     0      -8.472  -7.581  -6.618  0.00  0.00     0.003 A 
HETATM    2  C   UNK     0      -8.882  -8.436  -7.656  0.00  0.00     0.000 A 
HETATM    3  C   UNK     0      -7.974  -8.815  -8.659  0.00  0.00     0.000 A 
HETATM    4  C   UNK     0      -6.647  -8.355  -8.617  0.00  0.00     0.003 A 
HETATM    5  C   UNK     0      -6.219  -7.493  -7.578  0.00  0.00     0.044 A 
HETATM    6  C   UNK     0      -7.149  -7.081  -6.579  0.00  0.00     0.044 A 
HETATM    7  C   UNK     0      -4.882  -7.001  -7.509  0.00  0.00     0.217 C 
HETATM    8  C   UNK     0      -4.562  -5.969  -6.621  0.00  0.00     0.162 C 
HETATM    9  C   UNK     0      -5.456  -5.537  -5.698  0.00  0.00     0.146 C 
HETATM   10  C   UNK     0      -6.714  -6.153  -5.584  0.00  0.00     0.215 C 
HETATM   11  O   UNK     0      -7.458  -5.869  -4.613  0.00  0.00    -0.285 OA
HETATM   12  O   UNK     0      -3.994  -7.487  -8.254  0.00  0.00    -0.285 OA
HETATM   13  N   UNK     0      -3.365  -5.403  -6.730  0.00  0.00    -0.143 N 
ENDROOT
BRANCH   9  14
HETATM   14  N   UNK     0      -5.119  -4.522  -4.892  0.00  0.00    -0.205 NA
HETATM   15  C   UNK     0      -4.401  -4.604  -3.734  0.00  0.00     0.281 C 
HETATM   16  O   UNK     0      -4.233  -3.524  -3.122  0.00  0.00    -0.268 OA
BRANCH  15  17
HETATM   17  C   UNK     0      -3.848  -5.838  -3.120  0.00  0.00     0.219 C 
BRANCH  17  18
HETATM   18  N   UNK     0      -4.872  -6.597  -2.467  0.00  0.00    -0.221 N 
HETATM   19  C   UNK     0      -5.078  -7.924  -2.550  0.00  0.00     0.114 A 
HETATM   20  C   UNK     0      -6.156  -8.201  -1.720  0.00  0.00     0.102 A 
HETATM   21  N   UNK     0      -6.545  -7.022  -1.210  0.00  0.00    -0.133 NA
HETATM   22  N   UNK     0      -5.762  -6.095  -1.667  0.00  0.00    -0.064 NA
BRANCH  20  23
HETATM   23  C   UNK     0      -6.774  -9.514  -1.420  0.00  0.00     0.062 C 
BRANCH  23  24
HETATM   24  C   UNK     0      -5.807 -10.658  -1.059  0.00  0.00     0.074 C 
HETATM   25 Br   UNK     0      -4.883 -10.528   0.166  0.00  0.00    -0.081 Br
ENDBRANCH  23  24
ENDBRANCH  20  23
ENDBRANCH  17  18
ENDBRANCH  15  17
ENDBRANCH   9  14
TORSDOF 5
ENDMDL
MODEL 5
REMARK VINA RESULT:      -6.4      2.313      4.985
REMARK  5 active torsions:
REMARK  status: ('A' for Active; 'I' for Inactive)
REMARK    1  A    between atoms: C_9  and  N_13 
REMARK       I    between atoms: N_13  and  C_14 
REMARK    2  A    between atoms: C_14  and  C_17 
REMARK    3  A    between atoms: C_17  and  N_18 
REMARK    4  A    between atoms: C_20  and  C_23 
REMARK    5  A    between atoms: C_23  and  C_24 
ROOT
HETATM    1  C   UNK     0      -5.613 -10.242  -5.781  0.00  0.00     0.003 A 
HETATM    2  C   UNK     0      -5.138 -11.506  -6.175  0.00  0.00     0.000 A 
HETATM    3  C   UNK     0      -3.913 -11.619  -6.853  0.00  0.00     0.000 A 
HETATM    4  C   UNK     0      -3.149 -10.471  -7.123  0.00  0.00     0.003 A 
HETATM    5  C   UNK     0      -3.615  -9.192  -6.734  0.00  0.00     0.044 A 
HETATM    6  C   UNK     0      -4.874  -9.073  -6.076  0.00  0.00     0.044 A 
HETATM    7  C   UNK     0      -2.869  -8.006  -6.999  0.00  0.00     0.217 C 
HETATM    8  C   UNK     0      -3.465  -6.752  -6.824  0.00  0.00     0.162 C 
HETATM    9  C   UNK     0      -4.683  -6.631  -6.241  0.00  0.00     0.146 C 
HETATM   10  C   UNK     0      -5.357  -7.766  -5.759  0.00  0.00     0.215 C 
HETATM   11  O   UNK     0      -6.393  -7.624  -5.064  0.00  0.00    -0.285 OA
HETATM   12  O   UNK     0      -1.681  -8.086  -7.402  0.00  0.00    -0.285 OA
HETATM   13  N   UNK     0      -2.813  -5.685  -7.272  0.00  0.00    -0.143 N 
ENDROOT
BRANCH   9  14
HETATM   14  N   UNK     0      -5.230  -5.414  -6.127  0.00  0.00    -0.205 NA
HETATM   15  C   UNK     0      -5.027  -4.521  -5.114  0.00  0.00     0.281 C 
HETATM   16  O   UNK     0      -5.673  -3.451  -5.196  0.00  0.00    -0.268 OA
BRANCH  15  17
HETATM   17  C   UNK     0      -4.162  -4.714  -3.923  0.00  0.00     0.219 C 
BRANCH  17  18
HETATM   18  N   UNK     0      -4.793  -5.557  -2.953  0.00  0.00    -0.221 N 
HETATM   19  C   UNK     0      -4.289  -6.671  -2.391  0.00  0.00     0.114 A 
HETATM   20  C   UNK     0      -5.246  -7.119  -1.491  0.00  0.00     0.102 A 
HETATM   21  N   UNK     0      -6.275  -6.263  -1.586  0.00  0.00    -0.133 NA
HETATM   22  N   UNK     0      -5.973  -5.348  -2.454  0.00  0.00    -0.064 NA
BRANCH  20  23
HETATM   23  C   UNK     0      -5.181  -8.289  -0.584  0.00  0.00     0.062 C 
BRANCH  23  24
HETATM   24  C   UNK     0      -5.498  -9.659  -1.213  0.00  0.00     0.074 C 
HETATM   25 Br   UNK     0      -4.457 -10.356  -2.107  0.00  0.00    -0.081 Br
ENDBRANCH  23  24
ENDBRANCH  20  23
ENDBRANCH  17  18
ENDBRANCH  15  17
ENDBRANCH   9  14
TORSDOF 5
ENDMDL
MODEL 6
REMARK VINA RESULT:      -6.3      2.239      4.784
REMARK  5 active torsions:
REMARK  status: ('A' for Active; 'I' for Inactive)
REMARK    1  A    between atoms: C_9  and  N_13 
REMARK       I    between atoms: N_13  and  C_14 
REMARK    2  A    between atoms: C_14  and  C_17 
REMARK    3  A    between atoms: C_17  and  N_18 
REMARK    4  A    between atoms: C_20  and  C_23 
REMARK    5  A    between atoms: C_23  and  C_24 
ROOT
HETATM    1  C   UNK     0      -3.604  -8.770  -8.754  0.00  0.00     0.003 A 
HETATM    2  C   UNK     0      -3.074 -10.013  -9.144  0.00  0.00     0.000 A 
HETATM    3  C   UNK     0      -2.438 -10.836  -8.200  0.00  0.00     0.000 A 
HETATM    4  C   UNK     0      -2.345 -10.428  -6.859  0.00  0.00     0.003 A 
HETATM    5  C   UNK     0      -2.873  -9.179  -6.451  0.00  0.00     0.044 A 
HETATM    6  C   UNK     0      -3.489  -8.328  -7.415  0.00  0.00     0.044 A 
HETATM    7  C   UNK     0      -2.790  -8.730  -5.100  0.00  0.00     0.217 C 
HETATM    8  C   UNK     0      -3.097  -7.402  -4.785  0.00  0.00     0.162 C 
HETATM    9  C   UNK     0      -3.640  -6.570  -5.709  0.00  0.00     0.146 C 
HETATM   10  C   UNK     0      -3.948  -7.041  -6.996  0.00  0.00     0.215 C 
HETATM   11  O   UNK     0      -4.612  -6.319  -7.779  0.00  0.00    -0.285 OA
HETATM   12  O   UNK     0      -2.429  -9.523  -4.195  0.00  0.00    -0.285 OA
HETATM   13  N   UNK     0      -2.813  -6.971  -3.561  0.00  0.00    -0.143 N 
ENDROOT
BRANCH   9  14
HETATM   14  N   UNK     0      -3.884  -5.298  -5.373  0.00  0.00    -0.205 NA
HETATM   15  C   UNK     0      -5.048  -4.798  -4.864  0.00  0.00     0.281 C 
HETATM   16  O   UNK     0      -5.064  -3.563  -4.654  0.00  0.00    -0.268 OA
BRANCH  15  17
HETATM   17  C   UNK     0      -6.292  -5.560  -4.583  0.00  0.00     0.219 C 
BRANCH  17  18
HETATM   18  N   UNK     0      -6.188  -6.289  -3.355  0.00  0.00    -0.221 N 
HETATM   19  C   UNK     0      -6.210  -7.625  -3.199  0.00  0.00     0.114 A 
HETATM   20  C   UNK     0      -6.042  -7.859  -1.840  0.00  0.00     0.102 A 
HETATM   21  N   UNK     0      -5.955  -6.651  -1.263  0.00  0.00    -0.133 NA
HETATM   22  N   UNK     0      -6.039  -5.744  -2.186  0.00  0.00    -0.064 NA
BRANCH  20  23
HETATM   23  C   UNK     0      -5.957  -9.158  -1.133  0.00  0.00     0.062 C 
BRANCH  23  24
HETATM   24  C   UNK     0      -4.686  -9.992  -1.384  0.00  0.00     0.074 C 
HETATM   25 Br   UNK     0      -4.795 -11.389  -2.022  0.00  0.00    -0.081 Br
ENDBRANCH  23  24
ENDBRANCH  20  23
ENDBRANCH  17  18
ENDBRANCH  15  17
ENDBRANCH   9  14
TORSDOF 5
ENDMDL
MODEL 7
REMARK VINA RESULT:      -6.3      2.906      5.284
REMARK  5 active torsions:
REMARK  status: ('A' for Active; 'I' for Inactive)
REMARK    1  A    between atoms: C_9  and  N_13 
REMARK       I    between atoms: N_13  and  C_14 
REMARK    2  A    between atoms: C_14  and  C_17 
REMARK    3  A    between atoms: C_17  and  N_18 
REMARK    4  A    between atoms: C_20  and  C_23 
REMARK    5  A    between atoms: C_23  and  C_24 
ROOT
HETATM    1  C   UNK     0      -3.130  -7.895  -8.155  0.00  0.00     0.003 A 
HETATM    2  C   UNK     0      -3.285  -9.158  -8.752  0.00  0.00     0.000 A 
HETATM    3  C   UNK     0      -4.503  -9.848  -8.637  0.00  0.00     0.000 A 
HETATM    4  C   UNK     0      -5.577  -9.269  -7.940  0.00  0.00     0.003 A 
HETATM    5  C   UNK     0      -5.436  -7.998  -7.333  0.00  0.00     0.044 A 
HETATM    6  C   UNK     0      -4.189  -7.312  -7.420  0.00  0.00     0.044 A 
HETATM    7  C   UNK     0      -6.502  -7.385  -6.611  0.00  0.00     0.217 C 
HETATM    8  C   UNK     0      -6.254  -6.255  -5.824  0.00  0.00     0.162 C 
HETATM    9  C   UNK     0      -5.055  -5.622  -5.864  0.00  0.00     0.146 C 
HETATM   10  C   UNK     0      -4.047  -6.065  -6.736  0.00  0.00     0.215 C 
HETATM   11  O   UNK     0      -3.015  -5.368  -6.897  0.00  0.00    -0.285 OA
HETATM   12  O   UNK     0      -7.661  -7.865  -6.672  0.00  0.00    -0.285 OA
HETATM   13  N   UNK     0      -7.220  -5.838  -5.013  0.00  0.00    -0.143 N 
ENDROOT
BRANCH   9  14
HETATM   14  N   UNK     0      -4.851  -4.566  -5.067  0.00  0.00    -0.205 NA
HETATM   15  C   UNK     0      -4.263  -4.576  -3.836  0.00  0.00     0.281 C 
HETATM   16  O   UNK     0      -4.208  -3.469  -3.251  0.00  0.00    -0.268 OA
BRANCH  15  17
HETATM   17  C   UNK     0      -3.731  -5.762  -3.117  0.00  0.00     0.219 C 
BRANCH  17  18
HETATM   18  N   UNK     0      -4.784  -6.513  -2.504  0.00  0.00    -0.221 N 
HETATM   19  C   UNK     0      -4.980  -7.843  -2.570  0.00  0.00     0.114 A 
HETATM   20  C   UNK     0      -6.099  -8.109  -1.793  0.00  0.00     0.102 A 
HETATM   21  N   UNK     0      -6.521  -6.922  -1.329  0.00  0.00    -0.133 NA
HETATM   22  N   UNK     0      -5.719  -6.000  -1.763  0.00  0.00    -0.064 NA
BRANCH  20  23
HETATM   23  C   UNK     0      -6.725  -9.419  -1.499  0.00  0.00     0.062 C 
BRANCH  23  24
HETATM   24  C   UNK     0      -8.029  -9.385  -0.678  0.00  0.00     0.074 C 
HETATM   25 Br   UNK     0      -9.351  -9.855  -1.312  0.00  0.00    -0.081 Br
ENDBRANCH  23  24
ENDBRANCH  20  23
ENDBRANCH  17  18
ENDBRANCH  15  17
ENDBRANCH   9  14
TORSDOF 5
ENDMDL
MODEL 8
REMARK VINA RESULT:      -6.3      2.535      4.783
REMARK  5 active torsions:
REMARK  status: ('A' for Active; 'I' for Inactive)
REMARK    1  A    between atoms: C_9  and  N_13 
REMARK       I    between atoms: N_13  and  C_14 
REMARK    2  A    between atoms: C_14  and  C_17 
REMARK    3  A    between atoms: C_17  and  N_18 
REMARK    4  A    between atoms: C_20  and  C_23 
REMARK    5  A    between atoms: C_23  and  C_24 
ROOT
HETATM    1  C   UNK     0      -6.196  -8.447  -3.190  0.00  0.00     0.003 A 
HETATM    2  C   UNK     0      -6.213  -8.490  -1.784  0.00  0.00     0.000 A 
HETATM    3  C   UNK     0      -5.779  -7.381  -1.039  0.00  0.00     0.000 A 
HETATM    4  C   UNK     0      -5.342  -6.219  -1.696  0.00  0.00     0.003 A 
HETATM    5  C   UNK     0      -5.318  -6.160  -3.110  0.00  0.00     0.044 A 
HETATM    6  C   UNK     0      -5.727  -7.297  -3.867  0.00  0.00     0.044 A 
HETATM    7  C   UNK     0      -4.874  -4.999  -3.809  0.00  0.00     0.217 C 
HETATM    8  C   UNK     0      -4.632  -5.062  -5.186  0.00  0.00     0.162 C 
HETATM    9  C   UNK     0      -4.975  -6.158  -5.908  0.00  0.00     0.146 C 
HETATM   10  C   UNK     0      -5.624  -7.241  -5.292  0.00  0.00     0.215 C 
HETATM   11  O   UNK     0      -6.096  -8.165  -5.998  0.00  0.00    -0.285 OA
HETATM   12  O   UNK     0      -4.688  -3.923  -3.187  0.00  0.00    -0.285 OA
HETATM   13  N   UNK     0      -4.029  -4.027  -5.760  0.00  0.00    -0.143 N 
ENDROOT
BRANCH   9  14
HETATM   14  N   UNK     0      -4.692  -6.188  -7.216  0.00  0.00    -0.205 NA
HETATM   15  C   UNK     0      -3.557  -6.680  -7.794  0.00  0.00     0.281 C 
HETATM   16  O   UNK     0      -3.492  -6.573  -9.040  0.00  0.00    -0.268 OA
BRANCH  15  17
HETATM   17  C   UNK     0      -2.394  -7.281  -7.092  0.00  0.00     0.219 C 
BRANCH  17  18
HETATM   18  N   UNK     0      -2.649  -8.644  -6.735  0.00  0.00    -0.221 N 
HETATM   19  C   UNK     0      -2.528  -9.201  -5.517  0.00  0.00     0.114 A 
HETATM   20  C   UNK     0      -2.918 -10.527  -5.657  0.00  0.00     0.102 A 
HETATM   21  N   UNK     0      -3.224 -10.689  -6.954  0.00  0.00    -0.133 NA
HETATM   22  N   UNK     0      -3.060  -9.556  -7.562  0.00  0.00    -0.064 NA
BRANCH  20  23
HETATM   23  C   UNK     0      -3.005 -11.576  -4.615  0.00  0.00     0.062 C 
BRANCH  23  24
HETATM   24  C   UNK     0      -3.221 -11.089  -3.169  0.00  0.00     0.074 C 
HETATM   25 Br   UNK     0      -4.312 -11.732  -2.295  0.00  0.00    -0.081 Br
ENDBRANCH  23  24
ENDBRANCH  20  23
ENDBRANCH  17  18
ENDBRANCH  15  17
ENDBRANCH   9  14
TORSDOF 5
ENDMDL
MODEL 9
REMARK VINA RESULT:      -6.2      2.295      2.838
REMARK  5 active torsions:
REMARK  status: ('A' for Active; 'I' for Inactive)
REMARK    1  A    between atoms: C_9  and  N_13 
REMARK       I    between atoms: N_13  and  C_14 
REMARK    2  A    between atoms: C_14  and  C_17 
REMARK    3  A    between atoms: C_17  and  N_18 
REMARK    4  A    between atoms: C_20  and  C_23 
REMARK    5  A    between atoms: C_23  and  C_24 
ROOT
HETATM    1  C   UNK     0      -6.256 -10.619  -4.725  0.00  0.00     0.003 A 
HETATM    2  C   UNK     0      -6.127 -12.004  -4.522  0.00  0.00     0.000 A 
HETATM    3  C   UNK     0      -6.045 -12.522  -3.219  0.00  0.00     0.000 A 
HETATM    4  C   UNK     0      -6.110 -11.659  -2.113  0.00  0.00     0.003 A 
HETATM    5  C   UNK     0      -6.239 -10.261  -2.301  0.00  0.00     0.044 A 
HETATM    6  C   UNK     0      -6.287  -9.732  -3.623  0.00  0.00     0.044 A 
HETATM    7  C   UNK     0      -6.299  -9.355  -1.201  0.00  0.00     0.217 C 
HETATM    8  C   UNK     0      -6.179  -7.979  -1.422  0.00  0.00     0.162 C 
HETATM    9  C   UNK     0      -6.178  -7.469  -2.678  0.00  0.00     0.146 C 
HETATM   10  C   UNK     0      -6.343  -8.313  -3.789  0.00  0.00     0.215 C 
HETATM   11  O   UNK     0      -6.521  -7.814  -4.927  0.00  0.00    -0.285 OA
HETATM   12  O   UNK     0      -6.449  -9.793  -0.033  0.00  0.00    -0.285 OA
HETATM   13  N   UNK     0      -6.036  -7.189  -0.364  0.00  0.00    -0.143 N 
ENDROOT
BRANCH   9  14
HETATM   14  N   UNK     0      -6.024  -6.149  -2.843  0.00  0.00    -0.205 NA
HETATM   15  C   UNK     0      -4.844  -5.465  -2.895  0.00  0.00     0.281 C 
HETATM   16  O   UNK     0      -4.941  -4.223  -3.022  0.00  0.00    -0.268 OA
BRANCH  15  17
HETATM   17  C   UNK     0      -3.480  -6.041  -2.774  0.00  0.00     0.219 C 
BRANCH  17  18
HETATM   18  N   UNK     0      -3.211  -6.968  -3.832  0.00  0.00    -0.221 N 
HETATM   19  C   UNK     0      -2.876  -8.265  -3.711  0.00  0.00     0.114 A 
HETATM   20  C   UNK     0      -2.753  -8.755  -5.005  0.00  0.00     0.102 A 
HETATM   21  N   UNK     0      -2.995  -7.717  -5.821  0.00  0.00    -0.133 NA
HETATM   22  N   UNK     0      -3.268  -6.677  -5.096  0.00  0.00    -0.064 NA
BRANCH  20  23
HETATM   23  C   UNK     0      -2.432 -10.135  -5.440  0.00  0.00     0.062 C 
BRANCH  23  24
HETATM   24  C   UNK     0      -2.460 -11.220  -4.348  0.00  0.00     0.074 C 
HETATM   25 Br   UNK     0      -2.482 -12.709  -4.741  0.00  0.00    -0.081 Br
ENDBRANCH  23  24
ENDBRANCH  20  23
ENDBRANCH  17  18
ENDBRANCH  15  17
ENDBRANCH   9  14
TORSDOF 5
ENDMDL
