MODEL 1
REMARK VINA RESULT:      -7.7      0.000      0.000
REMARK  5 active torsions:
REMARK  status: ('A' for Active; 'I' for Inactive)
REMARK    1  A    between atoms: C_9  and  N_13 
REMARK       I    between atoms: N_13  and  C_14 
REMARK    2  A    between atoms: C_14  and  C_17 
REMARK    3  A    between atoms: C_17  and  N_18 
REMARK    4  A    between atoms: C_20  and  C_23 
REMARK    5  A    between atoms: C_23  and  C_24 
ROOT
HETATM    1  N   UNK     0      -4.038  -5.678  -2.537  0.00  0.00    -0.205 NA
HETATM    2  C   UNK     0      -4.602  -4.747  -3.360  0.00  0.00     0.281 C 
HETATM    3  O   UNK     0      -4.212  -3.568  -3.196  0.00  0.00    -0.268 OA
ENDROOT
BRANCH   2   4
HETATM    4  C   UNK     0      -5.584  -5.002  -4.445  0.00  0.00     0.219 C 
BRANCH   4   5
HETATM    5  N   UNK     0      -4.946  -5.543  -5.607  0.00  0.00    -0.221 N 
HETATM    6  C   UNK     0      -5.231  -6.704  -6.225  0.00  0.00     0.114 A 
HETATM    7  C   UNK     0      -4.378  -6.781  -7.318  0.00  0.00     0.101 A 
HETATM    8  N   UNK     0      -3.618  -5.675  -7.276  0.00  0.00    -0.133 NA
HETATM    9  N   UNK     0      -3.984  -4.961  -6.255  0.00  0.00    -0.064 NA
BRANCH   7  10
HETATM   10  C   UNK     0      -4.298  -7.840  -8.350  0.00  0.00     0.049 C 
BRANCH  10  11
HETATM   11  C   UNK     0      -3.588  -9.155  -7.881  0.00  0.00     0.006 C 
HETATM   12  C   UNK     0      -2.107  -8.872  -7.460  0.00  0.00     0.000 C 
HETATM   13  C   UNK     0      -1.338 -10.155  -7.038  0.00  0.00     0.000 C 
HETATM   14  C   UNK     0      -1.399 -11.249  -8.134  0.00  0.00     0.000 C 
HETATM   15  C   UNK     0      -2.861 -11.560  -8.541  0.00  0.00     0.000 C 
HETATM   16  C   UNK     0      -3.622 -10.277  -8.971  0.00  0.00     0.000 C 
ENDBRANCH  10  11
ENDBRANCH   7  10
ENDBRANCH   4   5
ENDBRANCH   2   4
BRANCH   1  17
HETATM   17  C   UNK     0      -4.268  -6.997  -2.544  0.00  0.00     0.146 C 
HETATM   18  C   UNK     0      -5.287  -7.489  -1.797  0.00  0.00     0.162 C 
HETATM   19  C   UNK     0      -5.544  -8.865  -1.743  0.00  0.00     0.217 C 
HETATM   20  N   UNK     0      -6.053  -6.685  -1.070  0.00  0.00    -0.143 N 
HETATM   21  C   UNK     0      -4.624  -9.784  -2.329  0.00  0.00     0.044 A 
HETATM   22  O   UNK     0      -6.577  -9.288  -1.169  0.00  0.00    -0.285 OA
HETATM   23  C   UNK     0      -4.708 -11.178  -2.093  0.00  0.00     0.003 A 
HETATM   24  C   UNK     0      -3.582  -9.273  -3.155  0.00  0.00     0.044 A 
HETATM   25  C   UNK     0      -3.782 -12.056  -2.680  0.00  0.00     0.000 A 
HETATM   26  C   UNK     0      -2.775 -11.556  -3.522  0.00  0.00     0.000 A 
HETATM   27  C   UNK     0      -2.678 -10.175  -3.767  0.00  0.00     0.003 A 
HETATM   28  C   UNK     0      -3.473  -7.857  -3.320  0.00  0.00     0.215 C 
HETATM   29  O   UNK     0      -2.656  -7.375  -4.143  0.00  0.00    -0.285 OA
ENDBRANCH   1  17
TORSDOF 5
ENDMDL
MODEL 2
REMARK VINA RESULT:      -7.5      1.797      5.063
REMARK  5 active torsions:
REMARK  status: ('A' for Active; 'I' for Inactive)
REMARK    1  A    between atoms: C_9  and  N_13 
REMARK       I    between atoms: N_13  and  C_14 
REMARK    2  A    between atoms: C_14  and  C_17 
REMARK    3  A    between atoms: C_17  and  N_18 
REMARK    4  A    between atoms: C_20  and  C_23 
REMARK    5  A    between atoms: C_23  and  C_24 
ROOT
HETATM    1  N   UNK     0      -3.634  -5.441  -5.533  0.00  0.00    -0.205 NA
HETATM    2  C   UNK     0      -4.855  -4.915  -5.223  0.00  0.00     0.281 C 
HETATM    3  O   UNK     0      -4.915  -3.665  -5.185  0.00  0.00    -0.268 OA
ENDROOT
BRANCH   2   4
HETATM    4  C   UNK     0      -6.110  -5.673  -4.977  0.00  0.00     0.219 C 
BRANCH   4   5
HETATM    5  N   UNK     0      -6.121  -6.246  -3.666  0.00  0.00    -0.221 N 
HETATM    6  C   UNK     0      -6.339  -7.534  -3.344  0.00  0.00     0.114 A 
HETATM    7  C   UNK     0      -6.213  -7.615  -1.963  0.00  0.00     0.101 A 
HETATM    8  N   UNK     0      -5.951  -6.369  -1.540  0.00  0.00    -0.133 NA
HETATM    9  N   UNK     0      -5.897  -5.584  -2.572  0.00  0.00    -0.064 NA
BRANCH   7  10
HETATM   10  C   UNK     0      -6.325  -8.812  -1.097  0.00  0.00     0.049 C 
BRANCH  10  11
HETATM   11  C   UNK     0      -5.724 -10.120  -1.712  0.00  0.00     0.006 C 
HETATM   12  C   UNK     0      -6.770 -10.839  -2.629  0.00  0.00     0.000 C 
HETATM   13  C   UNK     0      -6.244 -12.176  -3.222  0.00  0.00     0.000 C 
HETATM   14  C   UNK     0      -5.731 -13.134  -2.117  0.00  0.00     0.000 C 
HETATM   15  C   UNK     0      -4.673 -12.444  -1.219  0.00  0.00     0.000 C 
HETATM   16  C   UNK     0      -5.207 -11.115  -0.621  0.00  0.00     0.000 C 
ENDBRANCH  10  11
ENDBRANCH   7  10
ENDBRANCH   4   5
ENDBRANCH   2   4
BRANCH   1  17
HETATM   17  C   UNK     0      -3.332  -6.738  -5.665  0.00  0.00     0.146 C 
HETATM   18  C   UNK     0      -3.375  -7.299  -6.899  0.00  0.00     0.162 C 
HETATM   19  C   UNK     0      -3.103  -8.660  -7.083  0.00  0.00     0.217 C 
HETATM   20  N   UNK     0      -3.705  -6.581  -7.966  0.00  0.00    -0.143 N 
HETATM   21  C   UNK     0      -2.957  -9.516  -5.952  0.00  0.00     0.044 A 
HETATM   22  O   UNK     0      -3.001  -9.128  -8.244  0.00  0.00    -0.285 OA
HETATM   23  C   UNK     0      -2.927 -10.927  -6.081  0.00  0.00     0.003 A 
HETATM   24  C   UNK     0      -2.862  -8.927  -4.659  0.00  0.00     0.044 A 
HETATM   25  C   UNK     0      -2.789 -11.743  -4.945  0.00  0.00     0.000 A 
HETATM   26  C   UNK     0      -2.661 -11.160  -3.673  0.00  0.00     0.000 A 
HETATM   27  C   UNK     0      -2.689  -9.762  -3.529  0.00  0.00     0.003 A 
HETATM   28  C   UNK     0      -2.969  -7.506  -4.546  0.00  0.00     0.215 C 
HETATM   29  O   UNK     0      -2.757  -6.939  -3.446  0.00  0.00    -0.285 OA
ENDBRANCH   1  17
TORSDOF 5
ENDMDL
MODEL 3
REMARK VINA RESULT:      -7.5      1.315      2.527
REMARK  5 active torsions:
REMARK  status: ('A' for Active; 'I' for Inactive)
REMARK    1  A    between atoms: C_9  and  N_13 
REMARK       I    between atoms: N_13  and  C_14 
REMARK    2  A    between atoms: C_14  and  C_17 
REMARK    3  A    between atoms: C_17  and  N_18 
REMARK    4  A    between atoms: C_20  and  C_23 
REMARK    5  A    between atoms: C_23  and  C_24 
ROOT
HETATM    1  N   UNK     0      -4.252  -5.517  -2.491  0.00  0.00    -0.205 NA
HETATM    2  C   UNK     0      -4.707  -4.640  -3.434  0.00  0.00     0.281 C 
HETATM    3  O   UNK     0      -4.248  -3.478  -3.361  0.00  0.00    -0.268 OA
ENDROOT
BRANCH   2   4
HETATM    4  C   UNK     0      -5.644  -4.942  -4.547  0.00  0.00     0.219 C 
BRANCH   4   5
HETATM    5  N   UNK     0      -4.958  -5.528  -5.658  0.00  0.00    -0.221 N 
HETATM    6  C   UNK     0      -5.213  -6.716  -6.236  0.00  0.00     0.114 A 
HETATM    7  C   UNK     0      -4.317  -6.834  -7.291  0.00  0.00     0.101 A 
HETATM    8  N   UNK     0      -3.566  -5.722  -7.267  0.00  0.00    -0.133 NA
HETATM    9  N   UNK     0      -3.974  -4.968  -6.293  0.00  0.00    -0.064 NA
BRANCH   7  10
HETATM   10  C   UNK     0      -4.191  -7.936  -8.273  0.00  0.00     0.049 C 
BRANCH  10  11
HETATM   11  C   UNK     0      -2.854  -8.744  -8.178  0.00  0.00     0.006 C 
HETATM   12  C   UNK     0      -2.783  -9.842  -9.291  0.00  0.00     0.000 C 
HETATM   13  C   UNK     0      -1.498 -10.712  -9.208  0.00  0.00     0.000 C 
HETATM   14  C   UNK     0      -1.319 -11.342  -7.803  0.00  0.00     0.000 C 
HETATM   15  C   UNK     0      -1.359 -10.263  -6.691  0.00  0.00     0.000 C 
HETATM   16  C   UNK     0      -2.649  -9.402  -6.773  0.00  0.00     0.000 C 
ENDBRANCH  10  11
ENDBRANCH   7  10
ENDBRANCH   4   5
ENDBRANCH   2   4
BRANCH   1  17
HETATM   17  C   UNK     0      -4.570  -6.813  -2.385  0.00  0.00     0.146 C 
HETATM   18  C   UNK     0      -3.784  -7.733  -2.997  0.00  0.00     0.162 C 
HETATM   19  C   UNK     0      -4.096  -9.097  -2.945  0.00  0.00     0.217 C 
HETATM   20  N   UNK     0      -2.711  -7.367  -3.687  0.00  0.00    -0.143 N 
HETATM   21  C   UNK     0      -5.345  -9.522  -2.405  0.00  0.00     0.044 A 
HETATM   22  O   UNK     0      -3.280  -9.944  -3.387  0.00  0.00    -0.285 OA
HETATM   23  C   UNK     0      -5.810 -10.852  -2.552  0.00  0.00     0.003 A 
HETATM   24  C   UNK     0      -6.151  -8.569  -1.719  0.00  0.00     0.044 A 
HETATM   25  C   UNK     0      -7.049 -11.237  -2.013  0.00  0.00     0.000 A 
HETATM   26  C   UNK     0      -7.828 -10.305  -1.307  0.00  0.00     0.000 A 
HETATM   27  C   UNK     0      -7.381  -8.981  -1.152  0.00  0.00     0.003 A 
HETATM   28  C   UNK     0      -5.696  -7.215  -1.647  0.00  0.00     0.215 C 
HETATM   29  O   UNK     0      -6.307  -6.377  -0.940  0.00  0.00    -0.285 OA
ENDBRANCH   1  17
TORSDOF 5
ENDMDL
MODEL 4
REMARK VINA RESULT:      -7.5      1.984      4.861
REMARK  5 active torsions:
REMARK  status: ('A' for Active; 'I' for Inactive)
REMARK    1  A    between atoms: C_9  and  N_13 
REMARK       I    between atoms: N_13  and  C_14 
REMARK    2  A    between atoms: C_14  and  C_17 
REMARK    3  A    between atoms: C_17  and  N_18 
REMARK    4  A    between atoms: C_20  and  C_23 
REMARK    5  A    between atoms: C_23  and  C_24 
ROOT
HETATM    1  N   UNK     0      -5.171  -5.329  -5.947  0.00  0.00    -0.205 NA
HETATM    2  C   UNK     0      -4.676  -4.371  -5.110  0.00  0.00     0.281 C 
HETATM    3  O   UNK     0      -4.916  -3.187  -5.438  0.00  0.00    -0.268 OA
ENDROOT
BRANCH   2   4
HETATM    4  C   UNK     0      -3.932  -4.599  -3.845  0.00  0.00     0.219 C 
BRANCH   4   5
HETATM    5  N   UNK     0      -4.691  -5.399  -2.933  0.00  0.00    -0.221 N 
HETATM    6  C   UNK     0      -4.303  -6.543  -2.338  0.00  0.00     0.114 A 
HETATM    7  C   UNK     0      -5.355  -6.929  -1.519  0.00  0.00     0.101 A 
HETATM    8  N   UNK     0      -6.317  -6.009  -1.688  0.00  0.00    -0.133 NA
HETATM    9  N   UNK     0      -5.890  -5.115  -2.527  0.00  0.00    -0.064 NA
BRANCH   7  10
HETATM   10  C   UNK     0      -5.437  -8.101  -0.616  0.00  0.00     0.049 C 
BRANCH  10  11
HETATM   11  C   UNK     0      -5.525  -9.483  -1.348  0.00  0.00     0.006 C 
HETATM   12  C   UNK     0      -7.013  -9.948  -1.486  0.00  0.00     0.000 C 
HETATM   13  C   UNK     0      -7.155 -11.343  -2.157  0.00  0.00     0.000 C 
HETATM   14  C   UNK     0      -6.307 -12.420  -1.433  0.00  0.00     0.000 C 
HETATM   15  C   UNK     0      -4.825 -11.984  -1.313  0.00  0.00     0.000 C 
HETATM   16  C   UNK     0      -4.688 -10.595  -0.634  0.00  0.00     0.000 C 
ENDBRANCH  10  11
ENDBRANCH   7  10
ENDBRANCH   4   5
ENDBRANCH   2   4
BRANCH   1  17
HETATM   17  C   UNK     0      -5.073  -6.655  -5.792  0.00  0.00     0.146 C 
HETATM   18  C   UNK     0      -6.173  -7.356  -5.422  0.00  0.00     0.162 C 
HETATM   19  C   UNK     0      -6.112  -8.739  -5.211  0.00  0.00     0.217 C 
HETATM   20  N   UNK     0      -7.336  -6.748  -5.220  0.00  0.00    -0.143 N 
HETATM   21  C   UNK     0      -4.850  -9.402  -5.204  0.00  0.00     0.044 A 
HETATM   22  O   UNK     0      -7.167  -9.391  -5.016  0.00  0.00    -0.285 OA
HETATM   23  C   UNK     0      -4.711 -10.739  -4.757  0.00  0.00     0.003 A 
HETATM   24  C   UNK     0      -3.699  -8.684  -5.639  0.00  0.00     0.044 A 
HETATM   25  C   UNK     0      -3.451 -11.362  -4.755  0.00  0.00     0.000 A 
HETATM   26  C   UNK     0      -2.322 -10.665  -5.217  0.00  0.00     0.000 A 
HETATM   27  C   UNK     0      -2.443  -9.337  -5.664  0.00  0.00     0.003 A 
HETATM   28  C   UNK     0      -3.851  -7.313  -6.015  0.00  0.00     0.215 C 
HETATM   29  O   UNK     0      -2.893  -6.686  -6.530  0.00  0.00    -0.285 OA
ENDBRANCH   1  17
TORSDOF 5
ENDMDL
MODEL 5
REMARK VINA RESULT:      -7.3      1.234      1.403
REMARK  5 active torsions:
REMARK  status: ('A' for Active; 'I' for Inactive)
REMARK    1  A    between atoms: C_9  and  N_13 
REMARK       I    between atoms: N_13  and  C_14 
REMARK    2  A    between atoms: C_14  and  C_17 
REMARK    3  A    between atoms: C_17  and  N_18 
REMARK    4  A    between atoms: C_20  and  C_23 
REMARK    5  A    between atoms: C_23  and  C_24 
ROOT
HETATM    1  N   UNK     0      -4.119  -5.665  -2.501  0.00  0.00    -0.205 NA
HETATM    2  C   UNK     0      -4.671  -4.744  -3.343  0.00  0.00     0.281 C 
HETATM    3  O   UNK     0      -4.304  -3.560  -3.168  0.00  0.00    -0.268 OA
ENDROOT
BRANCH   2   4
HETATM    4  C   UNK     0      -5.614  -5.015  -4.458  0.00  0.00     0.219 C 
BRANCH   4   5
HETATM    5  N   UNK     0      -4.921  -5.470  -5.625  0.00  0.00    -0.221 N 
HETATM    6  C   UNK     0      -5.194  -6.565  -6.358  0.00  0.00     0.114 A 
HETATM    7  C   UNK     0      -4.282  -6.569  -7.404  0.00  0.00     0.101 A 
HETATM    8  N   UNK     0      -3.504  -5.490  -7.224  0.00  0.00    -0.133 NA
HETATM    9  N   UNK     0      -3.912  -4.858  -6.166  0.00  0.00    -0.064 NA
BRANCH   7  10
HETATM   10  C   UNK     0      -4.164  -7.536  -8.520  0.00  0.00     0.049 C 
BRANCH  10  11
HETATM   11  C   UNK     0      -2.692  -7.898  -8.916  0.00  0.00     0.006 C 
HETATM   12  C   UNK     0      -2.271  -7.165 -10.233  0.00  0.00     0.000 C 
HETATM   13  C   UNK     0      -0.836  -7.533 -10.703  0.00  0.00     0.000 C 
HETATM   14  C   UNK     0      -0.651  -9.066 -10.843  0.00  0.00     0.000 C 
HETATM   15  C   UNK     0      -1.038  -9.803  -9.536  0.00  0.00     0.000 C 
HETATM   16  C   UNK     0      -2.476  -9.440  -9.076  0.00  0.00     0.000 C 
ENDBRANCH  10  11
ENDBRANCH   7  10
ENDBRANCH   4   5
ENDBRANCH   2   4
BRANCH   1  17
HETATM   17  C   UNK     0      -4.328  -6.987  -2.514  0.00  0.00     0.146 C 
HETATM   18  C   UNK     0      -5.341  -7.498  -1.772  0.00  0.00     0.162 C 
HETATM   19  C   UNK     0      -5.577  -8.878  -1.724  0.00  0.00     0.217 C 
HETATM   20  N   UNK     0      -6.122  -6.709  -1.044  0.00  0.00    -0.143 N 
HETATM   21  C   UNK     0      -4.641  -9.781  -2.310  0.00  0.00     0.044 A 
HETATM   22  O   UNK     0      -6.606  -9.319  -1.155  0.00  0.00    -0.285 OA
HETATM   23  C   UNK     0      -4.704 -11.177  -2.078  0.00  0.00     0.003 A 
HETATM   24  C   UNK     0      -3.605  -9.251  -3.130  0.00  0.00     0.044 A 
HETATM   25  C   UNK     0      -3.762 -12.039  -2.665  0.00  0.00     0.000 A 
HETATM   26  C   UNK     0      -2.760 -11.519  -3.502  0.00  0.00     0.000 A 
HETATM   27  C   UNK     0      -2.685 -10.136  -3.741  0.00  0.00     0.003 A 
HETATM   28  C   UNK     0      -3.517  -7.833  -3.289  0.00  0.00     0.215 C 
HETATM   29  O   UNK     0      -2.705  -7.335  -4.108  0.00  0.00    -0.285 OA
ENDBRANCH   1  17
TORSDOF 5
ENDMDL
MODEL 6
REMARK VINA RESULT:      -7.1      1.992      5.130
REMARK  5 active torsions:
REMARK  status: ('A' for Active; 'I' for Inactive)
REMARK    1  A    between atoms: C_9  and  N_13 
REMARK       I    between atoms: N_13  and  C_14 
REMARK    2  A    between atoms: C_14  and  C_17 
REMARK    3  A    between atoms: C_17  and  N_18 
REMARK    4  A    between atoms: C_20  and  C_23 
REMARK    5  A    between atoms: C_23  and  C_24 
ROOT
HETATM    1  N   UNK     0      -5.129  -5.337  -6.094  0.00  0.00    -0.205 NA
HETATM    2  C   UNK     0      -4.723  -4.394  -5.195  0.00  0.00     0.281 C 
HETATM    3  O   UNK     0      -5.090  -3.221  -5.434  0.00  0.00    -0.268 OA
ENDROOT
BRANCH   2   4
HETATM    4  C   UNK     0      -3.938  -4.630  -3.955  0.00  0.00     0.219 C 
BRANCH   4   5
HETATM    5  N   UNK     0      -4.646  -5.480  -3.047  0.00  0.00    -0.221 N 
HETATM    6  C   UNK     0      -4.277  -6.702  -2.621  0.00  0.00     0.114 A 
HETATM    7  C   UNK     0      -5.256  -7.113  -1.727  0.00  0.00     0.101 A 
HETATM    8  N   UNK     0      -6.164  -6.124  -1.688  0.00  0.00    -0.133 NA
HETATM    9  N   UNK     0      -5.770  -5.171  -2.476  0.00  0.00    -0.064 NA
BRANCH   7  10
HETATM   10  C   UNK     0      -5.321  -8.369  -0.945  0.00  0.00     0.049 C 
BRANCH  10  11
HETATM   11  C   UNK     0      -5.357  -9.675  -1.810  0.00  0.00     0.006 C 
HETATM   12  C   UNK     0      -6.318 -10.737  -1.180  0.00  0.00     0.000 C 
HETATM   13  C   UNK     0      -6.350 -12.075  -1.970  0.00  0.00     0.000 C 
HETATM   14  C   UNK     0      -4.928 -12.664  -2.161  0.00  0.00     0.000 C 
HETATM   15  C   UNK     0      -3.972 -11.632  -2.810  0.00  0.00     0.000 C 
HETATM   16  C   UNK     0      -3.937 -10.301  -2.012  0.00  0.00     0.000 C 
ENDBRANCH  10  11
ENDBRANCH   7  10
ENDBRANCH   4   5
ENDBRANCH   2   4
BRANCH   1  17
HETATM   17  C   UNK     0      -4.890  -6.653  -6.034  0.00  0.00     0.146 C 
HETATM   18  C   UNK     0      -3.695  -7.124  -6.468  0.00  0.00     0.162 C 
HETATM   19  C   UNK     0      -3.413  -8.495  -6.461  0.00  0.00     0.217 C 
HETATM   20  N   UNK     0      -2.767  -6.301  -6.941  0.00  0.00    -0.143 N 
HETATM   21  C   UNK     0      -4.447  -9.433  -6.168  0.00  0.00     0.044 A 
HETATM   22  O   UNK     0      -2.253  -8.899  -6.723  0.00  0.00    -0.285 OA
HETATM   23  C   UNK     0      -4.279 -10.823  -6.386  0.00  0.00     0.003 A 
HETATM   24  C   UNK     0      -5.687  -8.946  -5.666  0.00  0.00     0.044 A 
HETATM   25  C   UNK     0      -5.320 -11.720  -6.094  0.00  0.00     0.000 A 
HETATM   26  C   UNK     0      -6.531 -11.243  -5.566  0.00  0.00     0.000 A 
HETATM   27  C   UNK     0      -6.714  -9.866  -5.345  0.00  0.00     0.003 A 
HETATM   28  C   UNK     0      -5.860  -7.534  -5.525  0.00  0.00     0.215 C 
HETATM   29  O   UNK     0      -6.883  -7.073  -4.961  0.00  0.00    -0.285 OA
ENDBRANCH   1  17
TORSDOF 5
ENDMDL
MODEL 7
REMARK VINA RESULT:      -7.0      2.686      5.889
REMARK  5 active torsions:
REMARK  status: ('A' for Active; 'I' for Inactive)
REMARK    1  A    between atoms: C_9  and  N_13 
REMARK       I    between atoms: N_13  and  C_14 
REMARK    2  A    between atoms: C_14  and  C_17 
REMARK    3  A    between atoms: C_17  and  N_18 
REMARK    4  A    between atoms: C_20  and  C_23 
REMARK    5  A    between atoms: C_23  and  C_24 
ROOT
HETATM    1  N   UNK     0      -5.152  -4.529  -4.890  0.00  0.00    -0.205 NA
HETATM    2  C   UNK     0      -4.394  -4.592  -3.757  0.00  0.00     0.281 C 
HETATM    3  O   UNK     0      -4.205  -3.504  -3.168  0.00  0.00    -0.268 OA
ENDROOT
BRANCH   2   4
HETATM    4  C   UNK     0      -3.819  -5.817  -3.142  0.00  0.00     0.219 C 
BRANCH   4   5
HETATM    5  N   UNK     0      -4.815  -6.555  -2.426  0.00  0.00    -0.221 N 
HETATM    6  C   UNK     0      -4.910  -7.892  -2.311  0.00  0.00     0.114 A 
HETATM    7  C   UNK     0      -6.009  -8.134  -1.497  0.00  0.00     0.101 A 
HETATM    8  N   UNK     0      -6.519  -6.930  -1.193  0.00  0.00    -0.133 NA
HETATM    9  N   UNK     0      -5.786  -6.017  -1.753  0.00  0.00    -0.064 NA
BRANCH   7  10
HETATM   10  C   UNK     0      -6.536  -9.435  -1.026  0.00  0.00     0.049 C 
BRANCH  10  11
HETATM   11  C   UNK     0      -7.165 -10.329  -2.148  0.00  0.00     0.006 C 
HETATM   12  C   UNK     0      -6.057 -11.124  -2.916  0.00  0.00     0.000 C 
HETATM   13  C   UNK     0      -6.622 -11.987  -4.079  0.00  0.00     0.000 C 
HETATM   14  C   UNK     0      -7.474 -11.142  -5.061  0.00  0.00     0.000 C 
HETATM   15  C   UNK     0      -8.593 -10.371  -4.318  0.00  0.00     0.000 C 
HETATM   16  C   UNK     0      -8.023  -9.503  -3.163  0.00  0.00     0.000 C 
ENDBRANCH  10  11
ENDBRANCH   7  10
ENDBRANCH   4   5
ENDBRANCH   2   4
BRANCH   1  17
HETATM   17  C   UNK     0      -5.516  -5.557  -5.667  0.00  0.00     0.146 C 
HETATM   18  C   UNK     0      -4.642  -6.018  -6.595  0.00  0.00     0.162 C 
HETATM   19  C   UNK     0      -4.990  -7.066  -7.456  0.00  0.00     0.217 C 
HETATM   20  N   UNK     0      -3.441  -5.472  -6.736  0.00  0.00    -0.143 N 
HETATM   21  C   UNK     0      -6.334  -7.542  -7.492  0.00  0.00     0.044 A 
HETATM   22  O   UNK     0      -4.120  -7.579  -8.204  0.00  0.00    -0.285 OA
HETATM   23  C   UNK     0      -6.789  -8.420  -8.507  0.00  0.00     0.003 A 
HETATM   24  C   UNK     0      -7.242  -7.096  -6.489  0.00  0.00     0.044 A 
HETATM   25  C   UNK     0      -8.122  -8.864  -8.518  0.00  0.00     0.000 A 
HETATM   26  C   UNK     0      -9.009  -8.452  -7.509  0.00  0.00     0.000 A 
HETATM   27  C   UNK     0      -8.572  -7.580  -6.495  0.00  0.00     0.003 A 
HETATM   28  C   UNK     0      -6.780  -6.153  -5.520  0.00  0.00     0.215 C 
HETATM   29  O   UNK     0      -7.504  -5.839  -4.544  0.00  0.00    -0.285 OA
ENDBRANCH   1  17
TORSDOF 5
ENDMDL
MODEL 8
REMARK VINA RESULT:      -7.0      2.518      5.136
REMARK  5 active torsions:
REMARK  status: ('A' for Active; 'I' for Inactive)
REMARK    1  A    between atoms: C_9  and  N_13 
REMARK       I    between atoms: N_13  and  C_14 
REMARK    2  A    between atoms: C_14  and  C_17 
REMARK    3  A    between atoms: C_17  and  N_18 
REMARK    4  A    between atoms: C_20  and  C_23 
REMARK    5  A    between atoms: C_23  and  C_24 
ROOT
HETATM    1  N   UNK     0      -5.067  -6.254  -7.193  0.00  0.00    -0.205 NA
HETATM    2  C   UNK     0      -3.911  -6.605  -7.828  0.00  0.00     0.281 C 
HETATM    3  O   UNK     0      -3.941  -6.558  -9.078  0.00  0.00    -0.268 OA
ENDROOT
BRANCH   2   4
HETATM    4  C   UNK     0      -2.627  -6.988  -7.184  0.00  0.00     0.219 C 
BRANCH   4   5
HETATM    5  N   UNK     0      -2.801  -8.103  -6.303  0.00  0.00    -0.221 N 
HETATM    6  C   UNK     0      -2.494  -8.160  -4.994  0.00  0.00     0.114 A 
HETATM    7  C   UNK     0      -2.874  -9.423  -4.562  0.00  0.00     0.101 A 
HETATM    8  N   UNK     0      -3.363 -10.054  -5.641  0.00  0.00    -0.133 NA
HETATM    9  N   UNK     0      -3.311  -9.243  -6.653  0.00  0.00    -0.064 NA
BRANCH   7  10
HETATM   10  C   UNK     0      -2.788  -9.995  -3.198  0.00  0.00     0.049 C 
BRANCH  10  11
HETATM   11  C   UNK     0      -3.810 -11.145  -2.907  0.00  0.00     0.006 C 
HETATM   12  C   UNK     0      -4.330 -11.072  -1.433  0.00  0.00     0.000 C 
HETATM   13  C   UNK     0      -5.307 -12.226  -1.073  0.00  0.00     0.000 C 
HETATM   14  C   UNK     0      -4.689 -13.616  -1.370  0.00  0.00     0.000 C 
HETATM   15  C   UNK     0      -4.195 -13.713  -2.835  0.00  0.00     0.000 C 
HETATM   16  C   UNK     0      -3.212 -12.564  -3.187  0.00  0.00     0.000 C 
ENDBRANCH  10  11
ENDBRANCH   7  10
ENDBRANCH   4   5
ENDBRANCH   2   4
BRANCH   1  17
HETATM   17  C   UNK     0      -5.268  -6.195  -5.871  0.00  0.00     0.146 C 
HETATM   18  C   UNK     0      -4.829  -5.108  -5.188  0.00  0.00     0.162 C 
HETATM   19  C   UNK     0      -4.983  -5.017  -3.800  0.00  0.00     0.217 C 
HETATM   20  N   UNK     0      -4.215  -4.111  -5.812  0.00  0.00    -0.143 N 
HETATM   21  C   UNK     0      -5.438  -6.148  -3.058  0.00  0.00     0.044 A 
HETATM   22  O   UNK     0      -4.708  -3.945  -3.207  0.00  0.00    -0.285 OA
HETATM   23  C   UNK     0      -5.376  -6.187  -1.644  0.00  0.00     0.003 A 
HETATM   24  C   UNK     0      -5.945  -7.272  -3.771  0.00  0.00     0.044 A 
HETATM   25  C   UNK     0      -5.826  -7.320  -0.943  0.00  0.00     0.000 A 
HETATM   26  C   UNK     0      -6.358  -8.414  -1.645  0.00  0.00     0.000 A 
HETATM   27  C   UNK     0      -6.426  -8.390  -3.049  0.00  0.00     0.003 A 
HETATM   28  C   UNK     0      -5.928  -7.239  -5.200  0.00  0.00     0.215 C 
HETATM   29  O   UNK     0      -6.487  -8.147  -5.863  0.00  0.00    -0.285 OA
ENDBRANCH   1  17
TORSDOF 5
ENDMDL
MODEL 9
REMARK VINA RESULT:      -6.9      2.762      6.556
REMARK  5 active torsions:
REMARK  status: ('A' for Active; 'I' for Inactive)
REMARK    1  A    between atoms: C_9  and  N_13 
REMARK       I    between atoms: N_13  and  C_14 
REMARK    2  A    between atoms: C_14  and  C_17 
REMARK    3  A    between atoms: C_17  and  N_18 
REMARK    4  A    between atoms: C_20  and  C_23 
REMARK    5  A    between atoms: C_23  and  C_24 
ROOT
HETATM    1  N   UNK     0      -5.147  -4.483  -4.862  0.00  0.00    -0.205 NA
HETATM    2  C   UNK     0      -4.403  -4.555  -3.720  0.00  0.00     0.281 C 
HETATM    3  O   UNK     0      -4.236  -3.474  -3.111  0.00  0.00    -0.268 OA
ENDROOT
BRANCH   2   4
HETATM    4  C   UNK     0      -3.822  -5.782  -3.117  0.00  0.00     0.219 C 
BRANCH   4   5
HETATM    5  N   UNK     0      -4.838  -6.604  -2.531  0.00  0.00    -0.221 N 
HETATM    6  C   UNK     0      -5.007  -7.928  -2.695  0.00  0.00     0.114 A 
HETATM    7  C   UNK     0      -6.093  -8.281  -1.906  0.00  0.00     0.101 A 
HETATM    8  N   UNK     0      -6.524  -7.145  -1.335  0.00  0.00    -0.133 NA
HETATM    9  N   UNK     0      -5.756  -6.172  -1.722  0.00  0.00    -0.064 NA
BRANCH   7  10
HETATM   10  C   UNK     0      -6.681  -9.625  -1.696  0.00  0.00     0.049 C 
BRANCH  10  11
HETATM   11  C   UNK     0      -6.415 -10.239  -0.280  0.00  0.00     0.006 C 
HETATM   12  C   UNK     0      -4.896 -10.563  -0.087  0.00  0.00     0.000 C 
HETATM   13  C   UNK     0      -4.584 -11.228   1.283  0.00  0.00     0.000 C 
HETATM   14  C   UNK     0      -5.450 -12.491   1.521  0.00  0.00     0.000 C 
HETATM   15  C   UNK     0      -6.959 -12.179   1.361  0.00  0.00     0.000 C 
HETATM   16  C   UNK     0      -7.268 -11.524  -0.013  0.00  0.00     0.000 C 
ENDBRANCH  10  11
ENDBRANCH   7  10
ENDBRANCH   4   5
ENDBRANCH   2   4
BRANCH   1  17
HETATM   17  C   UNK     0      -5.488  -5.502  -5.661  0.00  0.00     0.146 C 
HETATM   18  C   UNK     0      -4.597  -5.936  -6.587  0.00  0.00     0.162 C 
HETATM   19  C   UNK     0      -4.921  -6.974  -7.469  0.00  0.00     0.217 C 
HETATM   20  N   UNK     0      -3.402  -5.370  -6.705  0.00  0.00    -0.143 N 
HETATM   21  C   UNK     0      -6.258  -7.467  -7.528  0.00  0.00     0.044 A 
HETATM   22  O   UNK     0      -4.037  -7.462  -8.215  0.00  0.00    -0.285 OA
HETATM   23  C   UNK     0      -6.690  -8.334  -8.561  0.00  0.00     0.003 A 
HETATM   24  C   UNK     0      -7.183  -7.051  -6.527  0.00  0.00     0.044 A 
HETATM   25  C   UNK     0      -8.017  -8.796  -8.595  0.00  0.00     0.000 A 
HETATM   26  C   UNK     0      -8.919  -8.414  -7.589  0.00  0.00     0.000 A 
HETATM   27  C   UNK     0      -8.506  -7.554  -6.556  0.00  0.00     0.003 A 
HETATM   28  C   UNK     0      -6.745  -6.118  -5.537  0.00  0.00     0.215 C 
HETATM   29  O   UNK     0      -7.484  -5.831  -4.564  0.00  0.00    -0.285 OA
ENDBRANCH   1  17
TORSDOF 5
ENDMDL
