MODEL 1
REMARK VINA RESULT:      -7.7      0.000      0.000
REMARK  3 active torsions:
REMARK  status: ('A' for Active; 'I' for Inactive)
REMARK    1  A    between atoms: C_9  and  N_13 
REMARK       I    between atoms: N_13  and  C_14 
REMARK    2  A    between atoms: C_14  and  C_17 
REMARK    3  A    between atoms: C_17  and  N_18 
ROOT
HETATM    1  N   UNK     0      -5.876   2.670   9.686  0.00  0.00    -0.205 NA
HETATM    2  C   UNK     0      -4.775   3.397  10.037  0.00  0.00     0.281 C 
HETATM    3  O   UNK     0      -4.313   4.297   9.294  0.00  0.00    -0.268 OA
ENDROOT
BRANCH   1   4
HETATM    4  C   UNK     0      -6.613   2.833   8.574  0.00  0.00     0.146 A 
HETATM    5  C   UNK     0      -7.732   3.598   8.630  0.00  0.00     0.162 A 
HETATM    6  C   UNK     0      -8.543   3.786   7.502  0.00  0.00     0.217 A 
HETATM    7  N   UNK     0      -8.097   4.176   9.768  0.00  0.00    -0.143 N 
HETATM    8  C   UNK     0      -8.250   3.104   6.284  0.00  0.00     0.044 A 
HETATM    9  O   UNK     0      -9.531   4.558   7.565  0.00  0.00    -0.285 OA
HETATM   10  C   UNK     0      -9.112   3.174   5.161  0.00  0.00     0.003 A 
HETATM   11  C   UNK     0      -7.059   2.331   6.202  0.00  0.00     0.044 A 
HETATM   12  C   UNK     0      -8.794   2.496   3.972  0.00  0.00     0.000 A 
HETATM   13  C   UNK     0      -7.608   1.750   3.884  0.00  0.00     0.000 A 
HETATM   14  C   UNK     0      -6.743   1.671   4.989  0.00  0.00     0.003 A 
HETATM   15  C   UNK     0      -6.219   2.246   7.356  0.00  0.00     0.215 A 
HETATM   16  O   UNK     0      -5.106   1.671   7.271  0.00  0.00    -0.285 OA
ENDBRANCH   1   4
BRANCH   2  17
HETATM   17  C   UNK     0      -4.105   3.136  11.327  0.00  0.00     0.219 C 
BRANCH  17  18
HETATM   18  N   UNK     0      -2.802   2.554  11.207  0.00  0.00    -0.221 N 
HETATM   19  C   UNK     0      -1.765   2.689  12.052  0.00  0.00     0.118 A 
HETATM   20  C   UNK     0      -0.772   1.831  11.593  0.00  0.00     0.123 A 
HETATM   21  N   UNK     0      -1.262   1.271  10.475  0.00  0.00    -0.129 NA
HETATM   22  C   UNK     0       0.487   1.547  12.177  0.00  0.00     0.021 A 
HETATM   23  N   UNK     0      -2.459   1.723  10.272  0.00  0.00    -0.063 NA
HETATM   24  C   UNK     0       1.035   0.243  12.089  0.00  0.00     0.002 A 
HETATM   25  C   UNK     0       1.221   2.543  12.865  0.00  0.00     0.002 A 
HETATM   26  C   UNK     0       2.278  -0.057  12.677  0.00  0.00     0.000 A 
HETATM   27  C   UNK     0       2.999   0.946  13.348  0.00  0.00     0.000 A 
HETATM   28  C   UNK     0       2.469   2.246  13.442  0.00  0.00     0.000 A 
ENDBRANCH  17  18
ENDBRANCH   2  17
TORSDOF 3
ENDMDL
MODEL 2
REMARK VINA RESULT:      -7.7      9.857     10.802
REMARK  3 active torsions:
REMARK  status: ('A' for Active; 'I' for Inactive)
REMARK    1  A    between atoms: C_9  and  N_13 
REMARK       I    between atoms: N_13  and  C_14 
REMARK    2  A    between atoms: C_14  and  C_17 
REMARK    3  A    between atoms: C_17  and  N_18 
ROOT
HETATM    1  N   UNK     0       2.670   9.606   4.693  0.00  0.00    -0.205 NA
HETATM    2  C   UNK     0       3.082   8.917   5.797  0.00  0.00     0.281 C 
HETATM    3  O   UNK     0       2.485   9.013   6.897  0.00  0.00    -0.268 OA
ENDROOT
BRANCH   1   4
HETATM    4  C   UNK     0       1.596  10.410   4.614  0.00  0.00     0.146 A 
HETATM    5  C   UNK     0       1.741  11.732   4.879  0.00  0.00     0.162 A 
HETATM    6  C   UNK     0       0.649  12.610   4.827  0.00  0.00     0.217 A 
HETATM    7  N   UNK     0       2.927  12.227   5.214  0.00  0.00    -0.143 N 
HETATM    8  C   UNK     0      -0.663  12.111   4.572  0.00  0.00     0.044 A 
HETATM    9  O   UNK     0       0.828  13.840   5.006  0.00  0.00    -0.285 OA
HETATM   10  C   UNK     0      -1.806  12.947   4.631  0.00  0.00     0.003 A 
HETATM   11  C   UNK     0      -0.821  10.734   4.255  0.00  0.00     0.044 A 
HETATM   12  C   UNK     0      -3.085  12.427   4.370  0.00  0.00     0.000 A 
HETATM   13  C   UNK     0      -3.239  11.073   4.035  0.00  0.00     0.000 A 
HETATM   14  C   UNK     0      -2.116  10.231   3.973  0.00  0.00     0.003 A 
HETATM   15  C   UNK     0       0.340   9.900   4.233  0.00  0.00     0.215 A 
HETATM   16  O   UNK     0       0.243   8.712   3.839  0.00  0.00    -0.285 OA
ENDBRANCH   1   4
BRANCH   2  17
HETATM   17  C   UNK     0       4.254   8.023   5.710  0.00  0.00     0.219 C 
BRANCH  17  18
HETATM   18  N   UNK     0       5.126   8.081   6.844  0.00  0.00    -0.221 N 
HETATM   19  C   UNK     0       5.484   7.069   7.654  0.00  0.00     0.118 A 
HETATM   20  C   UNK     0       6.448   7.579   8.515  0.00  0.00     0.123 A 
HETATM   21  N   UNK     0       6.574   8.878   8.194  0.00  0.00    -0.129 NA
HETATM   22  C   UNK     0       7.196   6.897   9.505  0.00  0.00     0.021 A 
HETATM   23  N   UNK     0       5.777   9.143   7.209  0.00  0.00    -0.063 NA
HETATM   24  C   UNK     0       8.541   7.261   9.760  0.00  0.00     0.002 A 
HETATM   25  C   UNK     0       6.630   5.837  10.254  0.00  0.00     0.002 A 
HETATM   26  C   UNK     0       9.301   6.581  10.731  0.00  0.00     0.000 A 
HETATM   27  C   UNK     0       8.721   5.538  11.473  0.00  0.00     0.000 A 
HETATM   28  C   UNK     0       7.386   5.166  11.234  0.00  0.00     0.000 A 
ENDBRANCH  17  18
ENDBRANCH   2  17
TORSDOF 3
ENDMDL
MODEL 3
REMARK VINA RESULT:      -7.6     18.043     20.203
REMARK  3 active torsions:
REMARK  status: ('A' for Active; 'I' for Inactive)
REMARK    1  A    between atoms: C_9  and  N_13 
REMARK       I    between atoms: N_13  and  C_14 
REMARK    2  A    between atoms: C_14  and  C_17 
REMARK    3  A    between atoms: C_17  and  N_18 
ROOT
HETATM    1  N   UNK     0       1.073   6.921  -7.182  0.00  0.00    -0.205 NA
HETATM    2  C   UNK     0       1.939   6.493  -8.147  0.00  0.00     0.281 C 
HETATM    3  O   UNK     0       2.653   7.295  -8.797  0.00  0.00    -0.268 OA
ENDROOT
BRANCH   1   4
HETATM    4  C   UNK     0       0.899   8.192  -6.779  0.00  0.00     0.146 A 
HETATM    5  C   UNK     0      -0.112   8.921  -7.313  0.00  0.00     0.162 A 
HETATM    6  C   UNK     0      -0.326  10.255  -6.937  0.00  0.00     0.217 A 
HETATM    7  N   UNK     0      -0.920   8.390  -8.223  0.00  0.00    -0.143 N 
HETATM    8  C   UNK     0       0.575  10.903  -6.041  0.00  0.00     0.044 A 
HETATM    9  O   UNK     0      -1.314  10.881  -7.394  0.00  0.00    -0.285 OA
HETATM   10  C   UNK     0       0.463  12.281  -5.733  0.00  0.00     0.003 A 
HETATM   11  C   UNK     0       1.616  10.137  -5.446  0.00  0.00     0.044 A 
HETATM   12  C   UNK     0       1.362  12.890  -4.841  0.00  0.00     0.000 A 
HETATM   13  C   UNK     0       2.376  12.131  -4.237  0.00  0.00     0.000 A 
HETATM   14  C   UNK     0       2.501  10.762  -4.532  0.00  0.00     0.003 A 
HETATM   15  C   UNK     0       1.733   8.755  -5.794  0.00  0.00     0.215 A 
HETATM   16  O   UNK     0       2.565   8.033  -5.193  0.00  0.00    -0.285 OA
ENDBRANCH   1   4
BRANCH   2  17
HETATM   17  C   UNK     0       2.059   5.051  -8.438  0.00  0.00     0.219 C 
BRANCH  17  18
HETATM   18  N   UNK     0       0.835   4.426  -8.839  0.00  0.00    -0.221 N 
HETATM   19  C   UNK     0       0.202   4.547 -10.019  0.00  0.00     0.118 A 
HETATM   20  C   UNK     0      -0.859   3.649  -9.988  0.00  0.00     0.123 A 
HETATM   21  N   UNK     0      -0.820   3.079  -8.773  0.00  0.00    -0.129 NA
HETATM   22  C   UNK     0      -1.781   3.339 -11.017  0.00  0.00     0.021 A 
HETATM   23  N   UNK     0       0.187   3.563  -8.117  0.00  0.00    -0.063 NA
HETATM   24  C   UNK     0      -2.271   2.017 -11.160  0.00  0.00     0.002 A 
HETATM   25  C   UNK     0      -2.227   4.328 -11.927  0.00  0.00     0.002 A 
HETATM   26  C   UNK     0      -3.177   1.692 -12.188  0.00  0.00     0.000 A 
HETATM   27  C   UNK     0      -3.619   2.687 -13.077  0.00  0.00     0.000 A 
HETATM   28  C   UNK     0      -3.143   4.004 -12.947  0.00  0.00     0.000 A 
ENDBRANCH  17  18
ENDBRANCH   2  17
TORSDOF 3
ENDMDL
MODEL 4
REMARK VINA RESULT:      -7.6     14.111     16.076
REMARK  3 active torsions:
REMARK  status: ('A' for Active; 'I' for Inactive)
REMARK    1  A    between atoms: C_9  and  N_13 
REMARK       I    between atoms: N_13  and  C_14 
REMARK    2  A    between atoms: C_14  and  C_17 
REMARK    3  A    between atoms: C_17  and  N_18 
ROOT
HETATM    1  N   UNK     0      -4.625 -10.006  -1.484  0.00  0.00    -0.205 NA
HETATM    2  C   UNK     0      -5.491 -11.049  -1.651  0.00  0.00     0.281 C 
HETATM    3  O   UNK     0      -6.427 -11.004  -2.486  0.00  0.00    -0.268 OA
ENDROOT
BRANCH   1   4
HETATM    4  C   UNK     0      -4.623  -8.858  -2.182  0.00  0.00     0.146 A 
HETATM    5  C   UNK     0      -5.329  -7.799  -1.713  0.00  0.00     0.162 A 
HETATM    6  C   UNK     0      -5.371  -6.585  -2.412  0.00  0.00     0.217 A 
HETATM    7  N   UNK     0      -6.017  -7.895  -0.582  0.00  0.00    -0.143 N 
HETATM    8  C   UNK     0      -4.734  -6.463  -3.683  0.00  0.00     0.044 A 
HETATM    9  O   UNK     0      -5.974  -5.600  -1.918  0.00  0.00    -0.285 OA
HETATM   10  C   UNK     0      -4.856  -5.294  -4.473  0.00  0.00     0.003 A 
HETATM   11  C   UNK     0      -3.959  -7.554  -4.166  0.00  0.00     0.044 A 
HETATM   12  C   UNK     0      -4.212  -5.202  -5.718  0.00  0.00     0.000 A 
HETATM   13  C   UNK     0      -3.429  -6.269  -6.185  0.00  0.00     0.000 A 
HETATM   14  C   UNK     0      -3.298  -7.436  -5.414  0.00  0.00     0.003 A 
HETATM   15  C   UNK     0      -3.874  -8.738  -3.369  0.00  0.00     0.215 A 
HETATM   16  O   UNK     0      -3.101  -9.664  -3.715  0.00  0.00    -0.285 OA
ENDBRANCH   1   4
BRANCH   2  17
HETATM   17  C   UNK     0      -5.329 -12.275  -0.843  0.00  0.00     0.219 C 
BRANCH  17  18
HETATM   18  N   UNK     0      -5.313 -12.051   0.571  0.00  0.00    -0.221 N 
HETATM   19  C   UNK     0      -4.316 -12.321   1.431  0.00  0.00     0.118 A 
HETATM   20  C   UNK     0      -4.708 -11.803   2.660  0.00  0.00     0.123 A 
HETATM   21  N   UNK     0      -5.936 -11.295   2.467  0.00  0.00    -0.129 NA
HETATM   22  C   UNK     0      -3.977 -11.760   3.872  0.00  0.00     0.021 A 
HETATM   23  N   UNK     0      -6.267 -11.463   1.226  0.00  0.00    -0.063 NA
HETATM   24  C   UNK     0      -4.114 -10.655   4.748  0.00  0.00     0.002 A 
HETATM   25  C   UNK     0      -3.092 -12.804   4.235  0.00  0.00     0.002 A 
HETATM   26  C   UNK     0      -3.383 -10.592   5.950  0.00  0.00     0.000 A 
HETATM   27  C   UNK     0      -2.516 -11.642   6.301  0.00  0.00     0.000 A 
HETATM   28  C   UNK     0      -2.371 -12.747   5.442  0.00  0.00     0.000 A 
ENDBRANCH  17  18
ENDBRANCH   2  17
TORSDOF 3
ENDMDL
MODEL 5
REMARK VINA RESULT:      -7.6     14.935     17.853
REMARK  3 active torsions:
REMARK  status: ('A' for Active; 'I' for Inactive)
REMARK    1  A    between atoms: C_9  and  N_13 
REMARK       I    between atoms: N_13  and  C_14 
REMARK    2  A    between atoms: C_14  and  C_17 
REMARK    3  A    between atoms: C_17  and  N_18 
ROOT
HETATM    1  N   UNK     0      -6.042 -11.117   0.872  0.00  0.00    -0.205 NA
HETATM    2  C   UNK     0      -5.671 -10.312  -0.167  0.00  0.00     0.281 C 
HETATM    3  O   UNK     0      -4.483 -10.258  -0.569  0.00  0.00    -0.268 OA
ENDROOT
BRANCH   1   4
HETATM    4  C   UNK     0      -5.241 -11.955   1.551  0.00  0.00     0.146 A 
HETATM    5  C   UNK     0      -5.073 -13.221   1.094  0.00  0.00     0.162 A 
HETATM    6  C   UNK     0      -4.260 -14.139   1.775  0.00  0.00     0.217 A 
HETATM    7  N   UNK     0      -5.691 -13.629  -0.007  0.00  0.00    -0.143 N 
HETATM    8  C   UNK     0      -3.656 -13.783   3.017  0.00  0.00     0.044 A 
HETATM    9  O   UNK     0      -4.065 -15.281   1.289  0.00  0.00    -0.285 OA
HETATM   10  C   UNK     0      -2.930 -14.720   3.793  0.00  0.00     0.003 A 
HETATM   11  C   UNK     0      -3.795 -12.447   3.486  0.00  0.00     0.044 A 
HETATM   12  C   UNK     0      -2.341 -14.337   5.010  0.00  0.00     0.000 A 
HETATM   13  C   UNK     0      -2.459 -13.014   5.462  0.00  0.00     0.000 A 
HETATM   14  C   UNK     0      -3.177 -12.072   4.705  0.00  0.00     0.003 A 
HETATM   15  C   UNK     0      -4.560 -11.524   2.705  0.00  0.00     0.215 A 
HETATM   16  O   UNK     0      -4.595 -10.314   3.035  0.00  0.00    -0.285 OA
ENDBRANCH   1   4
BRANCH   2  17
HETATM   17  C   UNK     0      -6.684  -9.486  -0.854  0.00  0.00     0.219 C 
BRANCH  17  18
HETATM   18  N   UNK     0      -6.172  -8.276  -1.422  0.00  0.00    -0.221 N 
HETATM   19  C   UNK     0      -5.609  -8.113  -2.632  0.00  0.00     0.118 A 
HETATM   20  C   UNK     0      -5.403  -6.748  -2.788  0.00  0.00     0.123 A 
HETATM   21  N   UNK     0      -5.816  -6.183  -1.641  0.00  0.00    -0.129 NA
HETATM   22  C   UNK     0      -4.907  -6.054  -3.919  0.00  0.00     0.021 A 
HETATM   23  N   UNK     0      -6.258  -7.112  -0.854  0.00  0.00    -0.063 NA
HETATM   24  C   UNK     0      -5.408  -4.769  -4.243  0.00  0.00     0.002 A 
HETATM   25  C   UNK     0      -3.914  -6.623  -4.753  0.00  0.00     0.002 A 
HETATM   26  C   UNK     0      -4.935  -4.075  -5.372  0.00  0.00     0.000 A 
HETATM   27  C   UNK     0      -3.941  -4.648  -6.185  0.00  0.00     0.000 A 
HETATM   28  C   UNK     0      -3.432  -5.923  -5.875  0.00  0.00     0.000 A 
ENDBRANCH  17  18
ENDBRANCH   2  17
TORSDOF 3
ENDMDL
MODEL 6
REMARK VINA RESULT:      -7.6     17.855     19.782
REMARK  3 active torsions:
REMARK  status: ('A' for Active; 'I' for Inactive)
REMARK    1  A    between atoms: C_9  and  N_13 
REMARK       I    between atoms: N_13  and  C_14 
REMARK    2  A    between atoms: C_14  and  C_17 
REMARK    3  A    between atoms: C_17  and  N_18 
ROOT
HETATM    1  N   UNK     0       1.281   5.963  -7.680  0.00  0.00    -0.205 NA
HETATM    2  C   UNK     0       0.571   7.076  -7.330  0.00  0.00     0.281 C 
HETATM    3  O   UNK     0      -0.322   7.550  -8.073  0.00  0.00    -0.268 OA
ENDROOT
BRANCH   1   4
HETATM    4  C   UNK     0       1.105   5.227  -8.791  0.00  0.00     0.146 A 
HETATM    5  C   UNK     0       1.798   5.549  -9.912  0.00  0.00     0.162 A 
HETATM    6  C   UNK     0       1.638   4.824 -11.101  0.00  0.00     0.217 A 
HETATM    7  N   UNK     0       2.637   6.579  -9.914  0.00  0.00    -0.143 N 
HETATM    8  C   UNK     0       0.675   3.775 -11.180  0.00  0.00     0.044 A 
HETATM    9  O   UNK     0       2.346   5.100 -12.101  0.00  0.00    -0.285 OA
HETATM   10  C   UNK     0       0.399   3.101 -12.396  0.00  0.00     0.003 A 
HETATM   11  C   UNK     0      -0.029   3.403 -10.001  0.00  0.00     0.044 A 
HETATM   12  C   UNK     0      -0.551   2.067 -12.440  0.00  0.00     0.000 A 
HETATM   13  C   UNK     0      -1.230   1.685 -11.273  0.00  0.00     0.000 A 
HETATM   14  C   UNK     0      -0.969   2.344 -10.059  0.00  0.00     0.003 A 
HETATM   15  C   UNK     0       0.239   4.117  -8.792  0.00  0.00     0.215 A 
HETATM   16  O   UNK     0      -0.279   3.729  -7.715  0.00  0.00    -0.285 OA
ENDBRANCH   1   4
BRANCH   2  17
HETATM   17  C   UNK     0       0.843   7.744  -6.042  0.00  0.00     0.219 C 
BRANCH  17  18
HETATM   18  N   UNK     0       1.708   8.880  -6.138  0.00  0.00    -0.221 N 
HETATM   19  C   UNK     0       1.464  10.133  -5.716  0.00  0.00     0.118 A 
HETATM   20  C   UNK     0       2.644  10.844  -5.895  0.00  0.00     0.123 A 
HETATM   21  N   UNK     0       3.508   9.982  -6.456  0.00  0.00    -0.129 NA
HETATM   22  C   UNK     0       2.930  12.184  -5.535  0.00  0.00     0.021 A 
HETATM   23  N   UNK     0       2.924   8.834  -6.591  0.00  0.00    -0.063 NA
HETATM   24  C   UNK     0       4.226  12.540  -5.086  0.00  0.00     0.002 A 
HETATM   25  C   UNK     0       1.938  13.192  -5.605  0.00  0.00     0.002 A 
HETATM   26  C   UNK     0       4.520  13.865  -4.712  0.00  0.00     0.000 A 
HETATM   27  C   UNK     0       3.527  14.857  -4.796  0.00  0.00     0.000 A 
HETATM   28  C   UNK     0       2.236  14.519  -5.242  0.00  0.00     0.000 A 
ENDBRANCH  17  18
ENDBRANCH   2  17
TORSDOF 3
ENDMDL
MODEL 7
REMARK VINA RESULT:      -7.6     14.060     16.226
REMARK  3 active torsions:
REMARK  status: ('A' for Active; 'I' for Inactive)
REMARK    1  A    between atoms: C_9  and  N_13 
REMARK       I    between atoms: N_13  and  C_14 
REMARK    2  A    between atoms: C_14  and  C_17 
REMARK    3  A    between atoms: C_17  and  N_18 
ROOT
HETATM    1  N   UNK     0      -4.562 -10.785  -0.981  0.00  0.00    -0.205 NA
HETATM    2  C   UNK     0      -5.571 -11.705  -0.999  0.00  0.00     0.281 C 
HETATM    3  O   UNK     0      -6.479 -11.674  -1.864  0.00  0.00    -0.268 OA
ENDROOT
BRANCH   1   4
HETATM    4  C   UNK     0      -4.379  -9.791  -1.868  0.00  0.00     0.146 A 
HETATM    5  C   UNK     0      -3.591 -10.009  -2.950  0.00  0.00     0.162 A 
HETATM    6  C   UNK     0      -3.357  -9.000  -3.895  0.00  0.00     0.217 A 
HETATM    7  N   UNK     0      -3.006 -11.186  -3.132  0.00  0.00    -0.143 N 
HETATM    8  C   UNK     0      -3.879  -7.688  -3.692  0.00  0.00     0.044 A 
HETATM    9  O   UNK     0      -2.683  -9.253  -4.924  0.00  0.00    -0.285 OA
HETATM   10  C   UNK     0      -3.563  -6.614  -4.560  0.00  0.00     0.003 A 
HETATM   11  C   UNK     0      -4.738  -7.459  -2.581  0.00  0.00     0.044 A 
HETATM   12  C   UNK     0      -4.099  -5.334  -4.337  0.00  0.00     0.000 A 
HETATM   13  C   UNK     0      -4.963  -5.112  -3.254  0.00  0.00     0.000 A 
HETATM   14  C   UNK     0      -5.285  -6.167  -2.383  0.00  0.00     0.003 A 
HETATM   15  C   UNK     0      -5.018  -8.548  -1.697  0.00  0.00     0.215 A 
HETATM   16  O   UNK     0      -5.866  -8.402  -0.783  0.00  0.00    -0.285 OA
ENDBRANCH   1   4
BRANCH   2  17
HETATM   17  C   UNK     0      -5.602 -12.778   0.015  0.00  0.00     0.219 C 
BRANCH  17  18
HETATM   18  N   UNK     0      -5.441 -12.322   1.362  0.00  0.00    -0.221 N 
HETATM   19  C   UNK     0      -4.363 -12.467   2.152  0.00  0.00     0.118 A 
HETATM   20  C   UNK     0      -4.625 -11.742   3.309  0.00  0.00     0.123 A 
HETATM   21  N   UNK     0      -5.864 -11.247   3.157  0.00  0.00    -0.129 NA
HETATM   22  C   UNK     0      -3.774 -11.513   4.417  0.00  0.00     0.021 A 
HETATM   23  N   UNK     0      -6.320 -11.612   2.001  0.00  0.00    -0.063 NA
HETATM   24  C   UNK     0      -3.815 -10.274   5.104  0.00  0.00     0.002 A 
HETATM   25  C   UNK     0      -2.861 -12.501   4.861  0.00  0.00     0.002 A 
HETATM   26  C   UNK     0      -2.965 -10.027   6.198  0.00  0.00     0.000 A 
HETATM   27  C   UNK     0      -2.072 -11.022   6.633  0.00  0.00     0.000 A 
HETATM   28  C   UNK     0      -2.020 -12.258   5.963  0.00  0.00     0.000 A 
ENDBRANCH  17  18
ENDBRANCH   2  17
TORSDOF 3
ENDMDL
MODEL 8
REMARK VINA RESULT:      -7.5     17.675     19.828
REMARK  3 active torsions:
REMARK  status: ('A' for Active; 'I' for Inactive)
REMARK    1  A    between atoms: C_9  and  N_13 
REMARK       I    between atoms: N_13  and  C_14 
REMARK    2  A    between atoms: C_14  and  C_17 
REMARK    3  A    between atoms: C_17  and  N_18 
ROOT
HETATM    1  N   UNK     0      12.592   2.627  -0.139  0.00  0.00    -0.205 NA
HETATM    2  C   UNK     0      13.952   2.673  -0.018  0.00  0.00     0.281 C 
HETATM    3  O   UNK     0      14.642   1.629   0.083  0.00  0.00    -0.268 OA
ENDROOT
BRANCH   1   4
HETATM    4  C   UNK     0      11.839   1.516  -0.207  0.00  0.00     0.146 A 
HETATM    5  C   UNK     0      11.265   1.038   0.926  0.00  0.00     0.162 A 
HETATM    6  C   UNK     0      10.484  -0.126   0.911  0.00  0.00     0.217 A 
HETATM    7  N   UNK     0      11.446   1.656   2.087  0.00  0.00    -0.143 N 
HETATM    8  C   UNK     0      10.343  -0.883  -0.290  0.00  0.00     0.044 A 
HETATM    9  O   UNK     0       9.906  -0.504   1.960  0.00  0.00    -0.285 OA
HETATM   10  C   UNK     0       9.664  -2.126  -0.317  0.00  0.00     0.003 A 
HETATM   11  C   UNK     0      10.908  -0.371  -1.491  0.00  0.00     0.044 A 
HETATM   12  C   UNK     0       9.537  -2.846  -1.517  0.00  0.00     0.000 A 
HETATM   13  C   UNK     0      10.074  -2.331  -2.706  0.00  0.00     0.000 A 
HETATM   14  C   UNK     0      10.752  -1.100  -2.697  0.00  0.00     0.003 A 
HETATM   15  C   UNK     0      11.619   0.869  -1.438  0.00  0.00     0.215 A 
HETATM   16  O   UNK     0      12.020   1.399  -2.502  0.00  0.00    -0.285 OA
ENDBRANCH   1   4
BRANCH   2  17
HETATM   17  C   UNK     0      14.645   3.976  -0.017  0.00  0.00     0.219 C 
BRANCH  17  18
HETATM   18  N   UNK     0      13.849   5.068  -0.492  0.00  0.00    -0.221 N 
HETATM   19  C   UNK     0      13.154   5.955   0.241  0.00  0.00     0.118 A 
HETATM   20  C   UNK     0      12.664   6.902  -0.650  0.00  0.00     0.123 A 
HETATM   21  N   UNK     0      13.060   6.496  -1.868  0.00  0.00    -0.129 NA
HETATM   22  C   UNK     0      11.936   8.083  -0.369  0.00  0.00     0.021 A 
HETATM   23  N   UNK     0      13.751   5.408  -1.741  0.00  0.00    -0.063 NA
HETATM   24  C   UNK     0      12.136   9.247  -1.153  0.00  0.00     0.002 A 
HETATM   25  C   UNK     0      11.004   8.137   0.696  0.00  0.00     0.002 A 
HETATM   26  C   UNK     0      11.429  10.433  -0.875  0.00  0.00     0.000 A 
HETATM   27  C   UNK     0      10.500  10.467   0.179  0.00  0.00     0.000 A 
HETATM   28  C   UNK     0      10.289   9.319   0.965  0.00  0.00     0.000 A 
ENDBRANCH  17  18
ENDBRANCH   2  17
TORSDOF 3
ENDMDL
MODEL 9
REMARK VINA RESULT:      -7.5     13.961     17.336
REMARK  3 active torsions:
REMARK  status: ('A' for Active; 'I' for Inactive)
REMARK    1  A    between atoms: C_9  and  N_13 
REMARK       I    between atoms: N_13  and  C_14 
REMARK    2  A    between atoms: C_14  and  C_17 
REMARK    3  A    between atoms: C_17  and  N_18 
ROOT
HETATM    1  N   UNK     0      -4.705 -11.655   1.132  0.00  0.00    -0.205 NA
HETATM    2  C   UNK     0      -5.968 -11.377   0.693  0.00  0.00     0.281 C 
HETATM    3  O   UNK     0      -6.961 -11.435   1.459  0.00  0.00    -0.268 OA
ENDROOT
BRANCH   1   4
HETATM    4  C   UNK     0      -4.354 -11.973   2.390  0.00  0.00     0.146 A 
HETATM    5  C   UNK     0      -4.109 -13.271   2.698  0.00  0.00     0.162 A 
HETATM    6  C   UNK     0      -3.755 -13.656   3.999  0.00  0.00     0.217 A 
HETATM    7  N   UNK     0      -4.215 -14.216   1.772  0.00  0.00    -0.143 N 
HETATM    8  C   UNK     0      -3.727 -12.694   5.052  0.00  0.00     0.044 A 
HETATM    9  O   UNK     0      -3.463 -14.854   4.238  0.00  0.00    -0.285 OA
HETATM   10  C   UNK     0      -3.494 -13.065   6.399  0.00  0.00     0.003 A 
HETATM   11  C   UNK     0      -3.945 -11.325   4.733  0.00  0.00     0.044 A 
HETATM   12  C   UNK     0      -3.466 -12.094   7.414  0.00  0.00     0.000 A 
HETATM   13  C   UNK     0      -3.659 -10.740   7.097  0.00  0.00     0.000 A 
HETATM   14  C   UNK     0      -3.893 -10.356   5.765  0.00  0.00     0.003 A 
HETATM   15  C   UNK     0      -4.212 -10.975   3.372  0.00  0.00     0.215 A 
HETATM   16  O   UNK     0      -4.287  -9.764   3.048  0.00  0.00    -0.285 OA
ENDBRANCH   1   4
BRANCH   2  17
HETATM   17  C   UNK     0      -6.186 -10.984  -0.713  0.00  0.00     0.219 C 
BRANCH  17  18
HETATM   18  N   UNK     0      -5.737  -9.662  -1.033  0.00  0.00    -0.221 N 
HETATM   19  C   UNK     0      -5.380  -9.188  -2.239  0.00  0.00     0.118 A 
HETATM   20  C   UNK     0      -5.159  -7.826  -2.075  0.00  0.00     0.123 A 
HETATM   21  N   UNK     0      -5.355  -7.579  -0.769  0.00  0.00    -0.129 NA
HETATM   22  C   UNK     0      -4.838  -6.860  -3.059  0.00  0.00     0.021 A 
HETATM   23  N   UNK     0      -5.689  -8.683  -0.181  0.00  0.00    -0.063 NA
HETATM   24  C   UNK     0      -5.344  -5.540  -2.955  0.00  0.00     0.002 A 
HETATM   25  C   UNK     0      -4.018  -7.183  -4.167  0.00  0.00     0.002 A 
HETATM   26  C   UNK     0      -5.044  -4.574  -3.934  0.00  0.00     0.000 A 
HETATM   27  C   UNK     0      -4.221  -4.908  -5.023  0.00  0.00     0.000 A 
HETATM   28  C   UNK     0      -3.708  -6.213  -5.139  0.00  0.00     0.000 A 
ENDBRANCH  17  18
ENDBRANCH   2  17
TORSDOF 3
ENDMDL
