MODEL 1
REMARK VINA RESULT:      -7.0      0.000      0.000
REMARK  6 active torsions:
REMARK  status: ('A' for Active; 'I' for Inactive)
REMARK    1  A    between atoms: C_9  and  N_13 
REMARK       I    between atoms: N_13  and  C_14 
REMARK    2  A    between atoms: C_14  and  C_17 
REMARK    3  A    between atoms: C_17  and  N_18 
REMARK    4  A    between atoms: C_20  and  C_23 
REMARK    5  A    between atoms: C_23  and  C_25 
REMARK    6  A    between atoms: C_25  and  C_26 
ROOT
HETATM    1  N   UNK     0      -3.916  -5.234  -5.335  0.00  0.00    -0.205 NA
HETATM    2  C   UNK     0      -5.224  -4.940  -5.075  0.00  0.00     0.281 C 
HETATM    3  O   UNK     0      -5.503  -3.723  -4.976  0.00  0.00    -0.268 OA
ENDROOT
BRANCH   1   4
HETATM    4  C   UNK     0      -3.408  -6.463  -5.475  0.00  0.00     0.146 C 
HETATM    5  C   UNK     0      -3.272  -6.991  -6.715  0.00  0.00     0.162 C 
HETATM    6  C   UNK     0      -2.864  -8.325  -6.877  0.00  0.00     0.217 C 
HETATM    7  N   UNK     0      -3.566  -6.260  -7.790  0.00  0.00    -0.143 N 
HETATM    8  C   UNK     0      -2.774  -9.189  -5.736  0.00  0.00     0.044 A 
HETATM    9  O   UNK     0      -2.631  -8.773  -8.027  0.00  0.00    -0.285 OA
HETATM   10  C   UNK     0      -2.610 -10.593  -5.857  0.00  0.00     0.003 A 
HETATM   11  C   UNK     0      -2.888  -8.614  -4.439  0.00  0.00     0.044 A 
HETATM   12  C   UNK     0      -2.606 -11.412  -4.715  0.00  0.00     0.000 A 
HETATM   13  C   UNK     0      -2.745 -10.844  -3.438  0.00  0.00     0.000 A 
HETATM   14  C   UNK     0      -2.876  -9.451  -3.297  0.00  0.00     0.003 A 
HETATM   15  C   UNK     0      -3.050  -7.203  -4.338  0.00  0.00     0.215 C 
HETATM   16  O   UNK     0      -2.896  -6.618  -3.238  0.00  0.00    -0.285 OA
ENDBRANCH   1   4
BRANCH   2  17
HETATM   17  C   UNK     0      -6.341  -5.910  -4.928  0.00  0.00     0.219 C 
BRANCH  17  18
HETATM   18  N   UNK     0      -6.281  -6.591  -3.674  0.00  0.00    -0.221 N 
HETATM   19  C   UNK     0      -6.318  -7.920  -3.480  0.00  0.00     0.114 A 
HETATM   20  C   UNK     0      -6.242  -8.118  -2.109  0.00  0.00     0.101 A 
HETATM   21  N   UNK     0      -6.143  -6.893  -1.567  0.00  0.00    -0.133 NA
HETATM   22  N   UNK     0      -6.166  -6.012  -2.519  0.00  0.00    -0.064 NA
BRANCH  20  23
HETATM   23  C   UNK     0      -6.296  -9.407  -1.371  0.00  0.00     0.044 C 
HETATM   24  C   UNK     0      -6.366 -10.597  -2.368  0.00  0.00     0.006 C 
BRANCH  23  25
HETATM   25  C   UNK     0      -5.095  -9.565  -0.386  0.00  0.00     0.006 C 
BRANCH  25  26
HETATM   26  C   UNK     0      -4.770 -11.045  -0.037  0.00  0.00     0.000 C 
HETATM   27  C   UNK     0      -4.676 -11.309   1.481  0.00  0.00     0.000 C 
ENDBRANCH  25  26
ENDBRANCH  23  25
ENDBRANCH  20  23
ENDBRANCH  17  18
ENDBRANCH   2  17
TORSDOF 6
ENDMDL
MODEL 2
REMARK VINA RESULT:      -7.0      1.886      4.911
REMARK  6 active torsions:
REMARK  status: ('A' for Active; 'I' for Inactive)
REMARK    1  A    between atoms: C_9  and  N_13 
REMARK       I    between atoms: N_13  and  C_14 
REMARK    2  A    between atoms: C_14  and  C_17 
REMARK    3  A    between atoms: C_17  and  N_18 
REMARK    4  A    between atoms: C_20  and  C_23 
REMARK    5  A    between atoms: C_23  and  C_25 
REMARK    6  A    between atoms: C_25  and  C_26 
ROOT
HETATM    1  N   UNK     0      -3.930  -5.513  -2.724  0.00  0.00    -0.205 NA
HETATM    2  C   UNK     0      -4.496  -4.526  -3.480  0.00  0.00     0.281 C 
HETATM    3  O   UNK     0      -4.054  -3.370  -3.291  0.00  0.00    -0.268 OA
ENDROOT
BRANCH   1   4
HETATM    4  C   UNK     0      -4.256  -6.809  -2.766  0.00  0.00     0.146 C 
HETATM    5  C   UNK     0      -5.312  -7.254  -2.045  0.00  0.00     0.162 C 
HETATM    6  C   UNK     0      -5.592  -8.629  -1.971  0.00  0.00     0.217 C 
HETATM    7  N   UNK     0      -6.070  -6.394  -1.365  0.00  0.00    -0.143 N 
HETATM    8  C   UNK     0      -4.655  -9.579  -2.498  0.00  0.00     0.044 A 
HETATM    9  O   UNK     0      -6.635  -9.025  -1.396  0.00  0.00    -0.285 OA
HETATM   10  C   UNK     0      -4.757 -10.969  -2.239  0.00  0.00     0.003 A 
HETATM   11  C   UNK     0      -3.568  -9.097  -3.280  0.00  0.00     0.044 A 
HETATM   12  C   UNK     0      -3.773 -11.857  -2.709  0.00  0.00     0.000 A 
HETATM   13  C   UNK     0      -2.687 -11.374  -3.458  0.00  0.00     0.000 A 
HETATM   14  C   UNK     0      -2.587 -10.002  -3.752  0.00  0.00     0.003 A 
HETATM   15  C   UNK     0      -3.484  -7.697  -3.530  0.00  0.00     0.215 C 
HETATM   16  O   UNK     0      -2.712  -7.251  -4.413  0.00  0.00    -0.285 OA
ENDBRANCH   1   4
BRANCH   2  17
HETATM   17  C   UNK     0      -5.553  -4.694  -4.512  0.00  0.00     0.219 C 
BRANCH  17  18
HETATM   18  N   UNK     0      -5.046  -5.344  -5.678  0.00  0.00    -0.221 N 
HETATM   19  C   UNK     0      -5.584  -6.407  -6.301  0.00  0.00     0.114 A 
HETATM   20  C   UNK     0      -4.751  -6.694  -7.372  0.00  0.00     0.101 A 
HETATM   21  N   UNK     0      -3.776  -5.771  -7.337  0.00  0.00    -0.133 NA
HETATM   22  N   UNK     0      -3.981  -4.985  -6.325  0.00  0.00    -0.064 NA
BRANCH  20  23
HETATM   23  C   UNK     0      -4.873  -7.811  -8.346  0.00  0.00     0.044 C 
HETATM   24  C   UNK     0      -5.105  -7.256  -9.778  0.00  0.00     0.006 C 
BRANCH  23  25
HETATM   25  C   UNK     0      -3.633  -8.760  -8.301  0.00  0.00     0.006 C 
BRANCH  25  26
HETATM   26  C   UNK     0      -3.590  -9.665  -7.038  0.00  0.00     0.000 C 
HETATM   27  C   UNK     0      -4.955 -10.297  -6.692  0.00  0.00     0.000 C 
ENDBRANCH  25  26
ENDBRANCH  23  25
ENDBRANCH  20  23
ENDBRANCH  17  18
ENDBRANCH   2  17
TORSDOF 6
ENDMDL
MODEL 3
REMARK VINA RESULT:      -6.6      2.139      5.092
REMARK  6 active torsions:
REMARK  status: ('A' for Active; 'I' for Inactive)
REMARK    1  A    between atoms: C_9  and  N_13 
REMARK       I    between atoms: N_13  and  C_14 
REMARK    2  A    between atoms: C_14  and  C_17 
REMARK    3  A    between atoms: C_17  and  N_18 
REMARK    4  A    between atoms: C_20  and  C_23 
REMARK    5  A    between atoms: C_23  and  C_25 
REMARK    6  A    between atoms: C_25  and  C_26 
ROOT
HETATM    1  N   UNK     0      -4.314  -5.609  -2.462  0.00  0.00    -0.205 NA
HETATM    2  C   UNK     0      -4.803  -4.756  -3.410  0.00  0.00     0.281 C 
HETATM    3  O   UNK     0      -4.420  -3.567  -3.327  0.00  0.00    -0.268 OA
ENDROOT
BRANCH   1   4
HETATM    4  C   UNK     0      -4.597  -6.912  -2.368  0.00  0.00     0.146 C 
HETATM    5  C   UNK     0      -3.813  -7.813  -3.008  0.00  0.00     0.162 C 
HETATM    6  C   UNK     0      -4.166  -9.172  -3.029  0.00  0.00     0.217 C 
HETATM    7  N   UNK     0      -2.722  -7.409  -3.658  0.00  0.00    -0.143 N 
HETATM    8  C   UNK     0      -5.450  -9.586  -2.542  0.00  0.00     0.044 A 
HETATM    9  O   UNK     0      -3.380 -10.016  -3.526  0.00  0.00    -0.285 OA
HETATM   10  C   UNK     0      -5.962 -10.890  -2.760  0.00  0.00     0.003 A 
HETATM   11  C   UNK     0      -6.249  -8.636  -1.844  0.00  0.00     0.044 A 
HETATM   12  C   UNK     0      -7.257 -11.230  -2.333  0.00  0.00     0.000 A 
HETATM   13  C   UNK     0      -8.053 -10.281  -1.668  0.00  0.00     0.000 A 
HETATM   14  C   UNK     0      -7.550  -8.993  -1.415  0.00  0.00     0.003 A 
HETATM   15  C   UNK     0      -5.717  -7.331  -1.634  0.00  0.00     0.215 C 
HETATM   16  O   UNK     0      -6.253  -6.547  -0.815  0.00  0.00    -0.285 OA
ENDBRANCH   1   4
BRANCH   2  17
HETATM   17  C   UNK     0      -5.711  -5.104  -4.534  0.00  0.00     0.219 C 
BRANCH  17  18
HETATM   18  N   UNK     0      -4.983  -5.584  -5.665  0.00  0.00    -0.221 N 
HETATM   19  C   UNK     0      -5.173  -6.750  -6.305  0.00  0.00     0.114 A 
HETATM   20  C   UNK     0      -4.237  -6.791  -7.328  0.00  0.00     0.101 A 
HETATM   21  N   UNK     0      -3.557  -5.636  -7.250  0.00  0.00    -0.133 NA
HETATM   22  N   UNK     0      -4.024  -4.942  -6.258  0.00  0.00    -0.064 NA
BRANCH  20  23
HETATM   23  C   UNK     0      -3.995  -7.893  -8.296  0.00  0.00     0.044 C 
HETATM   24  C   UNK     0      -3.008  -7.432  -9.403  0.00  0.00     0.006 C 
BRANCH  23  25
HETATM   25  C   UNK     0      -3.484  -9.188  -7.588  0.00  0.00     0.006 C 
BRANCH  25  26
HETATM   26  C   UNK     0      -2.031  -9.067  -7.048  0.00  0.00     0.000 C 
HETATM   27  C   UNK     0      -1.485 -10.385  -6.458  0.00  0.00     0.000 C 
ENDBRANCH  25  26
ENDBRANCH  23  25
ENDBRANCH  20  23
ENDBRANCH  17  18
ENDBRANCH   2  17
TORSDOF 6
ENDMDL
MODEL 4
REMARK VINA RESULT:      -6.5      1.804      2.468
REMARK  6 active torsions:
REMARK  status: ('A' for Active; 'I' for Inactive)
REMARK    1  A    between atoms: C_9  and  N_13 
REMARK       I    between atoms: N_13  and  C_14 
REMARK    2  A    between atoms: C_14  and  C_17 
REMARK    3  A    between atoms: C_17  and  N_18 
REMARK    4  A    between atoms: C_20  and  C_23 
REMARK    5  A    between atoms: C_23  and  C_25 
REMARK    6  A    between atoms: C_25  and  C_26 
ROOT
HETATM    1  N   UNK     0      -5.186  -5.239  -5.978  0.00  0.00    -0.205 NA
HETATM    2  C   UNK     0      -4.617  -4.400  -5.063  0.00  0.00     0.281 C 
HETATM    3  O   UNK     0      -4.773  -3.175  -5.271  0.00  0.00    -0.268 OA
ENDROOT
BRANCH   1   4
HETATM    4  C   UNK     0      -5.136  -6.574  -5.947  0.00  0.00     0.146 C 
HETATM    5  C   UNK     0      -6.228  -7.273  -5.554  0.00  0.00     0.162 C 
HETATM    6  C   UNK     0      -6.157  -8.666  -5.390  0.00  0.00     0.217 C 
HETATM    7  N   UNK     0      -7.367  -6.638  -5.281  0.00  0.00    -0.143 N 
HETATM    8  C   UNK     0      -4.887  -9.330  -5.448  0.00  0.00     0.044 A 
HETATM    9  O   UNK     0      -7.198  -9.320  -5.136  0.00  0.00    -0.285 OA
HETATM   10  C   UNK     0      -4.716 -10.680  -5.050  0.00  0.00     0.003 A 
HETATM   11  C   UNK     0      -3.755  -8.590  -5.892  0.00  0.00     0.044 A 
HETATM   12  C   UNK     0      -3.439 -11.268  -5.049  0.00  0.00     0.000 A 
HETATM   13  C   UNK     0      -2.320 -10.526  -5.463  0.00  0.00     0.000 A 
HETATM   14  C   UNK     0      -2.475  -9.196  -5.893  0.00  0.00     0.003 A 
HETATM   15  C   UNK     0      -3.947  -7.236  -6.290  0.00  0.00     0.215 C 
HETATM   16  O   UNK     0      -3.056  -6.623  -6.926  0.00  0.00    -0.285 OA
ENDBRANCH   1   4
BRANCH   2  17
HETATM   17  C   UNK     0      -3.864  -4.796  -3.844  0.00  0.00     0.219 C 
BRANCH  17  18
HETATM   18  N   UNK     0      -4.665  -5.592  -2.970  0.00  0.00    -0.221 N 
HETATM   19  C   UNK     0      -4.364  -6.814  -2.498  0.00  0.00     0.114 A 
HETATM   20  C   UNK     0      -5.432  -7.198  -1.701  0.00  0.00     0.101 A 
HETATM   21  N   UNK     0      -6.299  -6.173  -1.729  0.00  0.00    -0.133 NA
HETATM   22  N   UNK     0      -5.815  -5.237  -2.485  0.00  0.00    -0.064 NA
BRANCH  20  23
HETATM   23  C   UNK     0      -5.617  -8.489  -0.987  0.00  0.00     0.044 C 
HETATM   24  C   UNK     0      -7.116  -8.897  -0.988  0.00  0.00     0.006 C 
BRANCH  23  25
HETATM   25  C   UNK     0      -4.723  -9.620  -1.589  0.00  0.00     0.006 C 
BRANCH  25  26
HETATM   26  C   UNK     0      -4.739 -10.932  -0.755  0.00  0.00     0.000 C 
HETATM   27  C   UNK     0      -4.533 -12.202  -1.607  0.00  0.00     0.000 C 
ENDBRANCH  25  26
ENDBRANCH  23  25
ENDBRANCH  20  23
ENDBRANCH  17  18
ENDBRANCH   2  17
TORSDOF 6
ENDMDL
MODEL 5
REMARK VINA RESULT:      -6.4      2.219      4.634
REMARK  6 active torsions:
REMARK  status: ('A' for Active; 'I' for Inactive)
REMARK    1  A    between atoms: C_9  and  N_13 
REMARK       I    between atoms: N_13  and  C_14 
REMARK    2  A    between atoms: C_14  and  C_17 
REMARK    3  A    between atoms: C_17  and  N_18 
REMARK    4  A    between atoms: C_20  and  C_23 
REMARK    5  A    between atoms: C_23  and  C_25 
REMARK    6  A    between atoms: C_25  and  C_26 
ROOT
HETATM    1  N   UNK     0      -4.973  -6.041  -7.250  0.00  0.00    -0.205 NA
HETATM    2  C   UNK     0      -3.865  -6.633  -7.785  0.00  0.00     0.281 C 
HETATM    3  O   UNK     0      -3.757  -6.570  -9.031  0.00  0.00    -0.268 OA
ENDROOT
BRANCH   1   4
HETATM    4  C   UNK     0      -5.281  -5.997  -5.950  0.00  0.00     0.146 C 
HETATM    5  C   UNK     0      -4.855  -4.953  -5.200  0.00  0.00     0.162 C 
HETATM    6  C   UNK     0      -5.055  -4.950  -3.809  0.00  0.00     0.217 C 
HETATM    7  N   UNK     0      -4.206  -3.938  -5.770  0.00  0.00    -0.143 N 
HETATM    8  C   UNK     0      -5.536  -6.132  -3.153  0.00  0.00     0.044 A 
HETATM    9  O   UNK     0      -4.761  -3.932  -3.136  0.00  0.00    -0.285 OA
HETATM   10  C   UNK     0      -5.525  -6.275  -1.743  0.00  0.00     0.003 A 
HETATM   11  C   UNK     0      -6.009  -7.208  -3.956  0.00  0.00     0.044 A 
HETATM   12  C   UNK     0      -5.932  -7.481  -1.145  0.00  0.00     0.000 A 
HETATM   13  C   UNK     0      -6.374  -8.551  -1.942  0.00  0.00     0.000 A 
HETATM   14  C   UNK     0      -6.422  -8.414  -3.341  0.00  0.00     0.003 A 
HETATM   15  C   UNK     0      -6.014  -7.044  -5.371  0.00  0.00     0.215 C 
HETATM   16  O   UNK     0      -6.650  -7.838  -6.105  0.00  0.00    -0.285 OA
ENDBRANCH   1   4
BRANCH   2  17
HETATM   17  C   UNK     0      -2.772  -7.310  -7.038  0.00  0.00     0.219 C 
BRANCH  17  18
HETATM   18  N   UNK     0      -3.156  -8.622  -6.624  0.00  0.00    -0.221 N 
HETATM   19  C   UNK     0      -2.989  -9.159  -5.403  0.00  0.00     0.114 A 
HETATM   20  C   UNK     0      -3.502 -10.446  -5.469  0.00  0.00     0.101 A 
HETATM   21  N   UNK     0      -3.962 -10.594  -6.722  0.00  0.00    -0.133 NA
HETATM   22  N   UNK     0      -3.746  -9.497  -7.379  0.00  0.00    -0.064 NA
BRANCH  20  23
HETATM   23  C   UNK     0      -3.512 -11.477  -4.399  0.00  0.00     0.044 C 
HETATM   24  C   UNK     0      -2.457 -12.578  -4.699  0.00  0.00     0.006 C 
BRANCH  23  25
HETATM   25  C   UNK     0      -3.289 -10.851  -2.985  0.00  0.00     0.006 C 
BRANCH  25  26
HETATM   26  C   UNK     0      -4.294 -11.363  -1.915  0.00  0.00     0.000 C 
HETATM   27  C   UNK     0      -5.481 -12.146  -2.516  0.00  0.00     0.000 C 
ENDBRANCH  25  26
ENDBRANCH  23  25
ENDBRANCH  20  23
ENDBRANCH  17  18
ENDBRANCH   2  17
TORSDOF 6
ENDMDL
MODEL 6
REMARK VINA RESULT:      -6.4      2.097      3.598
REMARK  6 active torsions:
REMARK  status: ('A' for Active; 'I' for Inactive)
REMARK    1  A    between atoms: C_9  and  N_13 
REMARK       I    between atoms: N_13  and  C_14 
REMARK    2  A    between atoms: C_14  and  C_17 
REMARK    3  A    between atoms: C_17  and  N_18 
REMARK    4  A    between atoms: C_20  and  C_23 
REMARK    5  A    between atoms: C_23  and  C_25 
REMARK    6  A    between atoms: C_25  and  C_26 
ROOT
HETATM    1  N   UNK     0      -3.676  -4.987  -4.746  0.00  0.00    -0.205 NA
HETATM    2  C   UNK     0      -4.798  -4.375  -5.227  0.00  0.00     0.281 C 
HETATM    3  O   UNK     0      -4.624  -3.258  -5.766  0.00  0.00    -0.268 OA
ENDROOT
BRANCH   1   4
HETATM    4  C   UNK     0      -3.640  -6.176  -4.135  0.00  0.00     0.146 C 
HETATM    5  C   UNK     0      -3.168  -7.255  -4.804  0.00  0.00     0.162 C 
HETATM    6  C   UNK     0      -3.242  -8.534  -4.228  0.00  0.00     0.217 C 
HETATM    7  N   UNK     0      -2.669  -7.116  -6.031  0.00  0.00    -0.143 N 
HETATM    8  C   UNK     0      -3.986  -8.733  -3.018  0.00  0.00     0.044 A 
HETATM    9  O   UNK     0      -2.703  -9.511  -4.803  0.00  0.00    -0.285 OA
HETATM   10  C   UNK     0      -4.304 -10.024  -2.524  0.00  0.00     0.003 A 
HETATM   11  C   UNK     0      -4.448  -7.587  -2.310  0.00  0.00     0.044 A 
HETATM   12  C   UNK     0      -5.102 -10.173  -1.377  0.00  0.00     0.000 A 
HETATM   13  C   UNK     0      -5.579  -9.040  -0.696  0.00  0.00     0.000 A 
HETATM   14  C   UNK     0      -5.246  -7.752  -1.153  0.00  0.00     0.003 A 
HETATM   15  C   UNK     0      -4.118  -6.299  -2.821  0.00  0.00     0.215 C 
HETATM   16  O   UNK     0      -4.268  -5.273  -2.115  0.00  0.00    -0.285 OA
ENDBRANCH   1   4
BRANCH   2  17
HETATM   17  C   UNK     0      -6.184  -4.912  -5.201  0.00  0.00     0.219 C 
BRANCH  17  18
HETATM   18  N   UNK     0      -6.273  -6.164  -5.883  0.00  0.00    -0.221 N 
HETATM   19  C   UNK     0      -6.802  -7.303  -5.404  0.00  0.00     0.114 A 
HETATM   20  C   UNK     0      -6.661  -8.251  -6.407  0.00  0.00     0.101 A 
HETATM   21  N   UNK     0      -6.073  -7.615  -7.434  0.00  0.00    -0.133 NA
HETATM   22  N   UNK     0      -5.860  -6.381  -7.094  0.00  0.00    -0.064 NA
BRANCH  20  23
HETATM   23  C   UNK     0      -7.039  -9.687  -6.360  0.00  0.00     0.044 C 
HETATM   24  C   UNK     0      -6.195 -10.502  -7.379  0.00  0.00     0.006 C 
BRANCH  23  25
HETATM   25  C   UNK     0      -6.910 -10.277  -4.920  0.00  0.00     0.006 C 
BRANCH  25  26
HETATM   26  C   UNK     0      -8.280 -10.536  -4.231  0.00  0.00     0.000 C 
HETATM   27  C   UNK     0      -8.486  -9.705  -2.947  0.00  0.00     0.000 C 
ENDBRANCH  25  26
ENDBRANCH  23  25
ENDBRANCH  20  23
ENDBRANCH  17  18
ENDBRANCH   2  17
TORSDOF 6
ENDMDL
MODEL 7
REMARK VINA RESULT:      -6.3      2.274      3.665
REMARK  6 active torsions:
REMARK  status: ('A' for Active; 'I' for Inactive)
REMARK    1  A    between atoms: C_9  and  N_13 
REMARK       I    between atoms: N_13  and  C_14 
REMARK    2  A    between atoms: C_14  and  C_17 
REMARK    3  A    between atoms: C_17  and  N_18 
REMARK    4  A    between atoms: C_20  and  C_23 
REMARK    5  A    between atoms: C_23  and  C_25 
REMARK    6  A    between atoms: C_25  and  C_26 
ROOT
HETATM    1  N   UNK     0      -5.165  -4.535  -4.899  0.00  0.00    -0.205 NA
HETATM    2  C   UNK     0      -4.412  -4.615  -3.762  0.00  0.00     0.281 C 
HETATM    3  O   UNK     0      -4.201  -3.533  -3.168  0.00  0.00    -0.268 OA
ENDROOT
BRANCH   1   4
HETATM    4  C   UNK     0      -5.503  -5.565  -5.682  0.00  0.00     0.146 C 
HETATM    5  C   UNK     0      -4.633  -6.000  -6.624  0.00  0.00     0.162 C 
HETATM    6  C   UNK     0      -5.017  -6.992  -7.541  0.00  0.00     0.217 C 
HETATM    7  N   UNK     0      -3.417  -5.459  -6.714  0.00  0.00    -0.143 N 
HETATM    8  C   UNK     0      -6.387  -7.411  -7.610  0.00  0.00     0.044 A 
HETATM    9  O   UNK     0      -4.172  -7.470  -8.338  0.00  0.00    -0.285 OA
HETATM   10  C   UNK     0      -6.884  -8.216  -8.665  0.00  0.00     0.003 A 
HETATM   11  C   UNK     0      -7.283  -6.970  -6.594  0.00  0.00     0.044 A 
HETATM   12  C   UNK     0      -8.250  -8.539  -8.736  0.00  0.00     0.000 A 
HETATM   13  C   UNK     0      -9.136  -8.080  -7.746  0.00  0.00     0.000 A 
HETATM   14  C   UNK     0      -8.655  -7.307  -6.674  0.00  0.00     0.003 A 
HETATM   15  C   UNK     0      -6.765  -6.163  -5.541  0.00  0.00     0.215 C 
HETATM   16  O   UNK     0      -7.434  -5.965  -4.498  0.00  0.00    -0.285 OA
ENDBRANCH   1   4
BRANCH   2  17
HETATM   17  C   UNK     0      -3.851  -5.849  -3.153  0.00  0.00     0.219 C 
BRANCH  17  18
HETATM   18  N   UNK     0      -4.841  -6.563  -2.412  0.00  0.00    -0.221 N 
HETATM   19  C   UNK     0      -4.965  -7.899  -2.319  0.00  0.00     0.114 A 
HETATM   20  C   UNK     0      -6.065  -8.133  -1.507  0.00  0.00     0.101 A 
HETATM   21  N   UNK     0      -6.520  -6.922  -1.147  0.00  0.00    -0.133 NA
HETATM   22  N   UNK     0      -5.773  -6.014  -1.696  0.00  0.00    -0.064 NA
BRANCH  20  23
HETATM   23  C   UNK     0      -6.656  -9.444  -1.133  0.00  0.00     0.044 C 
HETATM   24  C   UNK     0      -8.123  -9.258  -0.657  0.00  0.00     0.006 C 
BRANCH  23  25
HETATM   25  C   UNK     0      -6.568 -10.477  -2.301  0.00  0.00     0.006 C 
BRANCH  25  26
HETATM   26  C   UNK     0      -5.658 -11.697  -1.983  0.00  0.00     0.000 C 
HETATM   27  C   UNK     0      -4.816 -11.514  -0.702  0.00  0.00     0.000 C 
ENDBRANCH  25  26
ENDBRANCH  23  25
ENDBRANCH  20  23
ENDBRANCH  17  18
ENDBRANCH   2  17
TORSDOF 6
ENDMDL
MODEL 8
REMARK VINA RESULT:      -6.3      2.017      5.299
REMARK  6 active torsions:
REMARK  status: ('A' for Active; 'I' for Inactive)
REMARK    1  A    between atoms: C_9  and  N_13 
REMARK       I    between atoms: N_13  and  C_14 
REMARK    2  A    between atoms: C_14  and  C_17 
REMARK    3  A    between atoms: C_17  and  N_18 
REMARK    4  A    between atoms: C_20  and  C_23 
REMARK    5  A    between atoms: C_23  and  C_25 
REMARK    6  A    between atoms: C_25  and  C_26 
ROOT
HETATM    1  N   UNK     0      -5.942  -6.239  -2.606  0.00  0.00    -0.205 NA
HETATM    2  C   UNK     0      -4.910  -5.412  -2.945  0.00  0.00     0.281 C 
HETATM    3  O   UNK     0      -5.125  -4.186  -2.812  0.00  0.00    -0.268 OA
ENDROOT
BRANCH   1   4
HETATM    4  C   UNK     0      -5.924  -7.574  -2.676  0.00  0.00     0.146 C 
HETATM    5  C   UNK     0      -5.623  -8.295  -1.569  0.00  0.00     0.162 C 
HETATM    6  C   UNK     0      -5.471  -9.689  -1.650  0.00  0.00     0.217 C 
HETATM    7  N   UNK     0      -5.427  -7.681  -0.402  0.00  0.00    -0.143 N 
HETATM    8  C   UNK     0      -5.444 -10.333  -2.932  0.00  0.00     0.044 A 
HETATM    9  O   UNK     0      -5.304 -10.363  -0.604  0.00  0.00    -0.285 OA
HETATM   10  C   UNK     0      -5.052 -11.685  -3.095  0.00  0.00     0.003 A 
HETATM   11  C   UNK     0      -5.793  -9.569  -4.082  0.00  0.00     0.044 A 
HETATM   12  C   UNK     0      -4.963 -12.254  -4.378  0.00  0.00     0.000 A 
HETATM   13  C   UNK     0      -5.283 -11.489  -5.512  0.00  0.00     0.000 A 
HETATM   14  C   UNK     0      -5.706 -10.156  -5.367  0.00  0.00     0.003 A 
HETATM   15  C   UNK     0      -6.186  -8.212  -3.898  0.00  0.00     0.215 C 
HETATM   16  O   UNK     0      -6.746  -7.578  -4.824  0.00  0.00    -0.285 OA
ENDBRANCH   1   4
BRANCH   2  17
HETATM   17  C   UNK     0      -3.563  -5.822  -3.422  0.00  0.00     0.219 C 
BRANCH  17  18
HETATM   18  N   UNK     0      -3.561  -6.080  -4.826  0.00  0.00    -0.221 N 
HETATM   19  C   UNK     0      -3.008  -7.136  -5.447  0.00  0.00     0.114 A 
HETATM   20  C   UNK     0      -3.244  -6.960  -6.802  0.00  0.00     0.101 A 
HETATM   21  N   UNK     0      -3.942  -5.817  -6.908  0.00  0.00    -0.133 NA
HETATM   22  N   UNK     0      -4.116  -5.322  -5.722  0.00  0.00    -0.064 NA
BRANCH  20  23
HETATM   23  C   UNK     0      -2.792  -7.824  -7.924  0.00  0.00     0.044 C 
HETATM   24  C   UNK     0      -1.312  -7.515  -8.282  0.00  0.00     0.006 C 
BRANCH  23  25
HETATM   25  C   UNK     0      -2.992  -9.340  -7.608  0.00  0.00     0.006 C 
BRANCH  25  26
HETATM   26  C   UNK     0      -1.673 -10.074  -7.235  0.00  0.00     0.000 C 
HETATM   27  C   UNK     0      -1.688 -10.674  -5.813  0.00  0.00     0.000 C 
ENDBRANCH  25  26
ENDBRANCH  23  25
ENDBRANCH  20  23
ENDBRANCH  17  18
ENDBRANCH   2  17
TORSDOF 6
ENDMDL
MODEL 9
REMARK VINA RESULT:      -6.2      2.135      3.001
REMARK  6 active torsions:
REMARK  status: ('A' for Active; 'I' for Inactive)
REMARK    1  A    between atoms: C_9  and  N_13 
REMARK       I    between atoms: N_13  and  C_14 
REMARK    2  A    between atoms: C_14  and  C_17 
REMARK    3  A    between atoms: C_17  and  N_18 
REMARK    4  A    between atoms: C_20  and  C_23 
REMARK    5  A    between atoms: C_23  and  C_25 
REMARK    6  A    between atoms: C_25  and  C_26 
ROOT
HETATM    1  N   UNK     0      -4.992  -4.486  -5.014  0.00  0.00    -0.205 NA
HETATM    2  C   UNK     0      -4.348  -4.534  -3.811  0.00  0.00     0.281 C 
HETATM    3  O   UNK     0      -4.270  -3.451  -3.188  0.00  0.00    -0.268 OA
ENDROOT
BRANCH   1   4
HETATM    4  C   UNK     0      -5.182  -5.523  -5.837  0.00  0.00     0.146 C 
HETATM    5  C   UNK     0      -6.351  -6.205  -5.790  0.00  0.00     0.162 C 
HETATM    6  C   UNK     0      -6.521  -7.373  -6.552  0.00  0.00     0.217 C 
HETATM    7  N   UNK     0      -7.334  -5.796  -4.989  0.00  0.00    -0.143 N 
HETATM    8  C   UNK     0      -5.399  -7.955  -7.231  0.00  0.00     0.044 A 
HETATM    9  O   UNK     0      -7.642  -7.937  -6.591  0.00  0.00    -0.285 OA
HETATM   10  C   UNK     0      -5.447  -9.251  -7.804  0.00  0.00     0.003 A 
HETATM   11  C   UNK     0      -4.187  -7.211  -7.297  0.00  0.00     0.044 A 
HETATM   12  C   UNK     0      -4.300  -9.814  -8.392  0.00  0.00     0.000 A 
HETATM   13  C   UNK     0      -3.098  -9.087  -8.432  0.00  0.00     0.000 A 
HETATM   14  C   UNK     0      -3.042  -7.788  -7.897  0.00  0.00     0.003 A 
HETATM   15  C   UNK     0      -4.160  -5.911  -6.716  0.00  0.00     0.215 C 
HETATM   16  O   UNK     0      -3.221  -5.118  -6.968  0.00  0.00    -0.285 OA
ENDBRANCH   1   4
BRANCH   2  17
HETATM   17  C   UNK     0      -3.763  -5.738  -3.164  0.00  0.00     0.219 C 
BRANCH  17  18
HETATM   18  N   UNK     0      -4.776  -6.574  -2.603  0.00  0.00    -0.221 N 
HETATM   19  C   UNK     0      -4.925  -7.895  -2.800  0.00  0.00     0.114 A 
HETATM   20  C   UNK     0      -6.040  -8.276  -2.069  0.00  0.00     0.101 A 
HETATM   21  N   UNK     0      -6.479  -7.162  -1.462  0.00  0.00    -0.133 NA
HETATM   22  N   UNK     0      -5.709  -6.173  -1.796  0.00  0.00    -0.064 NA
BRANCH  20  23
HETATM   23  C   UNK     0      -6.660  -9.625  -1.991  0.00  0.00     0.044 C 
HETATM   24  C   UNK     0      -5.971 -10.595  -2.990  0.00  0.00     0.006 C 
BRANCH  23  25
HETATM   25  C   UNK     0      -6.630 -10.197  -0.538  0.00  0.00     0.006 C 
BRANCH  25  26
HETATM   26  C   UNK     0      -5.196 -10.321   0.050  0.00  0.00     0.000 C 
HETATM   27  C   UNK     0      -4.843 -11.754   0.503  0.00  0.00     0.000 C 
ENDBRANCH  25  26
ENDBRANCH  23  25
ENDBRANCH  20  23
ENDBRANCH  17  18
ENDBRANCH   2  17
TORSDOF 6
ENDMDL
