MODEL 1
REMARK VINA RESULT:      -7.4      0.000      0.000
REMARK  4 active torsions:
REMARK  status: ('A' for Active; 'I' for Inactive)
REMARK    1  A    between atoms: C_9  and  N_13 
REMARK       I    between atoms: N_13  and  C_14 
REMARK    2  A    between atoms: C_14  and  C_17 
REMARK    3  A    between atoms: C_17  and  N_18 
REMARK    4  A    between atoms: C_20  and  C_23 
ROOT
HETATM    1  N   UNK     0      -3.757  -5.409  -5.337  0.00  0.00    -0.205 NA
HETATM    2  C   UNK     0      -5.010  -4.959  -5.030  0.00  0.00     0.281 C 
HETATM    3  O   UNK     0      -5.142  -3.715  -4.968  0.00  0.00    -0.268 OA
ENDROOT
BRANCH   1   4
HETATM    4  C   UNK     0      -3.383  -6.683  -5.502  0.00  0.00     0.146 C 
HETATM    5  C   UNK     0      -3.374  -7.216  -6.748  0.00  0.00     0.162 C 
HETATM    6  C   UNK     0      -3.073  -8.569  -6.951  0.00  0.00     0.217 C 
HETATM    7  N   UNK     0      -3.685  -6.482  -7.809  0.00  0.00    -0.143 N 
HETATM    8  C   UNK     0      -2.953  -9.449  -5.833  0.00  0.00     0.044 A 
HETATM    9  O   UNK     0      -2.926  -9.012  -8.116  0.00  0.00    -0.285 OA
HETATM   10  C   UNK     0      -2.918 -10.855  -5.982  0.00  0.00     0.003 A 
HETATM   11  C   UNK     0      -2.899  -8.884  -4.527  0.00  0.00     0.044 A 
HETATM   12  C   UNK     0      -2.830 -11.690  -4.854  0.00  0.00     0.000 A 
HETATM   13  C   UNK     0      -2.747 -11.131  -3.569  0.00  0.00     0.000 A 
HETATM   14  C   UNK     0      -2.772  -9.736  -3.405  0.00  0.00     0.003 A 
HETATM   15  C   UNK     0      -3.011  -7.466  -4.395  0.00  0.00     0.215 C 
HETATM   16  O   UNK     0      -2.794  -6.915  -3.288  0.00  0.00    -0.285 OA
ENDBRANCH   1   4
BRANCH   2  17
HETATM   17  C   UNK     0      -6.224  -5.785  -4.800  0.00  0.00     0.219 C 
BRANCH  17  18
HETATM   18  N   UNK     0      -6.196  -6.432  -3.525  0.00  0.00    -0.221 N 
HETATM   19  C   UNK     0      -6.304  -7.750  -3.293  0.00  0.00     0.114 A 
HETATM   20  C   UNK     0      -6.153  -7.922  -1.926  0.00  0.00     0.101 A 
HETATM   21  N   UNK     0      -5.979  -6.691  -1.417  0.00  0.00    -0.133 NA
HETATM   22  N   UNK     0      -6.015  -5.832  -2.388  0.00  0.00    -0.064 NA
BRANCH  20  23
HETATM   23  C   UNK     0      -6.153  -9.207  -1.185  0.00  0.00     0.044 C 
HETATM   24  C   UNK     0      -4.915  -9.426  -0.285  0.00  0.00     0.006 C 
HETATM   25  C   UNK     0      -4.883 -10.945  -0.036  0.00  0.00     0.000 C 
HETATM   26  C   UNK     0      -5.515 -11.594  -1.287  0.00  0.00     0.000 C 
HETATM   27  C   UNK     0      -6.179 -10.457  -2.098  0.00  0.00     0.006 C 
ENDBRANCH  20  23
ENDBRANCH  17  18
ENDBRANCH   2  17
TORSDOF 4
ENDMDL
MODEL 2
REMARK VINA RESULT:      -7.0      1.896      5.195
REMARK  4 active torsions:
REMARK  status: ('A' for Active; 'I' for Inactive)
REMARK    1  A    between atoms: C_9  and  N_13 
REMARK       I    between atoms: N_13  and  C_14 
REMARK    2  A    between atoms: C_14  and  C_17 
REMARK    3  A    between atoms: C_17  and  N_18 
REMARK    4  A    between atoms: C_20  and  C_23 
ROOT
HETATM    1  N   UNK     0      -4.075  -5.655  -2.489  0.00  0.00    -0.205 NA
HETATM    2  C   UNK     0      -4.609  -4.695  -3.303  0.00  0.00     0.281 C 
HETATM    3  O   UNK     0      -4.195  -3.528  -3.113  0.00  0.00    -0.268 OA
ENDROOT
BRANCH   1   4
HETATM    4  C   UNK     0      -4.326  -6.968  -2.531  0.00  0.00     0.146 C 
HETATM    5  C   UNK     0      -5.344  -7.473  -1.791  0.00  0.00     0.162 C 
HETATM    6  C   UNK     0      -5.583  -8.852  -1.742  0.00  0.00     0.217 C 
HETATM    7  N   UNK     0      -6.121  -6.680  -1.064  0.00  0.00    -0.143 N 
HETATM    8  C   UNK     0      -4.646  -9.760  -2.321  0.00  0.00     0.044 A 
HETATM    9  O   UNK     0      -6.612  -9.291  -1.173  0.00  0.00    -0.285 OA
HETATM   10  C   UNK     0      -4.694 -11.151  -2.072  0.00  0.00     0.003 A 
HETATM   11  C   UNK     0      -3.614  -9.235  -3.149  0.00  0.00     0.044 A 
HETATM   12  C   UNK     0      -3.734 -12.011  -2.636  0.00  0.00     0.000 A 
HETATM   13  C   UNK     0      -2.735 -11.496  -3.477  0.00  0.00     0.000 A 
HETATM   14  C   UNK     0      -2.679 -10.117  -3.740  0.00  0.00     0.003 A 
HETATM   15  C   UNK     0      -3.540  -7.819  -3.327  0.00  0.00     0.215 C 
HETATM   16  O   UNK     0      -2.762  -7.329  -4.182  0.00  0.00    -0.285 OA
ENDBRANCH   1   4
BRANCH   2  17
HETATM   17  C   UNK     0      -5.591  -4.898  -4.398  0.00  0.00     0.219 C 
BRANCH  17  18
HETATM   18  N   UNK     0      -4.979  -5.436  -5.573  0.00  0.00    -0.221 N 
HETATM   19  C   UNK     0      -5.370  -6.524  -6.255  0.00  0.00     0.114 A 
HETATM   20  C   UNK     0      -4.532  -6.623  -7.354  0.00  0.00     0.101 A 
HETATM   21  N   UNK     0      -3.673  -5.594  -7.255  0.00  0.00    -0.133 NA
HETATM   22  N   UNK     0      -3.962  -4.914  -6.189  0.00  0.00    -0.064 NA
BRANCH  20  23
HETATM   23  C   UNK     0      -4.592  -7.640  -8.431  0.00  0.00     0.044 C 
HETATM   24  C   UNK     0      -4.262  -9.079  -7.971  0.00  0.00     0.006 C 
HETATM   25  C   UNK     0      -3.904  -9.826  -9.269  0.00  0.00     0.000 C 
HETATM   26  C   UNK     0      -3.306  -8.765 -10.219  0.00  0.00     0.000 C 
HETATM   27  C   UNK     0      -3.604  -7.382  -9.594  0.00  0.00     0.006 C 
ENDBRANCH  20  23
ENDBRANCH  17  18
ENDBRANCH   2  17
TORSDOF 4
ENDMDL
MODEL 3
REMARK VINA RESULT:      -6.8      2.232      5.509
REMARK  4 active torsions:
REMARK  status: ('A' for Active; 'I' for Inactive)
REMARK    1  A    between atoms: C_9  and  N_13 
REMARK       I    between atoms: N_13  and  C_14 
REMARK    2  A    between atoms: C_14  and  C_17 
REMARK    3  A    between atoms: C_17  and  N_18 
REMARK    4  A    between atoms: C_20  and  C_23 
ROOT
HETATM    1  N   UNK     0      -4.232  -5.559  -2.475  0.00  0.00    -0.205 NA
HETATM    2  C   UNK     0      -4.713  -4.664  -3.390  0.00  0.00     0.281 C 
HETATM    3  O   UNK     0      -4.237  -3.508  -3.322  0.00  0.00    -0.268 OA
ENDROOT
BRANCH   1   4
HETATM    4  C   UNK     0      -4.554  -6.854  -2.379  0.00  0.00     0.146 C 
HETATM    5  C   UNK     0      -3.783  -7.778  -3.003  0.00  0.00     0.162 C 
HETATM    6  C   UNK     0      -4.137  -9.133  -2.998  0.00  0.00     0.217 C 
HETATM    7  N   UNK     0      -2.692  -7.422  -3.668  0.00  0.00    -0.143 N 
HETATM    8  C   UNK     0      -5.410  -9.537  -2.494  0.00  0.00     0.044 A 
HETATM    9  O   UNK     0      -3.342  -9.991  -3.453  0.00  0.00    -0.285 OA
HETATM   10  C   UNK     0      -5.925 -10.837  -2.706  0.00  0.00     0.003 A 
HETATM   11  C   UNK     0      -6.192  -8.583  -1.783  0.00  0.00     0.044 A 
HETATM   12  C   UNK     0      -7.198 -11.189  -2.220  0.00  0.00     0.000 A 
HETATM   13  C   UNK     0      -7.956 -10.257  -1.494  0.00  0.00     0.000 A 
HETATM   14  C   UNK     0      -7.454  -8.964  -1.268  0.00  0.00     0.003 A 
HETATM   15  C   UNK     0      -5.684  -7.255  -1.646  0.00  0.00     0.215 C 
HETATM   16  O   UNK     0      -6.254  -6.436  -0.883  0.00  0.00    -0.285 OA
ENDBRANCH   1   4
BRANCH   2  17
HETATM   17  C   UNK     0      -5.703  -4.931  -4.464  0.00  0.00     0.219 C 
BRANCH  17  18
HETATM   18  N   UNK     0      -5.137  -5.686  -5.539  0.00  0.00    -0.221 N 
HETATM   19  C   UNK     0      -4.064  -5.353  -6.275  0.00  0.00     0.114 A 
HETATM   20  C   UNK     0      -3.841  -6.408  -7.145  0.00  0.00     0.101 A 
HETATM   21  N   UNK     0      -4.806  -7.307  -6.889  0.00  0.00    -0.133 NA
HETATM   22  N   UNK     0      -5.559  -6.847  -5.937  0.00  0.00    -0.064 NA
BRANCH  20  23
HETATM   23  C   UNK     0      -2.741  -6.530  -8.133  0.00  0.00     0.044 C 
HETATM   24  C   UNK     0      -3.191  -7.003  -9.535  0.00  0.00     0.006 C 
HETATM   25  C   UNK     0      -1.901  -7.520 -10.199  0.00  0.00     0.000 C 
HETATM   26  C   UNK     0      -1.010  -8.039  -9.049  0.00  0.00     0.000 C 
HETATM   27  C   UNK     0      -1.644  -7.543  -7.728  0.00  0.00     0.006 C 
ENDBRANCH  20  23
ENDBRANCH  17  18
ENDBRANCH   2  17
TORSDOF 4
ENDMDL
MODEL 4
REMARK VINA RESULT:      -6.8      2.168      4.660
REMARK  4 active torsions:
REMARK  status: ('A' for Active; 'I' for Inactive)
REMARK    1  A    between atoms: C_9  and  N_13 
REMARK       I    between atoms: N_13  and  C_14 
REMARK    2  A    between atoms: C_14  and  C_17 
REMARK    3  A    between atoms: C_17  and  N_18 
REMARK    4  A    between atoms: C_20  and  C_23 
ROOT
HETATM    1  N   UNK     0      -4.699  -6.138  -7.285  0.00  0.00    -0.205 NA
HETATM    2  C   UNK     0      -3.551  -6.678  -7.795  0.00  0.00     0.281 C 
HETATM    3  O   UNK     0      -3.401  -6.567  -9.034  0.00  0.00    -0.268 OA
ENDROOT
BRANCH   1   4
HETATM    4  C   UNK     0      -5.057  -6.095  -5.997  0.00  0.00     0.146 C 
HETATM    5  C   UNK     0      -4.716  -5.017  -5.249  0.00  0.00     0.162 C 
HETATM    6  C   UNK     0      -4.997  -4.974  -3.878  0.00  0.00     0.217 C 
HETATM    7  N   UNK     0      -4.073  -3.987  -5.786  0.00  0.00    -0.143 N 
HETATM    8  C   UNK     0      -5.480  -6.140  -3.211  0.00  0.00     0.044 A 
HETATM    9  O   UNK     0      -4.807  -3.915  -3.231  0.00  0.00    -0.285 OA
HETATM   10  C   UNK     0      -5.526  -6.236  -1.801  0.00  0.00     0.003 A 
HETATM   11  C   UNK     0      -5.898  -7.249  -4.000  0.00  0.00     0.044 A 
HETATM   12  C   UNK     0      -5.980  -7.413  -1.180  0.00  0.00     0.000 A 
HETATM   13  C   UNK     0      -6.419  -8.495  -1.959  0.00  0.00     0.000 A 
HETATM   14  C   UNK     0      -6.388  -8.413  -3.361  0.00  0.00     0.003 A 
HETATM   15  C   UNK     0      -5.773  -7.158  -5.420  0.00  0.00     0.215 C 
HETATM   16  O   UNK     0      -6.288  -8.035  -6.158  0.00  0.00    -0.285 OA
ENDBRANCH   1   4
BRANCH   2  17
HETATM   17  C   UNK     0      -2.463  -7.344  -7.035  0.00  0.00     0.219 C 
BRANCH  17  18
HETATM   18  N   UNK     0      -2.838  -8.653  -6.599  0.00  0.00    -0.221 N 
HETATM   19  C   UNK     0      -2.883  -9.094  -5.331  0.00  0.00     0.114 A 
HETATM   20  C   UNK     0      -3.367 -10.391  -5.382  0.00  0.00     0.101 A 
HETATM   21  N   UNK     0      -3.568 -10.658  -6.684  0.00  0.00    -0.133 NA
HETATM   22  N   UNK     0      -3.241  -9.611  -7.377  0.00  0.00    -0.064 NA
BRANCH  20  23
HETATM   23  C   UNK     0      -3.636 -11.288  -4.231  0.00  0.00     0.044 C 
HETATM   24  C   UNK     0      -5.088 -11.812  -4.155  0.00  0.00     0.006 C 
HETATM   25  C   UNK     0      -5.255 -12.271  -2.694  0.00  0.00     0.000 C 
HETATM   26  C   UNK     0      -4.320 -11.371  -1.856  0.00  0.00     0.000 C 
HETATM   27  C   UNK     0      -3.403 -10.624  -2.852  0.00  0.00     0.006 C 
ENDBRANCH  20  23
ENDBRANCH  17  18
ENDBRANCH   2  17
TORSDOF 4
ENDMDL
MODEL 5
REMARK VINA RESULT:      -6.8      1.814      2.253
REMARK  4 active torsions:
REMARK  status: ('A' for Active; 'I' for Inactive)
REMARK    1  A    between atoms: C_9  and  N_13 
REMARK       I    between atoms: N_13  and  C_14 
REMARK    2  A    between atoms: C_14  and  C_17 
REMARK    3  A    between atoms: C_17  and  N_18 
REMARK    4  A    between atoms: C_20  and  C_23 
ROOT
HETATM    1  N   UNK     0      -4.924  -5.571  -5.146  0.00  0.00    -0.205 NA
HETATM    2  C   UNK     0      -4.455  -4.799  -4.121  0.00  0.00     0.281 C 
HETATM    3  O   UNK     0      -4.500  -3.561  -4.306  0.00  0.00    -0.268 OA
ENDROOT
BRANCH   1   4
HETATM    4  C   UNK     0      -5.018  -6.905  -5.163  0.00  0.00     0.146 C 
HETATM    5  C   UNK     0      -6.238  -7.486  -5.066  0.00  0.00     0.162 C 
HETATM    6  C   UNK     0      -6.370  -8.879  -4.993  0.00  0.00     0.217 C 
HETATM    7  N   UNK     0      -7.342  -6.753  -5.000  0.00  0.00    -0.143 N 
HETATM    8  C   UNK     0      -5.211  -9.697  -4.834  0.00  0.00     0.044 A 
HETATM    9  O   UNK     0      -7.508  -9.406  -5.049  0.00  0.00    -0.285 OA
HETATM   10  C   UNK     0      -5.299 -11.066  -4.488  0.00  0.00     0.003 A 
HETATM   11  C   UNK     0      -3.930  -9.100  -4.998  0.00  0.00     0.044 A 
HETATM   12  C   UNK     0      -4.133 -11.834  -4.310  0.00  0.00     0.000 A 
HETATM   13  C   UNK     0      -2.871 -11.251  -4.502  0.00  0.00     0.000 A 
HETATM   14  C   UNK     0      -2.767  -9.894  -4.853  0.00  0.00     0.003 A 
HETATM   15  C   UNK     0      -3.863  -7.699  -5.273  0.00  0.00     0.215 C 
HETATM   16  O   UNK     0      -2.772  -7.170  -5.597  0.00  0.00    -0.285 OA
ENDBRANCH   1   4
BRANCH   2  17
HETATM   17  C   UNK     0      -3.937  -5.272  -2.812  0.00  0.00     0.219 C 
BRANCH  17  18
HETATM   18  N   UNK     0      -4.830  -6.196  -2.185  0.00  0.00    -0.221 N 
HETATM   19  C   UNK     0      -4.580  -7.484  -1.897  0.00  0.00     0.114 A 
HETATM   20  C   UNK     0      -5.699  -7.964  -1.235  0.00  0.00     0.101 A 
HETATM   21  N   UNK     0      -6.563  -6.936  -1.180  0.00  0.00    -0.133 NA
HETATM   22  N   UNK     0      -6.021  -5.907  -1.755  0.00  0.00    -0.064 NA
BRANCH  20  23
HETATM   23  C   UNK     0      -5.886  -9.325  -0.676  0.00  0.00     0.044 C 
HETATM   24  C   UNK     0      -4.688 -10.276  -0.894  0.00  0.00     0.006 C 
HETATM   25  C   UNK     0      -5.276 -11.687  -0.702  0.00  0.00     0.000 C 
HETATM   26  C   UNK     0      -6.754 -11.593  -1.139  0.00  0.00     0.000 C 
HETATM   27  C   UNK     0      -7.088 -10.090  -1.280  0.00  0.00     0.006 C 
ENDBRANCH  20  23
ENDBRANCH  17  18
ENDBRANCH   2  17
TORSDOF 4
ENDMDL
MODEL 6
REMARK VINA RESULT:      -6.7      1.453      2.571
REMARK  4 active torsions:
REMARK  status: ('A' for Active; 'I' for Inactive)
REMARK    1  A    between atoms: C_9  and  N_13 
REMARK       I    between atoms: N_13  and  C_14 
REMARK    2  A    between atoms: C_14  and  C_17 
REMARK    3  A    between atoms: C_17  and  N_18 
REMARK    4  A    between atoms: C_20  and  C_23 
ROOT
HETATM    1  N   UNK     0      -3.879  -5.283  -5.845  0.00  0.00    -0.205 NA
HETATM    2  C   UNK     0      -4.998  -4.700  -5.320  0.00  0.00     0.281 C 
HETATM    3  O   UNK     0      -4.942  -3.459  -5.160  0.00  0.00    -0.268 OA
ENDROOT
BRANCH   1   4
HETATM    4  C   UNK     0      -3.718  -6.577  -6.145  0.00  0.00     0.146 C 
HETATM    5  C   UNK     0      -3.172  -7.409  -5.225  0.00  0.00     0.162 C 
HETATM    6  C   UNK     0      -2.908  -8.750  -5.533  0.00  0.00     0.217 C 
HETATM    7  N   UNK     0      -2.838  -6.970  -4.017  0.00  0.00    -0.143 N 
HETATM    8  C   UNK     0      -3.038  -9.212  -6.877  0.00  0.00     0.044 A 
HETATM    9  O   UNK     0      -2.540  -9.541  -4.630  0.00  0.00    -0.285 OA
HETATM   10  C   UNK     0      -2.534 -10.466  -7.293  0.00  0.00     0.003 A 
HETATM   11  C   UNK     0      -3.668  -8.362  -7.829  0.00  0.00     0.044 A 
HETATM   12  C   UNK     0      -2.654 -10.875  -8.634  0.00  0.00     0.000 A 
HETATM   13  C   UNK     0      -3.302 -10.048  -9.566  0.00  0.00     0.000 A 
HETATM   14  C   UNK     0      -3.815  -8.803  -9.166  0.00  0.00     0.003 A 
HETATM   15  C   UNK     0      -4.102  -7.069  -7.404  0.00  0.00     0.215 C 
HETATM   16  O   UNK     0      -4.814  -6.361  -8.159  0.00  0.00    -0.285 OA
ENDBRANCH   1   4
BRANCH   2  17
HETATM   17  C   UNK     0      -6.270  -5.376  -4.957  0.00  0.00     0.219 C 
BRANCH  17  18
HETATM   18  N   UNK     0      -6.167  -6.079  -3.715  0.00  0.00    -0.221 N 
HETATM   19  C   UNK     0      -6.222  -7.409  -3.540  0.00  0.00     0.114 A 
HETATM   20  C   UNK     0      -6.007  -7.637  -2.190  0.00  0.00     0.101 A 
HETATM   21  N   UNK     0      -5.852  -6.424  -1.632  0.00  0.00    -0.133 NA
HETATM   22  N   UNK     0      -5.957  -5.524  -2.560  0.00  0.00    -0.064 NA
BRANCH  20  23
HETATM   23  C   UNK     0      -5.933  -8.953  -1.510  0.00  0.00     0.044 C 
HETATM   24  C   UNK     0      -5.138  -8.944  -0.185  0.00  0.00     0.006 C 
HETATM   25  C   UNK     0      -4.779 -10.422   0.059  0.00  0.00     0.000 C 
HETATM   26  C   UNK     0      -4.662 -11.067  -1.339  0.00  0.00     0.000 C 
HETATM   27  C   UNK     0      -5.248 -10.056  -2.352  0.00  0.00     0.006 C 
ENDBRANCH  20  23
ENDBRANCH  17  18
ENDBRANCH   2  17
TORSDOF 4
ENDMDL
MODEL 7
REMARK VINA RESULT:      -6.6      2.400      3.644
REMARK  4 active torsions:
REMARK  status: ('A' for Active; 'I' for Inactive)
REMARK    1  A    between atoms: C_9  and  N_13 
REMARK       I    between atoms: N_13  and  C_14 
REMARK    2  A    between atoms: C_14  and  C_17 
REMARK    3  A    between atoms: C_17  and  N_18 
REMARK    4  A    between atoms: C_20  and  C_23 
ROOT
HETATM    1  N   UNK     0      -5.115  -4.522  -4.899  0.00  0.00    -0.205 NA
HETATM    2  C   UNK     0      -4.404  -4.602  -3.735  0.00  0.00     0.281 C 
HETATM    3  O   UNK     0      -4.208  -3.517  -3.140  0.00  0.00    -0.268 OA
ENDROOT
BRANCH   1   4
HETATM    4  C   UNK     0      -5.485  -5.542  -5.682  0.00  0.00     0.146 C 
HETATM    5  C   UNK     0      -4.622  -6.009  -6.617  0.00  0.00     0.162 C 
HETATM    6  C   UNK     0      -5.005  -7.017  -7.511  0.00  0.00     0.217 C 
HETATM    7  N   UNK     0      -3.402  -5.501  -6.737  0.00  0.00    -0.143 N 
HETATM    8  C   UNK     0      -6.368  -7.437  -7.572  0.00  0.00     0.044 A 
HETATM    9  O   UNK     0      -4.153  -7.538  -8.272  0.00  0.00    -0.285 OA
HETATM   10  C   UNK     0      -6.859  -8.245  -8.624  0.00  0.00     0.003 A 
HETATM   11  C   UNK     0      -7.260  -6.997  -6.554  0.00  0.00     0.044 A 
HETATM   12  C   UNK     0      -8.216  -8.613  -8.666  0.00  0.00     0.000 A 
HETATM   13  C   UNK     0      -9.089  -8.204  -7.645  0.00  0.00     0.000 A 
HETATM   14  C   UNK     0      -8.614  -7.408  -6.590  0.00  0.00     0.003 A 
HETATM   15  C   UNK     0      -6.758  -6.121  -5.543  0.00  0.00     0.215 C 
HETATM   16  O   UNK     0      -7.459  -5.851  -4.536  0.00  0.00    -0.285 OA
ENDBRANCH   1   4
BRANCH   2  17
HETATM   17  C   UNK     0      -3.878  -5.834  -3.093  0.00  0.00     0.219 C 
BRANCH  17  18
HETATM   18  N   UNK     0      -4.909  -6.579  -2.439  0.00  0.00    -0.221 N 
HETATM   19  C   UNK     0      -5.101  -7.906  -2.498  0.00  0.00     0.114 A 
HETATM   20  C   UNK     0      -6.166  -8.188  -1.657  0.00  0.00     0.101 A 
HETATM   21  N   UNK     0      -6.561  -7.007  -1.155  0.00  0.00    -0.133 NA
HETATM   22  N   UNK     0      -5.800  -6.074  -1.640  0.00  0.00    -0.064 NA
BRANCH  20  23
HETATM   23  C   UNK     0      -6.730  -9.526  -1.353  0.00  0.00     0.044 C 
HETATM   24  C   UNK     0      -8.098  -9.494  -0.633  0.00  0.00     0.006 C 
HETATM   25  C   UNK     0      -8.232 -10.891   0.001  0.00  0.00     0.000 C 
HETATM   26  C   UNK     0      -6.792 -11.360   0.304  0.00  0.00     0.000 C 
HETATM   27  C   UNK     0      -5.838 -10.387  -0.427  0.00  0.00     0.006 C 
ENDBRANCH  20  23
ENDBRANCH  17  18
ENDBRANCH   2  17
TORSDOF 4
ENDMDL
MODEL 8
REMARK VINA RESULT:      -6.6      2.456      4.164
REMARK  4 active torsions:
REMARK  status: ('A' for Active; 'I' for Inactive)
REMARK    1  A    between atoms: C_9  and  N_13 
REMARK       I    between atoms: N_13  and  C_14 
REMARK    2  A    between atoms: C_14  and  C_17 
REMARK    3  A    between atoms: C_17  and  N_18 
REMARK    4  A    between atoms: C_20  and  C_23 
ROOT
HETATM    1  N   UNK     0      -4.491  -5.551  -2.641  0.00  0.00    -0.205 NA
HETATM    2  C   UNK     0      -4.564  -4.794  -3.777  0.00  0.00     0.281 C 
HETATM    3  O   UNK     0      -4.309  -3.576  -3.637  0.00  0.00    -0.268 OA
ENDROOT
BRANCH   1   4
HETATM    4  C   UNK     0      -4.675  -6.873  -2.548  0.00  0.00     0.146 C 
HETATM    5  C   UNK     0      -3.738  -7.710  -3.054  0.00  0.00     0.162 C 
HETATM    6  C   UNK     0      -3.936  -9.097  -3.053  0.00  0.00     0.217 C 
HETATM    7  N   UNK     0      -2.621  -7.241  -3.597  0.00  0.00    -0.143 N 
HETATM    8  C   UNK     0      -5.206  -9.636  -2.689  0.00  0.00     0.044 A 
HETATM    9  O   UNK     0      -3.001  -9.865  -3.389  0.00  0.00    -0.285 OA
HETATM   10  C   UNK     0      -5.544 -10.989  -2.924  0.00  0.00     0.003 A 
HETATM   11  C   UNK     0      -6.169  -8.769  -2.100  0.00  0.00     0.044 A 
HETATM   12  C   UNK     0      -6.818 -11.477  -2.580  0.00  0.00     0.000 A 
HETATM   13  C   UNK     0      -7.756 -10.628  -1.971  0.00  0.00     0.000 A 
HETATM   14  C   UNK     0      -7.432  -9.284  -1.724  0.00  0.00     0.003 A 
HETATM   15  C   UNK     0      -5.832  -7.389  -1.940  0.00  0.00     0.215 C 
HETATM   16  O   UNK     0      -6.576  -6.631  -1.271  0.00  0.00    -0.285 OA
ENDBRANCH   1   4
BRANCH   2  17
HETATM   17  C   UNK     0      -4.875  -5.271  -5.149  0.00  0.00     0.219 C 
BRANCH  17  18
HETATM   18  N   UNK     0      -6.166  -5.883  -5.222  0.00  0.00    -0.221 N 
HETATM   19  C   UNK     0      -6.444  -7.117  -5.671  0.00  0.00     0.114 A 
HETATM   20  C   UNK     0      -7.805  -7.305  -5.490  0.00  0.00     0.101 A 
HETATM   21  N   UNK     0      -8.266  -6.161  -4.958  0.00  0.00    -0.133 NA
HETATM   22  N   UNK     0      -7.272  -5.339  -4.817  0.00  0.00    -0.064 NA
BRANCH  20  23
HETATM   23  C   UNK     0      -8.583  -8.530  -5.795  0.00  0.00     0.044 C 
HETATM   24  C   UNK     0      -9.599  -8.931  -4.700  0.00  0.00     0.006 C 
HETATM   25  C   UNK     0      -9.898 -10.416  -4.978  0.00  0.00     0.000 C 
HETATM   26  C   UNK     0      -8.616 -10.996  -5.616  0.00  0.00     0.000 C 
HETATM   27  C   UNK     0      -7.712  -9.796  -5.982  0.00  0.00     0.006 C 
ENDBRANCH  20  23
ENDBRANCH  17  18
ENDBRANCH   2  17
TORSDOF 4
ENDMDL
MODEL 9
REMARK VINA RESULT:      -6.6      2.007      5.065
REMARK  4 active torsions:
REMARK  status: ('A' for Active; 'I' for Inactive)
REMARK    1  A    between atoms: C_9  and  N_13 
REMARK       I    between atoms: N_13  and  C_14 
REMARK    2  A    between atoms: C_14  and  C_17 
REMARK    3  A    between atoms: C_17  and  N_18 
REMARK    4  A    between atoms: C_20  and  C_23 
ROOT
HETATM    1  N   UNK     0      -6.074  -6.169  -2.699  0.00  0.00    -0.205 NA
HETATM    2  C   UNK     0      -4.912  -5.463  -2.843  0.00  0.00     0.281 C 
HETATM    3  O   UNK     0      -5.035  -4.218  -2.901  0.00  0.00    -0.268 OA
ENDROOT
BRANCH   1   4
HETATM    4  C   UNK     0      -6.192  -7.496  -2.571  0.00  0.00     0.146 C 
HETATM    5  C   UNK     0      -6.147  -8.049  -1.335  0.00  0.00     0.162 C 
HETATM    6  C   UNK     0      -6.180  -9.439  -1.167  0.00  0.00     0.217 C 
HETATM    7  N   UNK     0      -6.033  -7.294  -0.250  0.00  0.00    -0.143 N 
HETATM    8  C   UNK     0      -6.075 -10.298  -2.302  0.00  0.00     0.044 A 
HETATM    9  O   UNK     0      -6.283  -9.931  -0.016  0.00  0.00    -0.285 OA
HETATM   10  C   UNK     0      -5.835 -11.686  -2.176  0.00  0.00     0.003 A 
HETATM   11  C   UNK     0      -6.186  -9.724  -3.600  0.00  0.00     0.044 A 
HETATM   12  C   UNK     0      -5.708 -12.496  -3.320  0.00  0.00     0.000 A 
HETATM   13  C   UNK     0      -5.847 -11.934  -4.599  0.00  0.00     0.000 A 
HETATM   14  C   UNK     0      -6.094 -10.558  -4.740  0.00  0.00     0.003 A 
HETATM   15  C   UNK     0      -6.354  -8.309  -3.705  0.00  0.00     0.215 C 
HETATM   16  O   UNK     0      -6.631  -7.786  -4.813  0.00  0.00    -0.285 OA
ENDBRANCH   1   4
BRANCH   2  17
HETATM   17  C   UNK     0      -3.534  -6.014  -2.901  0.00  0.00     0.219 C 
BRANCH  17  18
HETATM   18  N   UNK     0      -3.297  -6.736  -4.113  0.00  0.00    -0.221 N 
HETATM   19  C   UNK     0      -2.826  -7.988  -4.222  0.00  0.00     0.114 A 
HETATM   20  C   UNK     0      -2.829  -8.294  -5.573  0.00  0.00     0.101 A 
HETATM   21  N   UNK     0      -3.288  -7.197  -6.198  0.00  0.00    -0.133 NA
HETATM   22  N   UNK     0      -3.551  -6.292  -5.307  0.00  0.00    -0.064 NA
BRANCH  20  23
HETATM   23  C   UNK     0      -2.434  -9.581  -6.196  0.00  0.00     0.044 C 
HETATM   24  C   UNK     0      -3.458 -10.143  -7.208  0.00  0.00     0.006 C 
HETATM   25  C   UNK     0      -3.103 -11.636  -7.327  0.00  0.00     0.000 C 
HETATM   26  C   UNK     0      -2.507 -12.042  -5.961  0.00  0.00     0.000 C 
HETATM   27  C   UNK     0      -2.237 -10.734  -5.182  0.00  0.00     0.006 C 
ENDBRANCH  20  23
ENDBRANCH  17  18
ENDBRANCH   2  17
TORSDOF 4
ENDMDL
