MODEL 1
REMARK VINA RESULT:      -7.1      0.000      0.000
REMARK  6 active torsions:
REMARK  status: ('A' for Active; 'I' for Inactive)
REMARK    1  A    between atoms: C_9  and  N_13 
REMARK       I    between atoms: N_13  and  C_14 
REMARK    2  A    between atoms: C_14  and  C_17 
REMARK    3  A    between atoms: C_17  and  N_18 
REMARK    4  A    between atoms: C_20  and  C_23 
REMARK    5  A    between atoms: C_23  and  O_24 
REMARK    6  A    between atoms: O_24  and  C_26 
ROOT
HETATM    1  N   UNK     0      -4.608  -9.054  -1.667  0.00  0.00    -0.205 NA
HETATM    2  C   UNK     0      -5.728  -8.409  -2.114  0.00  0.00     0.281 C 
HETATM    3  O   UNK     0      -6.547  -8.965  -2.886  0.00  0.00    -0.268 OA
ENDROOT
BRANCH   1   4
HETATM    4  C   UNK     0      -4.301 -10.334  -1.917  0.00  0.00     0.146 C 
HETATM    5  C   UNK     0      -3.462 -10.638  -2.936  0.00  0.00     0.162 C 
HETATM    6  C   UNK     0      -3.181 -11.973  -3.266  0.00  0.00     0.217 C 
HETATM    7  N   UNK     0      -2.912  -9.670  -3.658  0.00  0.00    -0.143 N 
HETATM    8  C   UNK     0      -3.859 -13.038  -2.595  0.00  0.00     0.044 A 
HETATM    9  O   UNK     0      -2.340 -12.230  -4.163  0.00  0.00    -0.285 OA
HETATM   10  C   UNK     0      -3.715 -14.392  -2.983  0.00  0.00     0.003 A 
HETATM   11  C   UNK     0      -4.711 -12.718  -1.501  0.00  0.00     0.044 A 
HETATM   12  C   UNK     0      -4.414 -15.409  -2.310  0.00  0.00     0.000 A 
HETATM   13  C   UNK     0      -5.259 -15.090  -1.236  0.00  0.00     0.000 A 
HETATM   14  C   UNK     0      -5.402 -13.755  -0.828  0.00  0.00     0.003 A 
HETATM   15  C   UNK     0      -4.840 -11.353  -1.116  0.00  0.00     0.215 C 
HETATM   16  O   UNK     0      -5.406 -11.060  -0.033  0.00  0.00    -0.285 OA
ENDBRANCH   1   4
BRANCH   2  17
HETATM   17  C   UNK     0      -5.983  -7.025  -1.672  0.00  0.00     0.219 C 
BRANCH  17  18
HETATM   18  N   UNK     0      -5.341  -6.076  -2.525  0.00  0.00    -0.221 N 
HETATM   19  C   UNK     0      -5.515  -5.937  -3.849  0.00  0.00     0.124 A 
HETATM   20  C   UNK     0      -4.667  -4.912  -4.245  0.00  0.00     0.186 A 
HETATM   21  N   UNK     0      -4.044  -4.496  -3.132  0.00  0.00    -0.123 NA
HETATM   22  N   UNK     0      -4.467  -5.202  -2.131  0.00  0.00    -0.063 NA
BRANCH  20  23
HETATM   23  C   UNK     0      -4.474  -4.381  -5.530  0.00  0.00     0.317 C 
HETATM   24  O   UNK     0      -4.392  -3.139  -5.666  0.00  0.00    -0.257 OA
BRANCH  23  25
HETATM   25  O   UNK     0      -4.389  -5.206  -6.614  0.00  0.00    -0.297 OA
BRANCH  25  26
HETATM   26  C   UNK     0      -3.181  -5.760  -7.151  0.00  0.00     0.152 C 
HETATM   27  C   UNK     0      -2.889  -7.119  -6.491  0.00  0.00     0.035 C 
ENDBRANCH  25  26
ENDBRANCH  23  25
ENDBRANCH  20  23
ENDBRANCH  17  18
ENDBRANCH   2  17
TORSDOF 6
ENDMDL
MODEL 2
REMARK VINA RESULT:      -7.0      1.685      7.060
REMARK  6 active torsions:
REMARK  status: ('A' for Active; 'I' for Inactive)
REMARK    1  A    between atoms: C_9  and  N_13 
REMARK       I    between atoms: N_13  and  C_14 
REMARK    2  A    between atoms: C_14  and  C_17 
REMARK    3  A    between atoms: C_17  and  N_18 
REMARK    4  A    between atoms: C_20  and  C_23 
REMARK    5  A    between atoms: C_23  and  O_24 
REMARK    6  A    between atoms: O_24  and  C_26 
ROOT
HETATM    1  N   UNK     0      -4.302  -6.660  -2.468  0.00  0.00    -0.205 NA
HETATM    2  C   UNK     0      -5.530  -7.141  -2.107  0.00  0.00     0.281 C 
HETATM    3  O   UNK     0      -6.430  -7.361  -2.954  0.00  0.00    -0.268 OA
ENDROOT
BRANCH   1   4
HETATM    4  C   UNK     0      -3.893  -6.452  -3.727  0.00  0.00     0.146 C 
HETATM    5  C   UNK     0      -4.144  -5.264  -4.328  0.00  0.00     0.162 C 
HETATM    6  C   UNK     0      -3.792  -5.045  -5.669  0.00  0.00     0.217 C 
HETATM    7  N   UNK     0      -4.756  -4.295  -3.660  0.00  0.00    -0.143 N 
HETATM    8  C   UNK     0      -3.253  -6.112  -6.455  0.00  0.00     0.044 A 
HETATM    9  O   UNK     0      -3.964  -3.912  -6.182  0.00  0.00    -0.285 OA
HETATM   10  C   UNK     0      -3.010  -5.982  -7.844  0.00  0.00     0.003 A 
HETATM   11  C   UNK     0      -2.956  -7.346  -5.812  0.00  0.00     0.044 A 
HETATM   12  C   UNK     0      -2.498  -7.061  -8.585  0.00  0.00     0.000 A 
HETATM   13  C   UNK     0      -2.212  -8.279  -7.950  0.00  0.00     0.000 A 
HETATM   14  C   UNK     0      -2.432  -8.420  -6.571  0.00  0.00     0.003 A 
HETATM   15  C   UNK     0      -3.196  -7.459  -4.412  0.00  0.00     0.215 C 
HETATM   16  O   UNK     0      -2.749  -8.448  -3.779  0.00  0.00    -0.285 OA
ENDBRANCH   1   4
BRANCH   2  17
HETATM   17  C   UNK     0      -5.803  -7.416  -0.683  0.00  0.00     0.219 C 
BRANCH  17  18
HETATM   18  N   UNK     0      -5.469  -8.760  -0.335  0.00  0.00    -0.221 N 
HETATM   19  C   UNK     0      -5.766  -9.869  -1.030  0.00  0.00     0.124 A 
HETATM   20  C   UNK     0      -5.265 -10.934  -0.293  0.00  0.00     0.186 A 
HETATM   21  N   UNK     0      -4.693 -10.395   0.794  0.00  0.00    -0.123 NA
HETATM   22  N   UNK     0      -4.827  -9.107   0.739  0.00  0.00    -0.063 NA
BRANCH  20  23
HETATM   23  C   UNK     0      -5.315 -12.305  -0.589  0.00  0.00     0.317 C 
HETATM   24  O   UNK     0      -6.261 -12.989  -0.136  0.00  0.00    -0.257 OA
BRANCH  23  25
HETATM   25  O   UNK     0      -4.341 -12.883  -1.351  0.00  0.00    -0.297 OA
BRANCH  25  26
HETATM   26  C   UNK     0      -4.279 -12.867  -2.783  0.00  0.00     0.152 C 
HETATM   27  C   UNK     0      -3.096 -11.999  -3.245  0.00  0.00     0.035 C 
ENDBRANCH  25  26
ENDBRANCH  23  25
ENDBRANCH  20  23
ENDBRANCH  17  18
ENDBRANCH   2  17
TORSDOF 6
ENDMDL
MODEL 3
REMARK VINA RESULT:      -6.9      2.435      7.473
REMARK  6 active torsions:
REMARK  status: ('A' for Active; 'I' for Inactive)
REMARK    1  A    between atoms: C_9  and  N_13 
REMARK       I    between atoms: N_13  and  C_14 
REMARK    2  A    between atoms: C_14  and  C_17 
REMARK    3  A    between atoms: C_17  and  N_18 
REMARK    4  A    between atoms: C_20  and  C_23 
REMARK    5  A    between atoms: C_23  and  O_24 
REMARK    6  A    between atoms: O_24  and  C_26 
ROOT
HETATM    1  N   UNK     0      -4.449  -6.594  -2.520  0.00  0.00    -0.205 NA
HETATM    2  C   UNK     0      -5.674  -7.098  -2.180  0.00  0.00     0.281 C 
HETATM    3  O   UNK     0      -6.521  -7.420  -3.049  0.00  0.00    -0.268 OA
ENDROOT
BRANCH   1   4
HETATM    4  C   UNK     0      -3.986  -6.466  -3.771  0.00  0.00     0.146 C 
HETATM    5  C   UNK     0      -4.187  -5.311  -4.448  0.00  0.00     0.162 C 
HETATM    6  C   UNK     0      -3.778  -5.175  -5.784  0.00  0.00     0.217 C 
HETATM    7  N   UNK     0      -4.804  -4.293  -3.861  0.00  0.00    -0.143 N 
HETATM    8  C   UNK     0      -3.231  -6.296  -6.485  0.00  0.00     0.044 A 
HETATM    9  O   UNK     0      -3.905  -4.070  -6.366  0.00  0.00    -0.285 OA
HETATM   10  C   UNK     0      -2.931  -6.251  -7.868  0.00  0.00     0.003 A 
HETATM   11  C   UNK     0      -2.986  -7.497  -5.762  0.00  0.00     0.044 A 
HETATM   12  C   UNK     0      -2.413  -7.380  -8.526  0.00  0.00     0.000 A 
HETATM   13  C   UNK     0      -2.179  -8.565  -7.812  0.00  0.00     0.000 A 
HETATM   14  C   UNK     0      -2.456  -8.622  -6.438  0.00  0.00     0.003 A 
HETATM   15  C   UNK     0      -3.284  -7.524  -4.370  0.00  0.00     0.215 C 
HETATM   16  O   UNK     0      -2.884  -8.484  -3.664  0.00  0.00    -0.285 OA
ENDBRANCH   1   4
BRANCH   2  17
HETATM   17  C   UNK     0      -6.006  -7.273  -0.753  0.00  0.00     0.219 C 
BRANCH  17  18
HETATM   18  N   UNK     0      -6.055  -8.654  -0.392  0.00  0.00    -0.221 N 
HETATM   19  C   UNK     0      -5.009  -9.469  -0.180  0.00  0.00     0.124 A 
HETATM   20  C   UNK     0      -5.543 -10.715   0.117  0.00  0.00     0.186 A 
HETATM   21  N   UNK     0      -6.875 -10.568   0.072  0.00  0.00    -0.123 NA
HETATM   22  N   UNK     0      -7.147  -9.336  -0.229  0.00  0.00    -0.063 NA
BRANCH  20  23
HETATM   23  C   UNK     0      -4.868 -11.908   0.418  0.00  0.00     0.317 C 
HETATM   24  O   UNK     0      -4.832 -12.819  -0.441  0.00  0.00    -0.257 OA
BRANCH  23  25
HETATM   25  O   UNK     0      -4.268 -12.076   1.633  0.00  0.00    -0.297 OA
BRANCH  25  26
HETATM   26  C   UNK     0      -4.906 -11.930   2.909  0.00  0.00     0.152 C 
HETATM   27  C   UNK     0      -4.263 -10.769   3.685  0.00  0.00     0.035 C 
ENDBRANCH  25  26
ENDBRANCH  23  25
ENDBRANCH  20  23
ENDBRANCH  17  18
ENDBRANCH   2  17
TORSDOF 6
ENDMDL
MODEL 4
REMARK VINA RESULT:      -6.9      3.873      5.198
REMARK  6 active torsions:
REMARK  status: ('A' for Active; 'I' for Inactive)
REMARK    1  A    between atoms: C_9  and  N_13 
REMARK       I    between atoms: N_13  and  C_14 
REMARK    2  A    between atoms: C_14  and  C_17 
REMARK    3  A    between atoms: C_17  and  N_18 
REMARK    4  A    between atoms: C_20  and  C_23 
REMARK    5  A    between atoms: C_23  and  O_24 
REMARK    6  A    between atoms: O_24  and  C_26 
ROOT
HETATM    1  N   UNK     0      -5.306 -11.193   0.218  0.00  0.00    -0.205 NA
HETATM    2  C   UNK     0      -6.612 -10.846   0.005  0.00  0.00     0.281 C 
HETATM    3  O   UNK     0      -7.499 -11.047   0.870  0.00  0.00    -0.268 OA
ENDROOT
BRANCH   1   4
HETATM    4  C   UNK     0      -4.815 -11.691   1.361  0.00  0.00     0.146 C 
HETATM    5  C   UNK     0      -4.674 -13.030   1.506  0.00  0.00     0.162 C 
HETATM    6  C   UNK     0      -4.231 -13.583   2.718  0.00  0.00     0.217 C 
HETATM    7  N   UNK     0      -4.981 -13.845   0.505  0.00  0.00    -0.143 N 
HETATM    8  C   UNK     0      -4.019 -12.743   3.856  0.00  0.00     0.044 A 
HETATM    9  O   UNK     0      -4.034 -14.819   2.804  0.00  0.00    -0.285 OA
HETATM   10  C   UNK     0      -3.706 -13.265   5.135  0.00  0.00     0.003 A 
HETATM   11  C   UNK     0      -4.132 -11.334   3.691  0.00  0.00     0.044 A 
HETATM   12  C   UNK     0      -3.525 -12.407   6.234  0.00  0.00     0.000 A 
HETATM   13  C   UNK     0      -3.643 -11.018   6.070  0.00  0.00     0.000 A 
HETATM   14  C   UNK     0      -3.938 -10.483   4.806  0.00  0.00     0.003 A 
HETATM   15  C   UNK     0      -4.437 -10.823   2.398  0.00  0.00     0.215 C 
HETATM   16  O   UNK     0      -4.333  -9.591   2.171  0.00  0.00    -0.285 OA
ENDBRANCH   1   4
BRANCH   2  17
HETATM   17  C   UNK     0      -6.986 -10.214  -1.275  0.00  0.00     0.219 C 
BRANCH  17  18
HETATM   18  N   UNK     0      -6.445  -8.897  -1.386  0.00  0.00    -0.221 N 
HETATM   19  C   UNK     0      -5.445  -8.503  -2.191  0.00  0.00     0.124 A 
HETATM   20  C   UNK     0      -5.251  -7.152  -1.934  0.00  0.00     0.186 A 
HETATM   21  N   UNK     0      -6.152  -6.820  -0.997  0.00  0.00    -0.123 NA
HETATM   22  N   UNK     0      -6.845  -7.873  -0.696  0.00  0.00    -0.063 NA
BRANCH  20  23
HETATM   23  C   UNK     0      -4.324  -6.274  -2.516  0.00  0.00     0.317 C 
HETATM   24  O   UNK     0      -3.284  -6.745  -3.033  0.00  0.00    -0.257 OA
BRANCH  23  25
HETATM   25  O   UNK     0      -4.549  -4.928  -2.510  0.00  0.00    -0.297 OA
BRANCH  25  26
HETATM   26  C   UNK     0      -4.371  -4.044  -3.625  0.00  0.00     0.152 C 
HETATM   27  C   UNK     0      -5.325  -4.441  -4.764  0.00  0.00     0.035 C 
ENDBRANCH  25  26
ENDBRANCH  23  25
ENDBRANCH  20  23
ENDBRANCH  17  18
ENDBRANCH   2  17
TORSDOF 6
ENDMDL
MODEL 5
REMARK VINA RESULT:      -6.8     14.737     18.040
REMARK  6 active torsions:
REMARK  status: ('A' for Active; 'I' for Inactive)
REMARK    1  A    between atoms: C_9  and  N_13 
REMARK       I    between atoms: N_13  and  C_14 
REMARK    2  A    between atoms: C_14  and  C_17 
REMARK    3  A    between atoms: C_17  and  N_18 
REMARK    4  A    between atoms: C_20  and  C_23 
REMARK    5  A    between atoms: C_23  and  O_24 
REMARK    6  A    between atoms: O_24  and  C_26 
ROOT
HETATM    1  N   UNK     0       2.283   5.472  -9.382  0.00  0.00    -0.205 NA
HETATM    2  C   UNK     0       2.243   6.839  -9.419  0.00  0.00     0.281 C 
HETATM    3  O   UNK     0       1.334   7.457 -10.026  0.00  0.00    -0.268 OA
ENDROOT
BRANCH   1   4
HETATM    4  C   UNK     0       1.351   4.657  -9.895  0.00  0.00     0.146 C 
HETATM    5  C   UNK     0       0.297   4.277  -9.133  0.00  0.00     0.162 C 
HETATM    6  C   UNK     0      -0.654   3.367  -9.618  0.00  0.00     0.217 C 
HETATM    7  N   UNK     0       0.167   4.742  -7.897  0.00  0.00    -0.143 N 
HETATM    8  C   UNK     0      -0.469   2.746 -10.894  0.00  0.00     0.044 A 
HETATM    9  O   UNK     0      -1.662   3.088  -8.924  0.00  0.00    -0.285 OA
HETATM   10  C   UNK     0      -1.325   1.722 -11.370  0.00  0.00     0.003 A 
HETATM   11  C   UNK     0       0.616   3.175 -11.708  0.00  0.00     0.044 A 
HETATM   12  C   UNK     0      -1.098   1.123 -12.621  0.00  0.00     0.000 A 
HETATM   13  C   UNK     0      -0.023   1.544 -13.418  0.00  0.00     0.000 A 
HETATM   14  C   UNK     0       0.825   2.568 -12.969  0.00  0.00     0.003 A 
HETATM   15  C   UNK     0       1.462   4.212 -11.221  0.00  0.00     0.215 C 
HETATM   16  O   UNK     0       2.289   4.758 -11.993  0.00  0.00    -0.285 OA
ENDBRANCH   1   4
BRANCH   2  17
HETATM   17  C   UNK     0       3.293   7.607  -8.722  0.00  0.00     0.219 C 
BRANCH  17  18
HETATM   18  N   UNK     0       2.854   8.043  -7.435  0.00  0.00    -0.221 N 
HETATM   19  C   UNK     0       2.319   9.235  -7.128  0.00  0.00     0.124 A 
HETATM   20  C   UNK     0       2.078   9.211  -5.761  0.00  0.00     0.186 A 
HETATM   21  N   UNK     0       2.478   8.004  -5.335  0.00  0.00    -0.123 NA
HETATM   22  N   UNK     0       2.929   7.334  -6.350  0.00  0.00    -0.063 NA
BRANCH  20  23
HETATM   23  C   UNK     0       1.524  10.215  -4.951  0.00  0.00     0.317 C 
HETATM   24  O   UNK     0       0.362  10.617  -5.193  0.00  0.00    -0.257 OA
BRANCH  23  25
HETATM   25  O   UNK     0       2.244  10.749  -3.923  0.00  0.00    -0.297 OA
BRANCH  25  26
HETATM   26  C   UNK     0       2.658  12.117  -3.813  0.00  0.00     0.152 C 
HETATM   27  C   UNK     0       3.750  12.418  -4.852  0.00  0.00     0.035 C 
ENDBRANCH  25  26
ENDBRANCH  23  25
ENDBRANCH  20  23
ENDBRANCH  17  18
ENDBRANCH   2  17
TORSDOF 6
ENDMDL
MODEL 6
REMARK VINA RESULT:      -6.7      3.042      5.940
REMARK  6 active torsions:
REMARK  status: ('A' for Active; 'I' for Inactive)
REMARK    1  A    between atoms: C_9  and  N_13 
REMARK       I    between atoms: N_13  and  C_14 
REMARK    2  A    between atoms: C_14  and  C_17 
REMARK    3  A    between atoms: C_17  and  N_18 
REMARK    4  A    between atoms: C_20  and  C_23 
REMARK    5  A    between atoms: C_23  and  O_24 
REMARK    6  A    between atoms: O_24  and  C_26 
ROOT
HETATM    1  N   UNK     0      -3.004  -6.369  -6.234  0.00  0.00    -0.205 NA
HETATM    2  C   UNK     0      -4.248  -5.837  -6.432  0.00  0.00     0.281 C 
HETATM    3  O   UNK     0      -4.990  -6.223  -7.368  0.00  0.00    -0.268 OA
ENDROOT
BRANCH   1   4
HETATM    4  C   UNK     0      -2.477  -7.385  -6.930  0.00  0.00     0.146 C 
HETATM    5  C   UNK     0      -1.704  -7.129  -8.013  0.00  0.00     0.162 C 
HETATM    6  C   UNK     0      -1.200  -8.173  -8.804  0.00  0.00     0.217 C 
HETATM    7  N   UNK     0      -1.435  -5.876  -8.359  0.00  0.00    -0.143 N 
HETATM    8  C   UNK     0      -1.581  -9.526  -8.535  0.00  0.00     0.044 A 
HETATM    9  O   UNK     0      -0.423  -7.916  -9.755  0.00  0.00    -0.285 OA
HETATM   10  C   UNK     0      -1.211 -10.599  -9.383  0.00  0.00     0.003 A 
HETATM   11  C   UNK     0      -2.361  -9.796  -7.377  0.00  0.00     0.044 A 
HETATM   12  C   UNK     0      -1.622 -11.912  -9.096  0.00  0.00     0.000 A 
HETATM   13  C   UNK     0      -2.397 -12.175  -7.956  0.00  0.00     0.000 A 
HETATM   14  C   UNK     0      -2.759 -11.125  -7.097  0.00  0.00     0.003 A 
HETATM   15  C   UNK     0      -2.717  -8.708  -6.528  0.00  0.00     0.215 C 
HETATM   16  O   UNK     0      -3.215  -8.935  -5.397  0.00  0.00    -0.285 OA
ENDBRANCH   1   4
BRANCH   2  17
HETATM   17  C   UNK     0      -4.733  -4.785  -5.518  0.00  0.00     0.219 C 
BRANCH  17  18
HETATM   18  N   UNK     0      -4.750  -5.236  -4.163  0.00  0.00    -0.221 N 
HETATM   19  C   UNK     0      -5.436  -6.279  -3.670  0.00  0.00     0.124 A 
HETATM   20  C   UNK     0      -5.165  -6.312  -2.309  0.00  0.00     0.186 A 
HETATM   21  N   UNK     0      -4.327  -5.291  -2.073  0.00  0.00    -0.123 NA
HETATM   22  N   UNK     0      -4.098  -4.676  -3.191  0.00  0.00    -0.063 NA
BRANCH  20  23
HETATM   23  C   UNK     0      -5.638  -7.213  -1.343  0.00  0.00     0.317 C 
HETATM   24  O   UNK     0      -6.590  -6.867  -0.605  0.00  0.00    -0.257 OA
BRANCH  23  25
HETATM   25  O   UNK     0      -5.063  -8.443  -1.204  0.00  0.00    -0.297 OA
BRANCH  25  26
HETATM   26  C   UNK     0      -5.358  -9.600  -1.998  0.00  0.00     0.152 C 
HETATM   27  C   UNK     0      -4.066 -10.385  -2.278  0.00  0.00     0.035 C 
ENDBRANCH  25  26
ENDBRANCH  23  25
ENDBRANCH  20  23
ENDBRANCH  17  18
ENDBRANCH   2  17
TORSDOF 6
ENDMDL
MODEL 7
REMARK VINA RESULT:      -6.7     14.918     18.363
REMARK  6 active torsions:
REMARK  status: ('A' for Active; 'I' for Inactive)
REMARK    1  A    between atoms: C_9  and  N_13 
REMARK       I    between atoms: N_13  and  C_14 
REMARK    2  A    between atoms: C_14  and  C_17 
REMARK    3  A    between atoms: C_17  and  N_18 
REMARK    4  A    between atoms: C_20  and  C_23 
REMARK    5  A    between atoms: C_23  and  O_24 
REMARK    6  A    between atoms: O_24  and  C_26 
ROOT
HETATM    1  N   UNK     0       1.103   5.819  -7.665  0.00  0.00    -0.205 NA
HETATM    2  C   UNK     0       0.431   6.989  -7.439  0.00  0.00     0.281 C 
HETATM    3  O   UNK     0      -0.297   7.513  -8.317  0.00  0.00    -0.268 OA
ENDROOT
BRANCH   1   4
HETATM    4  C   UNK     0       1.006   5.073  -8.773  0.00  0.00     0.146 C 
HETATM    5  C   UNK     0       1.757   5.378  -9.858  0.00  0.00     0.162 C 
HETATM    6  C   UNK     0       1.622   4.659 -11.056  0.00  0.00     0.217 C 
HETATM    7  N   UNK     0       2.618   6.386  -9.809  0.00  0.00    -0.143 N 
HETATM    8  C   UNK     0       0.611   3.655 -11.181  0.00  0.00     0.044 A 
HETATM    9  O   UNK     0       2.384   4.909 -12.022  0.00  0.00    -0.285 OA
HETATM   10  C   UNK     0       0.344   2.999 -12.408  0.00  0.00     0.003 A 
HETATM   11  C   UNK     0      -0.152   3.311 -10.031  0.00  0.00     0.044 A 
HETATM   12  C   UNK     0      -0.672   2.031 -12.496  0.00  0.00     0.000 A 
HETATM   13  C   UNK     0      -1.428   1.699 -11.361  0.00  0.00     0.000 A 
HETATM   14  C   UNK     0      -1.165   2.328 -10.134  0.00  0.00     0.003 A 
HETATM   15  C   UNK     0       0.135   3.972  -8.802  0.00  0.00     0.215 C 
HETATM   16  O   UNK     0      -0.364   3.545  -7.731  0.00  0.00    -0.285 OA
ENDBRANCH   1   4
BRANCH   2  17
HETATM   17  C   UNK     0       0.561   7.648  -6.125  0.00  0.00     0.219 C 
BRANCH  17  18
HETATM   18  N   UNK     0       1.577   8.652  -6.142  0.00  0.00    -0.221 N 
HETATM   19  C   UNK     0       1.430   9.952  -5.839  0.00  0.00     0.124 A 
HETATM   20  C   UNK     0       2.676  10.535  -6.023  0.00  0.00     0.186 A 
HETATM   21  N   UNK     0       3.493   9.548  -6.418  0.00  0.00    -0.123 NA
HETATM   22  N   UNK     0       2.814   8.445  -6.475  0.00  0.00    -0.063 NA
BRANCH  20  23
HETATM   23  C   UNK     0       3.052  11.875  -5.838  0.00  0.00     0.317 C 
HETATM   24  O   UNK     0       2.417  12.772  -6.440  0.00  0.00    -0.257 OA
BRANCH  23  25
HETATM   25  O   UNK     0       4.100  12.192  -5.023  0.00  0.00    -0.297 OA
BRANCH  25  26
HETATM   26  C   UNK     0       4.050  13.092  -3.908  0.00  0.00     0.152 C 
HETATM   27  C   UNK     0       3.122  12.526  -2.820  0.00  0.00     0.035 C 
ENDBRANCH  25  26
ENDBRANCH  23  25
ENDBRANCH  20  23
ENDBRANCH  17  18
ENDBRANCH   2  17
TORSDOF 6
ENDMDL
MODEL 8
REMARK VINA RESULT:      -6.7      1.156      2.322
REMARK  6 active torsions:
REMARK  status: ('A' for Active; 'I' for Inactive)
REMARK    1  A    between atoms: C_9  and  N_13 
REMARK       I    between atoms: N_13  and  C_14 
REMARK    2  A    between atoms: C_14  and  C_17 
REMARK    3  A    between atoms: C_17  and  N_18 
REMARK    4  A    between atoms: C_20  and  C_23 
REMARK    5  A    between atoms: C_23  and  O_24 
REMARK    6  A    between atoms: O_24  and  C_26 
ROOT
HETATM    1  N   UNK     0      -4.716  -9.045  -1.765  0.00  0.00    -0.205 NA
HETATM    2  C   UNK     0      -5.881  -8.353  -1.956  0.00  0.00     0.281 C 
HETATM    3  O   UNK     0      -6.873  -8.873  -2.523  0.00  0.00    -0.268 OA
ENDROOT
BRANCH   1   4
HETATM    4  C   UNK     0      -4.526 -10.336  -2.069  0.00  0.00     0.146 C 
HETATM    5  C   UNK     0      -4.916 -11.297  -1.198  0.00  0.00     0.162 C 
HETATM    6  C   UNK     0      -4.662 -12.653  -1.456  0.00  0.00     0.217 C 
HETATM    7  N   UNK     0      -5.523 -10.963  -0.066  0.00  0.00    -0.143 N 
HETATM    8  C   UNK     0      -3.894 -13.035  -2.601  0.00  0.00     0.044 A 
HETATM    9  O   UNK     0      -5.102 -13.530  -0.673  0.00  0.00    -0.285 OA
HETATM   10  C   UNK     0      -3.494 -14.373  -2.832  0.00  0.00     0.003 A 
HETATM   11  C   UNK     0      -3.517 -12.028  -3.533  0.00  0.00     0.044 A 
HETATM   12  C   UNK     0      -2.722 -14.706  -3.959  0.00  0.00     0.000 A 
HETATM   13  C   UNK     0      -2.346 -13.710  -4.874  0.00  0.00     0.000 A 
HETATM   14  C   UNK     0      -2.747 -12.381  -4.667  0.00  0.00     0.003 A 
HETATM   15  C   UNK     0      -3.934 -10.688  -3.292  0.00  0.00     0.215 C 
HETATM   16  O   UNK     0      -3.806  -9.822  -4.193  0.00  0.00    -0.285 OA
ENDBRANCH   1   4
BRANCH   2  17
HETATM   17  C   UNK     0      -5.974  -6.960  -1.478  0.00  0.00     0.219 C 
BRANCH  17  18
HETATM   18  N   UNK     0      -5.341  -6.053  -2.382  0.00  0.00    -0.221 N 
HETATM   19  C   UNK     0      -5.657  -5.848  -3.671  0.00  0.00     0.124 A 
HETATM   20  C   UNK     0      -4.757  -4.904  -4.144  0.00  0.00     0.186 A 
HETATM   21  N   UNK     0      -3.963  -4.595  -3.108  0.00  0.00    -0.123 NA
HETATM   22  N   UNK     0      -4.336  -5.289  -2.078  0.00  0.00    -0.063 NA
BRANCH  20  23
HETATM   23  C   UNK     0      -4.665  -4.349  -5.430  0.00  0.00     0.317 C 
HETATM   24  O   UNK     0      -4.519  -3.110  -5.547  0.00  0.00    -0.257 OA
BRANCH  23  25
HETATM   25  O   UNK     0      -4.743  -5.147  -6.535  0.00  0.00    -0.297 OA
BRANCH  25  26
HETATM   26  C   UNK     0      -3.991  -6.347  -6.755  0.00  0.00     0.152 C 
HETATM   27  C   UNK     0      -2.709  -6.024  -7.541  0.00  0.00     0.035 C 
ENDBRANCH  25  26
ENDBRANCH  23  25
ENDBRANCH  20  23
ENDBRANCH  17  18
ENDBRANCH   2  17
TORSDOF 6
ENDMDL
MODEL 9
REMARK VINA RESULT:      -6.7     15.139     17.608
REMARK  6 active torsions:
REMARK  status: ('A' for Active; 'I' for Inactive)
REMARK    1  A    between atoms: C_9  and  N_13 
REMARK       I    between atoms: N_13  and  C_14 
REMARK    2  A    between atoms: C_14  and  C_17 
REMARK    3  A    between atoms: C_17  and  N_18 
REMARK    4  A    between atoms: C_20  and  C_23 
REMARK    5  A    between atoms: C_23  and  O_24 
REMARK    6  A    between atoms: O_24  and  C_26 
ROOT
HETATM    1  N   UNK     0      -4.459   3.403   9.686  0.00  0.00    -0.205 NA
HETATM    2  C   UNK     0      -5.644   2.749   9.489  0.00  0.00     0.281 C 
HETATM    3  O   UNK     0      -5.870   1.623   9.997  0.00  0.00    -0.268 OA
ENDROOT
BRANCH   1   4
HETATM    4  C   UNK     0      -3.467   2.982  10.482  0.00  0.00     0.146 C 
HETATM    5  C   UNK     0      -2.451   2.252   9.963  0.00  0.00     0.162 C 
HETATM    6  C   UNK     0      -1.437   1.737  10.785  0.00  0.00     0.217 C 
HETATM    7  N   UNK     0      -2.416   1.990   8.662  0.00  0.00    -0.143 N 
HETATM    8  C   UNK     0      -1.517   1.889  12.205  0.00  0.00     0.044 A 
HETATM    9  O   UNK     0      -0.465   1.130  10.272  0.00  0.00    -0.285 OA
HETATM   10  C   UNK     0      -0.596   1.271  13.086  0.00  0.00     0.003 A 
HETATM   11  C   UNK     0      -2.564   2.686  12.746  0.00  0.00     0.044 A 
HETATM   12  C   UNK     0      -0.720   1.428  14.478  0.00  0.00     0.000 A 
HETATM   13  C   UNK     0      -1.758   2.210  15.008  0.00  0.00     0.000 A 
HETATM   14  C   UNK     0      -2.670   2.841  14.149  0.00  0.00     0.003 A 
HETATM   15  C   UNK     0      -3.477   3.309  11.847  0.00  0.00     0.215 C 
HETATM   16  O   UNK     0      -4.273   4.183  12.271  0.00  0.00    -0.285 OA
ENDBRANCH   1   4
BRANCH   2  17
HETATM   17  C   UNK     0      -6.686   3.386   8.661  0.00  0.00     0.219 C 
BRANCH  17  18
HETATM   18  N   UNK     0      -6.779   2.774   7.374  0.00  0.00    -0.221 N 
HETATM   19  C   UNK     0      -7.692   3.032   6.424  0.00  0.00     0.124 A 
HETATM   20  C   UNK     0      -7.401   2.181   5.367  0.00  0.00     0.186 A 
HETATM   21  N   UNK     0      -6.328   1.472   5.746  0.00  0.00    -0.123 NA
HETATM   22  N   UNK     0      -5.981   1.848   6.937  0.00  0.00    -0.063 NA
BRANCH  20  23
HETATM   23  C   UNK     0      -8.060   2.059   4.133  0.00  0.00     0.317 C 
HETATM   24  O   UNK     0      -7.635   1.226   3.299  0.00  0.00    -0.257 OA
BRANCH  23  25
HETATM   25  O   UNK     0      -9.139   2.843   3.845  0.00  0.00    -0.297 OA
BRANCH  25  26
HETATM   26  C   UNK     0     -10.499   2.398   3.762  0.00  0.00     0.152 C 
HETATM   27  C   UNK     0     -11.184   2.550   5.131  0.00  0.00     0.035 C 
ENDBRANCH  25  26
ENDBRANCH  23  25
ENDBRANCH  20  23
ENDBRANCH  17  18
ENDBRANCH   2  17
TORSDOF 6
ENDMDL
