MODEL 1
REMARK VINA RESULT:      -6.8      0.000      0.000
REMARK  5 active torsions:
REMARK  status: ('A' for Active; 'I' for Inactive)
REMARK    1  A    between atoms: C_9  and  N_13 
REMARK       I    between atoms: N_13  and  C_14 
REMARK    2  A    between atoms: C_14  and  C_17 
REMARK    3  A    between atoms: C_17  and  N_18 
REMARK    4  A    between atoms: C_20  and  C_23 
REMARK    5  A    between atoms: C_23  and  C_24 
ROOT
HETATM    1  C   UNK     0     -11.426  -4.350  -2.025  0.00  0.00     0.003 A 
HETATM    2  C   UNK     0     -11.078  -3.187  -1.314  0.00  0.00     0.000 A 
HETATM    3  C   UNK     0      -9.961  -2.429  -1.703  0.00  0.00     0.000 A 
HETATM    4  C   UNK     0      -9.197  -2.822  -2.814  0.00  0.00     0.003 A 
HETATM    5  C   UNK     0      -9.534  -3.990  -3.540  0.00  0.00     0.044 A 
HETATM    6  C   UNK     0     -10.647  -4.778  -3.126  0.00  0.00     0.044 A 
HETATM    7  C   UNK     0      -8.775  -4.421  -4.668  0.00  0.00     0.217 C 
HETATM    8  C   UNK     0      -8.984  -5.697  -5.205  0.00  0.00     0.162 C 
HETATM    9  C   UNK     0     -10.013  -6.473  -4.784  0.00  0.00     0.146 C 
HETATM   10  C   UNK     0     -10.923  -5.992  -3.828  0.00  0.00     0.215 C 
HETATM   11  O   UNK     0     -11.967  -6.643  -3.582  0.00  0.00    -0.285 OA
HETATM   12  O   UNK     0      -7.912  -3.661  -5.174  0.00  0.00    -0.285 OA
HETATM   13  N   UNK     0      -8.125  -6.136  -6.117  0.00  0.00    -0.143 N 
ENDROOT
BRANCH   9  14
HETATM   14  N   UNK     0     -10.153  -7.701  -5.300  0.00  0.00    -0.205 NA
HETATM   15  C   UNK     0      -9.701  -8.869  -4.758  0.00  0.00     0.281 C 
HETATM   16  O   UNK     0      -9.916  -9.901  -5.435  0.00  0.00    -0.268 OA
BRANCH  15  17
HETATM   17  C   UNK     0      -8.953  -9.025  -3.484  0.00  0.00     0.219 C 
BRANCH  17  18
HETATM   18  N   UNK     0      -7.754  -9.784  -3.675  0.00  0.00    -0.221 N 
HETATM   19  C   UNK     0      -7.496 -11.024  -3.222  0.00  0.00     0.114 A 
HETATM   20  C   UNK     0      -6.229 -11.351  -3.687  0.00  0.00     0.102 A 
HETATM   21  N   UNK     0      -5.795 -10.279  -4.367  0.00  0.00    -0.133 NA
HETATM   22  N   UNK     0      -6.722  -9.372  -4.346  0.00  0.00    -0.064 NA
BRANCH  20  23
HETATM   23  C   UNK     0      -5.478 -12.615  -3.503  0.00  0.00     0.062 C 
BRANCH  23  24
HETATM   24  C   UNK     0      -4.244 -12.549  -2.584  0.00  0.00     0.074 C 
HETATM   25 Br   UNK     0      -4.406 -12.167  -1.102  0.00  0.00    -0.081 Br
ENDBRANCH  23  24
ENDBRANCH  20  23
ENDBRANCH  17  18
ENDBRANCH  15  17
ENDBRANCH   9  14
TORSDOF 5
ENDMDL
MODEL 2
REMARK VINA RESULT:      -6.6     13.016     13.959
REMARK  5 active torsions:
REMARK  status: ('A' for Active; 'I' for Inactive)
REMARK    1  A    between atoms: C_9  and  N_13 
REMARK       I    between atoms: N_13  and  C_14 
REMARK    2  A    between atoms: C_14  and  C_17 
REMARK    3  A    between atoms: C_17  and  N_18 
REMARK    4  A    between atoms: C_20  and  C_23 
REMARK    5  A    between atoms: C_23  and  C_24 
ROOT
HETATM    1  C   UNK     0      -2.015   6.230  -6.088  0.00  0.00     0.003 A 
HETATM    2  C   UNK     0      -2.457   6.814  -4.888  0.00  0.00     0.000 A 
HETATM    3  C   UNK     0      -3.823   7.072  -4.690  0.00  0.00     0.000 A 
HETATM    4  C   UNK     0      -4.755   6.731  -5.685  0.00  0.00     0.003 A 
HETATM    5  C   UNK     0      -4.325   6.143  -6.898  0.00  0.00     0.044 A 
HETATM    6  C   UNK     0      -2.935   5.912  -7.114  0.00  0.00     0.044 A 
HETATM    7  C   UNK     0      -5.243   5.790  -7.932  0.00  0.00     0.217 C 
HETATM    8  C   UNK     0      -4.767   5.444  -9.201  0.00  0.00     0.162 C 
HETATM    9  C   UNK     0      -3.442   5.267  -9.428  0.00  0.00     0.146 C 
HETATM   10  C   UNK     0      -2.519   5.386  -8.376  0.00  0.00     0.215 C 
HETATM   11  O   UNK     0      -1.324   5.044  -8.557  0.00  0.00    -0.285 OA
HETATM   12  O   UNK     0      -6.479   5.803  -7.707  0.00  0.00    -0.285 OA
HETATM   13  N   UNK     0      -5.651   5.322 -10.185  0.00  0.00    -0.143 N 
ENDROOT
BRANCH   9  14
HETATM   14  N   UNK     0      -3.029   4.971 -10.667  0.00  0.00    -0.205 NA
HETATM   15  C   UNK     0      -2.965   3.729 -11.230  0.00  0.00     0.281 C 
HETATM   16  O   UNK     0      -2.512   3.684 -12.396  0.00  0.00    -0.268 OA
BRANCH  15  17
HETATM   17  C   UNK     0      -3.333   2.443 -10.584  0.00  0.00     0.219 C 
BRANCH  17  18
HETATM   18  N   UNK     0      -2.196   1.582 -10.454  0.00  0.00    -0.221 N 
HETATM   19  C   UNK     0      -2.067   0.329 -10.926  0.00  0.00     0.114 A 
HETATM   20  C   UNK     0      -0.785  -0.082 -10.588  0.00  0.00     0.102 A 
HETATM   21  N   UNK     0      -0.233   0.939  -9.913  0.00  0.00    -0.133 NA
HETATM   22  N   UNK     0      -1.091   1.909  -9.856  0.00  0.00    -0.064 NA
BRANCH  20  23
HETATM   23  C   UNK     0      -0.118  -1.368 -10.898  0.00  0.00     0.062 C 
BRANCH  23  24
HETATM   24  C   UNK     0       1.420  -1.378 -10.817  0.00  0.00     0.074 C 
HETATM   25 Br   UNK     0       2.153  -2.604 -10.243  0.00  0.00    -0.081 Br
ENDBRANCH  23  24
ENDBRANCH  20  23
ENDBRANCH  17  18
ENDBRANCH  15  17
ENDBRANCH   9  14
TORSDOF 5
ENDMDL
MODEL 3
REMARK VINA RESULT:      -6.6      3.097      5.075
REMARK  5 active torsions:
REMARK  status: ('A' for Active; 'I' for Inactive)
REMARK    1  A    between atoms: C_9  and  N_13 
REMARK       I    between atoms: N_13  and  C_14 
REMARK    2  A    between atoms: C_14  and  C_17 
REMARK    3  A    between atoms: C_17  and  N_18 
REMARK    4  A    between atoms: C_20  and  C_23 
REMARK    5  A    between atoms: C_23  and  C_24 
ROOT
HETATM    1  C   UNK     0     -14.080  -5.330  -3.231  0.00  0.00     0.003 A 
HETATM    2  C   UNK     0     -15.020  -6.358  -3.428  0.00  0.00     0.000 A 
HETATM    3  C   UNK     0     -14.609  -7.701  -3.427  0.00  0.00     0.000 A 
HETATM    4  C   UNK     0     -13.259  -8.023  -3.211  0.00  0.00     0.003 A 
HETATM    5  C   UNK     0     -12.301  -7.000  -3.011  0.00  0.00     0.044 A 
HETATM    6  C   UNK     0     -12.711  -5.635  -3.047  0.00  0.00     0.044 A 
HETATM    7  C   UNK     0     -10.921  -7.291  -2.797  0.00  0.00     0.217 C 
HETATM    8  C   UNK     0      -9.973  -6.263  -2.849  0.00  0.00     0.162 C 
HETATM    9  C   UNK     0     -10.353  -4.964  -2.930  0.00  0.00     0.146 C 
HETATM   10  C   UNK     0     -11.715  -4.619  -2.917  0.00  0.00     0.215 C 
HETATM   11  O   UNK     0     -12.049  -3.414  -2.809  0.00  0.00    -0.285 OA
HETATM   12  O   UNK     0     -10.555  -8.472  -2.572  0.00  0.00    -0.285 OA
HETATM   13  N   UNK     0      -8.689  -6.601  -2.848  0.00  0.00    -0.143 N 
ENDROOT
BRANCH   9  14
HETATM   14  N   UNK     0      -9.411  -4.016  -3.013  0.00  0.00    -0.205 NA
HETATM   15  C   UNK     0      -8.905  -3.468  -4.157  0.00  0.00     0.281 C 
HETATM   16  O   UNK     0      -8.001  -2.617  -3.997  0.00  0.00    -0.268 OA
BRANCH  15  17
HETATM   17  C   UNK     0      -9.288  -3.813  -5.550  0.00  0.00     0.219 C 
BRANCH  17  18
HETATM   18  N   UNK     0      -8.555  -4.948  -6.025  0.00  0.00    -0.221 N 
HETATM   19  C   UNK     0      -9.057  -6.126  -6.437  0.00  0.00     0.114 A 
HETATM   20  C   UNK     0      -7.970  -6.892  -6.835  0.00  0.00     0.102 A 
HETATM   21  N   UNK     0      -6.882  -6.138  -6.614  0.00  0.00    -0.133 NA
HETATM   22  N   UNK     0      -7.263  -4.992  -6.140  0.00  0.00    -0.064 NA
BRANCH  20  23
HETATM   23  C   UNK     0      -7.966  -8.260  -7.403  0.00  0.00     0.062 C 
BRANCH  23  24
HETATM   24  C   UNK     0      -7.989  -9.422  -6.391  0.00  0.00     0.074 C 
HETATM   25 Br   UNK     0      -6.779  -9.665  -5.471  0.00  0.00    -0.081 Br
ENDBRANCH  23  24
ENDBRANCH  20  23
ENDBRANCH  17  18
ENDBRANCH  15  17
ENDBRANCH   9  14
TORSDOF 5
ENDMDL
MODEL 4
REMARK VINA RESULT:      -6.5     12.747     13.808
REMARK  5 active torsions:
REMARK  status: ('A' for Active; 'I' for Inactive)
REMARK    1  A    between atoms: C_9  and  N_13 
REMARK       I    between atoms: N_13  and  C_14 
REMARK    2  A    between atoms: C_14  and  C_17 
REMARK    3  A    between atoms: C_17  and  N_18 
REMARK    4  A    between atoms: C_20  and  C_23 
REMARK    5  A    between atoms: C_23  and  C_24 
ROOT
HETATM    1  C   UNK     0      -5.146   6.557  -5.594  0.00  0.00     0.003 A 
HETATM    2  C   UNK     0      -4.730   6.673  -4.255  0.00  0.00     0.000 A 
HETATM    3  C   UNK     0      -3.376   6.507  -3.920  0.00  0.00     0.000 A 
HETATM    4  C   UNK     0      -2.430   6.244  -4.924  0.00  0.00     0.003 A 
HETATM    5  C   UNK     0      -2.833   6.124  -6.275  0.00  0.00     0.044 A 
HETATM    6  C   UNK     0      -4.211   6.258  -6.613  0.00  0.00     0.044 A 
HETATM    7  C   UNK     0      -1.899   5.849  -7.319  0.00  0.00     0.217 C 
HETATM    8  C   UNK     0      -2.359   5.497  -8.592  0.00  0.00     0.162 C 
HETATM    9  C   UNK     0      -3.675   5.576  -8.909  0.00  0.00     0.146 C 
HETATM   10  C   UNK     0      -4.604   6.060  -7.972  0.00  0.00     0.215 C 
HETATM   11  O   UNK     0      -5.782   6.299  -8.333  0.00  0.00    -0.285 OA
HETATM   12  O   UNK     0      -0.665   5.912  -7.091  0.00  0.00    -0.285 OA
HETATM   13  N   UNK     0      -1.470   5.053  -9.474  0.00  0.00    -0.143 N 
ENDROOT
BRANCH   9  14
HETATM   14  N   UNK     0      -4.074   5.194 -10.129  0.00  0.00    -0.205 NA
HETATM   15  C   UNK     0      -4.453   3.939 -10.507  0.00  0.00     0.281 C 
HETATM   16  O   UNK     0      -4.756   3.803 -11.715  0.00  0.00    -0.268 OA
BRANCH  15  17
HETATM   17  C   UNK     0      -4.497   2.729  -9.646  0.00  0.00     0.219 C 
BRANCH  17  18
HETATM   18  N   UNK     0      -3.365   1.884  -9.880  0.00  0.00    -0.221 N 
HETATM   19  C   UNK     0      -3.227   0.959 -10.847  0.00  0.00     0.114 A 
HETATM   20  C   UNK     0      -1.954   0.426 -10.694  0.00  0.00     0.102 A 
HETATM   21  N   UNK     0      -1.417   1.044  -9.630  0.00  0.00    -0.133 NA
HETATM   22  N   UNK     0      -2.275   1.904  -9.175  0.00  0.00    -0.064 NA
BRANCH  20  23
HETATM   23  C   UNK     0      -1.282  -0.605 -11.519  0.00  0.00     0.062 C 
BRANCH  23  24
HETATM   24  C   UNK     0      -0.164  -1.411 -10.830  0.00  0.00     0.074 C 
HETATM   25 Br   UNK     0       1.300  -0.950 -10.945  0.00  0.00    -0.081 Br
ENDBRANCH  23  24
ENDBRANCH  20  23
ENDBRANCH  17  18
ENDBRANCH  15  17
ENDBRANCH   9  14
TORSDOF 5
ENDMDL
MODEL 5
REMARK VINA RESULT:      -6.5     13.022     15.645
REMARK  5 active torsions:
REMARK  status: ('A' for Active; 'I' for Inactive)
REMARK    1  A    between atoms: C_9  and  N_13 
REMARK       I    between atoms: N_13  and  C_14 
REMARK    2  A    between atoms: C_14  and  C_17 
REMARK    3  A    between atoms: C_17  and  N_18 
REMARK    4  A    between atoms: C_20  and  C_23 
REMARK    5  A    between atoms: C_23  and  C_24 
ROOT
HETATM    1  C   UNK     0       3.563  -6.718 -13.052  0.00  0.00     0.003 A 
HETATM    2  C   UNK     0       4.355  -7.719 -12.464  0.00  0.00     0.000 A 
HETATM    3  C   UNK     0       4.922  -7.516 -11.195  0.00  0.00     0.000 A 
HETATM    4  C   UNK     0       4.684  -6.317 -10.502  0.00  0.00     0.003 A 
HETATM    5  C   UNK     0       3.889  -5.299 -11.081  0.00  0.00     0.044 A 
HETATM    6  C   UNK     0       3.341  -5.491 -12.383  0.00  0.00     0.044 A 
HETATM    7  C   UNK     0       3.634  -4.068 -10.409  0.00  0.00     0.217 C 
HETATM    8  C   UNK     0       3.056  -2.999 -11.103  0.00  0.00     0.162 C 
HETATM    9  C   UNK     0       2.574  -3.160 -12.360  0.00  0.00     0.146 C 
HETATM   10  C   UNK     0       2.604  -4.421 -12.978  0.00  0.00     0.215 C 
HETATM   11  O   UNK     0       1.994  -4.596 -14.061  0.00  0.00    -0.285 OA
HETATM   12  O   UNK     0       3.937  -3.938  -9.196  0.00  0.00    -0.285 OA
HETATM   13  N   UNK     0       3.022  -1.814 -10.505  0.00  0.00    -0.143 N 
ENDROOT
BRANCH   9  14
HETATM   14  N   UNK     0       2.063  -2.100 -13.000  0.00  0.00    -0.205 NA
HETATM   15  C   UNK     0       0.862  -1.500 -12.753  0.00  0.00     0.281 C 
HETATM   16  O   UNK     0       0.570  -0.539 -13.502  0.00  0.00    -0.268 OA
BRANCH  15  17
HETATM   17  C   UNK     0      -0.135  -1.901 -11.727  0.00  0.00     0.219 C 
BRANCH  17  18
HETATM   18  N   UNK     0      -0.603  -0.768 -10.986  0.00  0.00    -0.221 N 
HETATM   19  C   UNK     0      -1.871  -0.331 -10.885  0.00  0.00     0.114 A 
HETATM   20  C   UNK     0      -1.835   0.768 -10.037  0.00  0.00     0.102 A 
HETATM   21  N   UNK     0      -0.547   0.938  -9.702  0.00  0.00    -0.133 NA
HETATM   22  N   UNK     0       0.155   0.009 -10.276  0.00  0.00    -0.064 NA
BRANCH  20  23
HETATM   23  C   UNK     0      -2.964   1.603  -9.564  0.00  0.00     0.062 C 
BRANCH  23  24
HETATM   24  C   UNK     0      -3.729   2.394 -10.642  0.00  0.00     0.074 C 
HETATM   25 Br   UNK     0      -2.970   3.352 -11.578  0.00  0.00    -0.081 Br
ENDBRANCH  23  24
ENDBRANCH  20  23
ENDBRANCH  17  18
ENDBRANCH  15  17
ENDBRANCH   9  14
TORSDOF 5
ENDMDL
MODEL 6
REMARK VINA RESULT:      -6.4      1.742      2.954
REMARK  5 active torsions:
REMARK  status: ('A' for Active; 'I' for Inactive)
REMARK    1  A    between atoms: C_9  and  N_13 
REMARK       I    between atoms: N_13  and  C_14 
REMARK    2  A    between atoms: C_14  and  C_17 
REMARK    3  A    between atoms: C_17  and  N_18 
REMARK    4  A    between atoms: C_20  and  C_23 
REMARK    5  A    between atoms: C_23  and  C_24 
ROOT
HETATM    1  C   UNK     0      -9.095  -2.698  -3.176  0.00  0.00     0.003 A 
HETATM    2  C   UNK     0      -9.668  -2.123  -2.027  0.00  0.00     0.000 A 
HETATM    3  C   UNK     0     -10.661  -2.813  -1.313  0.00  0.00     0.000 A 
HETATM    4  C   UNK     0     -11.073  -4.088  -1.733  0.00  0.00     0.003 A 
HETATM    5  C   UNK     0     -10.507  -4.680  -2.888  0.00  0.00     0.044 A 
HETATM    6  C   UNK     0      -9.523  -3.967  -3.633  0.00  0.00     0.044 A 
HETATM    7  C   UNK     0     -10.908  -5.970  -3.347  0.00  0.00     0.217 C 
HETATM    8  C   UNK     0     -10.512  -6.414  -4.613  0.00  0.00     0.162 C 
HETATM    9  C   UNK     0      -9.612  -5.718  -5.350  0.00  0.00     0.146 C 
HETATM   10  C   UNK     0      -9.020  -4.553  -4.835  0.00  0.00     0.215 C 
HETATM   11  O   UNK     0      -8.061  -4.021  -5.446  0.00  0.00    -0.285 OA
HETATM   12  O   UNK     0     -11.625  -6.702  -2.620  0.00  0.00    -0.285 OA
HETATM   13  N   UNK     0     -11.069  -7.524  -5.085  0.00  0.00    -0.143 N 
ENDROOT
BRANCH   9  14
HETATM   14  N   UNK     0      -9.290  -6.163  -6.572  0.00  0.00    -0.205 NA
HETATM   15  C   UNK     0      -8.204  -6.921  -6.904  0.00  0.00     0.281 C 
HETATM   16  O   UNK     0      -8.084  -7.193  -8.120  0.00  0.00    -0.268 OA
BRANCH  15  17
HETATM   17  C   UNK     0      -7.147  -7.406  -5.981  0.00  0.00     0.219 C 
BRANCH  17  18
HETATM   18  N   UNK     0      -7.619  -8.491  -5.173  0.00  0.00    -0.221 N 
HETATM   19  C   UNK     0      -7.610  -8.569  -3.830  0.00  0.00     0.114 A 
HETATM   20  C   UNK     0      -8.200  -9.784  -3.509  0.00  0.00     0.102 A 
HETATM   21  N   UNK     0      -8.504 -10.371  -4.677  0.00  0.00    -0.133 NA
HETATM   22  N   UNK     0      -8.153  -9.577  -5.642  0.00  0.00    -0.064 NA
BRANCH  20  23
HETATM   23  C   UNK     0      -8.469 -10.350  -2.166  0.00  0.00     0.062 C 
BRANCH  23  24
HETATM   24  C   UNK     0      -7.691 -11.626  -1.794  0.00  0.00     0.074 C 
HETATM   25 Br   UNK     0      -6.241 -11.813  -2.276  0.00  0.00    -0.081 Br
ENDBRANCH  23  24
ENDBRANCH  20  23
ENDBRANCH  17  18
ENDBRANCH  15  17
ENDBRANCH   9  14
TORSDOF 5
ENDMDL
MODEL 7
REMARK VINA RESULT:      -6.4      1.943      2.203
REMARK  5 active torsions:
REMARK  status: ('A' for Active; 'I' for Inactive)
REMARK    1  A    between atoms: C_9  and  N_13 
REMARK       I    between atoms: N_13  and  C_14 
REMARK    2  A    between atoms: C_14  and  C_17 
REMARK    3  A    between atoms: C_17  and  N_18 
REMARK    4  A    between atoms: C_20  and  C_23 
REMARK    5  A    between atoms: C_23  and  C_24 
ROOT
HETATM    1  C   UNK     0     -11.190  -4.817  -2.227  0.00  0.00     0.003 A 
HETATM    2  C   UNK     0     -11.092  -3.690  -1.391  0.00  0.00     0.000 A 
HETATM    3  C   UNK     0     -10.188  -2.660  -1.698  0.00  0.00     0.000 A 
HETATM    4  C   UNK     0      -9.390  -2.744  -2.851  0.00  0.00     0.003 A 
HETATM    5  C   UNK     0      -9.477  -3.872  -3.702  0.00  0.00     0.044 A 
HETATM    6  C   UNK     0     -10.369  -4.934  -3.374  0.00  0.00     0.044 A 
HETATM    7  C   UNK     0      -8.676  -3.993  -4.877  0.00  0.00     0.217 C 
HETATM    8  C   UNK     0      -8.608  -5.216  -5.553  0.00  0.00     0.162 C 
HETATM    9  C   UNK     0      -9.421  -6.248  -5.217  0.00  0.00     0.146 C 
HETATM   10  C   UNK     0     -10.385  -6.095  -4.207  0.00  0.00     0.215 C 
HETATM   11  O   UNK     0     -11.247  -6.990  -4.031  0.00  0.00    -0.285 OA
HETATM   12  O   UNK     0      -8.024  -3.006  -5.298  0.00  0.00    -0.285 OA
HETATM   13  N   UNK     0      -7.701  -5.346  -6.515  0.00  0.00    -0.143 N 
ENDROOT
BRANCH   9  14
HETATM   14  N   UNK     0      -9.296  -7.412  -5.868  0.00  0.00    -0.205 NA
HETATM   15  C   UNK     0      -8.391  -8.400  -5.605  0.00  0.00     0.281 C 
HETATM   16  O   UNK     0      -8.434  -9.392  -6.369  0.00  0.00    -0.268 OA
BRANCH  15  17
HETATM   17  C   UNK     0      -7.350  -8.390  -4.546  0.00  0.00     0.219 C 
BRANCH  17  18
HETATM   18  N   UNK     0      -7.610  -9.387  -3.552  0.00  0.00    -0.221 N 
HETATM   19  C   UNK     0      -8.639  -9.423  -2.686  0.00  0.00     0.114 A 
HETATM   20  C   UNK     0      -8.486 -10.591  -1.951  0.00  0.00     0.102 A 
HETATM   21  N   UNK     0      -7.362 -11.170  -2.402  0.00  0.00    -0.133 NA
HETATM   22  N   UNK     0      -6.872 -10.436  -3.352  0.00  0.00    -0.064 NA
BRANCH  20  23
HETATM   23  C   UNK     0      -9.364 -11.132  -0.887  0.00  0.00     0.062 C 
BRANCH  23  24
HETATM   24  C   UNK     0      -8.694 -11.426   0.469  0.00  0.00     0.074 C 
HETATM   25 Br   UNK     0      -8.641 -10.336   1.554  0.00  0.00    -0.081 Br
ENDBRANCH  23  24
ENDBRANCH  20  23
ENDBRANCH  17  18
ENDBRANCH  15  17
ENDBRANCH   9  14
TORSDOF 5
ENDMDL
MODEL 8
REMARK VINA RESULT:      -6.4     13.179     15.928
REMARK  5 active torsions:
REMARK  status: ('A' for Active; 'I' for Inactive)
REMARK    1  A    between atoms: C_9  and  N_13 
REMARK       I    between atoms: N_13  and  C_14 
REMARK    2  A    between atoms: C_14  and  C_17 
REMARK    3  A    between atoms: C_17  and  N_18 
REMARK    4  A    between atoms: C_20  and  C_23 
REMARK    5  A    between atoms: C_23  and  C_24 
ROOT
HETATM    1  C   UNK     0       4.965  -5.394 -10.580  0.00  0.00     0.003 A 
HETATM    2  C   UNK     0       5.939  -6.235 -11.147  0.00  0.00     0.000 A 
HETATM    3  C   UNK     0       5.811  -6.667 -12.477  0.00  0.00     0.000 A 
HETATM    4  C   UNK     0       4.718  -6.245 -13.251  0.00  0.00     0.003 A 
HETATM    5  C   UNK     0       3.728  -5.399 -12.695  0.00  0.00     0.044 A 
HETATM    6  C   UNK     0       3.840  -4.988 -11.334  0.00  0.00     0.044 A 
HETATM    7  C   UNK     0       2.601  -4.958 -13.450  0.00  0.00     0.217 C 
HETATM    8  C   UNK     0       1.529  -4.333 -12.805  0.00  0.00     0.162 C 
HETATM    9  C   UNK     0       1.607  -3.979 -11.498  0.00  0.00     0.146 C 
HETATM   10  C   UNK     0       2.791  -4.195 -10.773  0.00  0.00     0.215 C 
HETATM   11  O   UNK     0       2.914  -3.702  -9.625  0.00  0.00    -0.285 OA
HETATM   12  O   UNK     0       2.566  -5.142 -14.693  0.00  0.00    -0.285 OA
HETATM   13  N   UNK     0       0.419  -4.123 -13.504  0.00  0.00    -0.143 N 
ENDROOT
BRANCH   9  14
HETATM   14  N   UNK     0       0.543  -3.416 -10.913  0.00  0.00    -0.205 NA
HETATM   15  C   UNK     0       0.328  -2.081 -10.725  0.00  0.00     0.281 C 
HETATM   16  O   UNK     0      -0.727  -1.781 -10.120  0.00  0.00    -0.268 OA
BRANCH  15  17
HETATM   17  C   UNK     0       1.233  -0.972 -11.124  0.00  0.00     0.219 C 
BRANCH  17  18
HETATM   18  N   UNK     0       0.570   0.294 -11.044  0.00  0.00    -0.221 N 
HETATM   19  C   UNK     0      -0.059   0.947 -12.037  0.00  0.00     0.114 A 
HETATM   20  C   UNK     0      -0.574   2.107 -11.474  0.00  0.00     0.102 A 
HETATM   21  N   UNK     0      -0.202   2.091 -10.184  0.00  0.00    -0.133 NA
HETATM   22  N   UNK     0       0.468   1.003  -9.961  0.00  0.00    -0.064 NA
BRANCH  20  23
HETATM   23  C   UNK     0      -1.384   3.166 -12.122  0.00  0.00     0.062 C 
BRANCH  23  24
HETATM   24  C   UNK     0      -2.423   3.873 -11.231  0.00  0.00     0.074 C 
HETATM   25 Br   UNK     0      -3.894   3.421 -11.256  0.00  0.00    -0.081 Br
ENDBRANCH  23  24
ENDBRANCH  20  23
ENDBRANCH  17  18
ENDBRANCH  15  17
ENDBRANCH   9  14
TORSDOF 5
ENDMDL
MODEL 9
REMARK VINA RESULT:      -6.3      4.207      6.374
REMARK  5 active torsions:
REMARK  status: ('A' for Active; 'I' for Inactive)
REMARK    1  A    between atoms: C_9  and  N_13 
REMARK       I    between atoms: N_13  and  C_14 
REMARK    2  A    between atoms: C_14  and  C_17 
REMARK    3  A    between atoms: C_17  and  N_18 
REMARK    4  A    between atoms: C_20  and  C_23 
REMARK    5  A    between atoms: C_23  and  C_24 
ROOT
HETATM    1  C   UNK     0      -9.077  -2.888  -3.177  0.00  0.00     0.003 A 
HETATM    2  C   UNK     0      -9.725  -2.208  -2.131  0.00  0.00     0.000 A 
HETATM    3  C   UNK     0     -10.740  -2.844  -1.398  0.00  0.00     0.000 A 
HETATM    4  C   UNK     0     -11.098  -4.169  -1.695  0.00  0.00     0.003 A 
HETATM    5  C   UNK     0     -10.455  -4.867  -2.745  0.00  0.00     0.044 A 
HETATM    6  C   UNK     0      -9.449  -4.211  -3.513  0.00  0.00     0.044 A 
HETATM    7  C   UNK     0     -10.799  -6.211  -3.079  0.00  0.00     0.217 C 
HETATM    8  C   UNK     0     -10.324  -6.780  -4.266  0.00  0.00     0.162 C 
HETATM    9  C   UNK     0      -9.400  -6.142  -5.027  0.00  0.00     0.146 C 
HETATM   10  C   UNK     0      -8.866  -4.911  -4.614  0.00  0.00     0.215 C 
HETATM   11  O   UNK     0      -7.887  -4.421  -5.229  0.00  0.00    -0.285 OA
HETATM   12  O   UNK     0     -11.538  -6.879  -2.314  0.00  0.00    -0.285 OA
HETATM   13  N   UNK     0     -10.827  -7.951  -4.640  0.00  0.00    -0.143 N 
ENDROOT
BRANCH   9  14
HETATM   14  N   UNK     0      -9.001  -6.708  -6.173  0.00  0.00    -0.205 NA
HETATM   15  C   UNK     0      -9.357  -6.332  -7.436  0.00  0.00     0.281 C 
HETATM   16  O   UNK     0      -8.888  -7.031  -8.363  0.00  0.00    -0.268 OA
BRANCH  15  17
HETATM   17  C   UNK     0     -10.270  -5.220  -7.805  0.00  0.00     0.219 C 
BRANCH  17  18
HETATM   18  N   UNK     0     -11.605  -5.470  -7.350  0.00  0.00    -0.221 N 
HETATM   19  C   UNK     0     -12.393  -4.637  -6.648  0.00  0.00     0.114 A 
HETATM   20  C   UNK     0     -13.600  -5.301  -6.474  0.00  0.00     0.102 A 
HETATM   21  N   UNK     0     -13.453  -6.500  -7.060  0.00  0.00    -0.133 NA
HETATM   22  N   UNK     0     -12.264  -6.565  -7.573  0.00  0.00    -0.064 NA
BRANCH  20  23
HETATM   23  C   UNK     0     -14.828  -4.819  -5.798  0.00  0.00     0.062 C 
BRANCH  23  24
HETATM   24  C   UNK     0     -15.405  -5.730  -4.698  0.00  0.00     0.074 C 
HETATM   25 Br   UNK     0     -14.747  -5.769  -3.306  0.00  0.00    -0.081 Br
ENDBRANCH  23  24
ENDBRANCH  20  23
ENDBRANCH  17  18
ENDBRANCH  15  17
ENDBRANCH   9  14
TORSDOF 5
ENDMDL
