MODEL 1
REMARK VINA RESULT:      -8.3      0.000      0.000
REMARK  3 active torsions:
REMARK  status: ('A' for Active; 'I' for Inactive)
REMARK    1  A    between atoms: C_9  and  N_13 
REMARK       I    between atoms: N_13  and  C_14 
REMARK    2  A    between atoms: C_14  and  C_17 
REMARK    3  A    between atoms: C_17  and  N_18 
ROOT
HETATM    1  N   UNK     0       3.389  -5.029 -11.929  0.00  0.00    -0.205 NA
HETATM    2  C   UNK     0       3.316  -3.666 -11.976  0.00  0.00     0.281 C 
HETATM    3  O   UNK     0       4.199  -2.939 -11.458  0.00  0.00    -0.268 OA
ENDROOT
BRANCH   1   4
HETATM    4  C   UNK     0       4.385  -5.752 -11.390  0.00  0.00     0.146 A 
HETATM    5  C   UNK     0       5.378  -6.210 -12.193  0.00  0.00     0.162 A 
HETATM    6  C   UNK     0       6.431  -6.981 -11.682  0.00  0.00     0.217 A 
HETATM    7  N   UNK     0       5.366  -5.950 -13.495  0.00  0.00    -0.143 N 
HETATM    8  C   UNK     0       6.436  -7.374 -10.311  0.00  0.00     0.044 A 
HETATM    9  O   UNK     0       7.373  -7.329 -12.436  0.00  0.00    -0.285 OA
HETATM   10  C   UNK     0       7.416  -8.253  -9.787  0.00  0.00     0.003 A 
HETATM   11  C   UNK     0       5.421  -6.869  -9.452  0.00  0.00     0.044 A 
HETATM   12  C   UNK     0       7.398  -8.616  -8.429  0.00  0.00     0.000 A 
HETATM   13  C   UNK     0       6.410  -8.101  -7.577  0.00  0.00     0.000 A 
HETATM   14  C   UNK     0       5.430  -7.229  -8.081  0.00  0.00     0.003 A 
HETATM   15  C   UNK     0       4.421  -6.010 -10.006  0.00  0.00     0.215 A 
HETATM   16  O   UNK     0       3.589  -5.456  -9.246  0.00  0.00    -0.285 OA
ENDBRANCH   1   4
BRANCH   2  17
HETATM   17  C   UNK     0       2.181  -3.015 -12.659  0.00  0.00     0.219 C 
BRANCH  17  18
HETATM   18  N   UNK     0       1.336  -2.245 -11.796  0.00  0.00    -0.221 N 
HETATM   19  C   UNK     0       1.018  -0.943 -11.911  0.00  0.00     0.118 A 
HETATM   20  C   UNK     0       0.067  -0.685 -10.931  0.00  0.00     0.123 A 
HETATM   21  N   UNK     0      -0.092  -1.840 -10.263  0.00  0.00    -0.129 NA
HETATM   22  C   UNK     0      -0.643   0.516 -10.686  0.00  0.00     0.021 A 
HETATM   23  N   UNK     0       0.676  -2.738 -10.794  0.00  0.00    -0.063 NA
HETATM   24  C   UNK     0      -1.988   0.471 -10.243  0.00  0.00     0.002 A 
HETATM   25  C   UNK     0      -0.038   1.781 -10.883  0.00  0.00     0.002 A 
HETATM   26  C   UNK     0      -2.710   1.657 -10.010  0.00  0.00     0.000 A 
HETATM   27  C   UNK     0      -2.092   2.905 -10.200  0.00  0.00     0.000 A 
HETATM   28  C   UNK     0      -0.756   2.966 -10.637  0.00  0.00     0.000 A 
ENDBRANCH  17  18
ENDBRANCH   2  17
TORSDOF 3
ENDMDL
MODEL 2
REMARK VINA RESULT:      -8.2      2.660      9.778
REMARK  3 active torsions:
REMARK  status: ('A' for Active; 'I' for Inactive)
REMARK    1  A    between atoms: C_9  and  N_13 
REMARK       I    between atoms: N_13  and  C_14 
REMARK    2  A    between atoms: C_14  and  C_17 
REMARK    3  A    between atoms: C_17  and  N_18 
ROOT
HETATM    1  N   UNK     0       1.195  -0.729 -11.305  0.00  0.00    -0.205 NA
HETATM    2  C   UNK     0       1.693  -1.742 -10.536  0.00  0.00     0.281 C 
HETATM    3  O   UNK     0       0.948  -2.455  -9.820  0.00  0.00    -0.268 OA
ENDROOT
BRANCH   1   4
HETATM    4  C   UNK     0      -0.100  -0.394 -11.433  0.00  0.00     0.146 A 
HETATM    5  C   UNK     0      -0.834  -0.962 -12.422  0.00  0.00     0.162 A 
HETATM    6  C   UNK     0      -2.185  -0.634 -12.607  0.00  0.00     0.217 A 
HETATM    7  N   UNK     0      -0.283  -1.837 -13.254  0.00  0.00    -0.143 N 
HETATM    8  C   UNK     0      -2.796   0.375 -11.806  0.00  0.00     0.044 A 
HETATM    9  O   UNK     0      -2.858  -1.231 -13.484  0.00  0.00    -0.285 OA
HETATM   10  C   UNK     0      -4.121   0.819 -12.043  0.00  0.00     0.003 A 
HETATM   11  C   UNK     0      -2.048   0.950 -10.742  0.00  0.00     0.044 A 
HETATM   12  C   UNK     0      -4.699   1.811 -11.232  0.00  0.00     0.000 A 
HETATM   13  C   UNK     0      -3.968   2.363 -10.169  0.00  0.00     0.000 A 
HETATM   14  C   UNK     0      -2.653   1.934  -9.921  0.00  0.00     0.003 A 
HETATM   15  C   UNK     0      -0.702   0.513 -10.539  0.00  0.00     0.215 A 
HETATM   16  O   UNK     0      -0.064   0.915  -9.536  0.00  0.00    -0.285 OA
ENDBRANCH   1   4
BRANCH   2  17
HETATM   17  C   UNK     0       3.141  -2.027 -10.546  0.00  0.00     0.219 C 
BRANCH  17  18
HETATM   18  N   UNK     0       3.470  -3.416 -10.438  0.00  0.00    -0.221 N 
HETATM   19  C   UNK     0       3.654  -4.294 -11.440  0.00  0.00     0.118 A 
HETATM   20  C   UNK     0       4.093  -5.474 -10.850  0.00  0.00     0.123 A 
HETATM   21  N   UNK     0       4.100  -5.241  -9.528  0.00  0.00    -0.129 NA
HETATM   22  C   UNK     0       4.499  -6.676 -11.480  0.00  0.00     0.021 A 
HETATM   23  N   UNK     0       3.723  -4.020  -9.317  0.00  0.00    -0.063 NA
HETATM   24  C   UNK     0       5.546  -7.453 -10.925  0.00  0.00     0.002 A 
HETATM   25  C   UNK     0       3.882  -7.127 -12.672  0.00  0.00     0.002 A 
HETATM   26  C   UNK     0       5.969  -8.642 -11.548  0.00  0.00     0.000 A 
HETATM   27  C   UNK     0       5.340  -9.081 -12.726  0.00  0.00     0.000 A 
HETATM   28  C   UNK     0       4.297  -8.322 -13.288  0.00  0.00     0.000 A 
ENDBRANCH  17  18
ENDBRANCH   2  17
TORSDOF 3
ENDMDL
MODEL 3
REMARK VINA RESULT:      -8.2      5.635      8.641
REMARK  3 active torsions:
REMARK  status: ('A' for Active; 'I' for Inactive)
REMARK    1  A    between atoms: C_9  and  N_13 
REMARK       I    between atoms: N_13  and  C_14 
REMARK    2  A    between atoms: C_14  and  C_17 
REMARK    3  A    between atoms: C_17  and  N_18 
ROOT
HETATM    1  N   UNK     0      -1.826   2.264 -11.525  0.00  0.00    -0.205 NA
HETATM    2  C   UNK     0      -2.663   2.636 -10.512  0.00  0.00     0.281 C 
HETATM    3  O   UNK     0      -3.006   1.834  -9.610  0.00  0.00    -0.268 OA
ENDROOT
BRANCH   1   4
HETATM    4  C   UNK     0      -1.242   1.062 -11.670  0.00  0.00     0.146 A 
HETATM    5  C   UNK     0      -1.781   0.168 -12.536  0.00  0.00     0.162 A 
HETATM    6  C   UNK     0      -1.219  -1.105 -12.712  0.00  0.00     0.217 A 
HETATM    7  N   UNK     0      -2.870   0.473 -13.231  0.00  0.00    -0.143 N 
HETATM    8  C   UNK     0      -0.111  -1.519 -11.916  0.00  0.00     0.044 A 
HETATM    9  O   UNK     0      -1.696  -1.884 -13.574  0.00  0.00    -0.285 OA
HETATM   10  C   UNK     0       0.406  -2.837 -11.978  0.00  0.00     0.003 A 
HETATM   11  C   UNK     0       0.485  -0.577 -11.032  0.00  0.00     0.044 A 
HETATM   12  C   UNK     0       1.503  -3.213 -11.185  0.00  0.00     0.000 A 
HETATM   13  C   UNK     0       2.105  -2.278 -10.330  0.00  0.00     0.000 A 
HETATM   14  C   UNK     0       1.604  -0.967 -10.255  0.00  0.00     0.003 A 
HETATM   15  C   UNK     0      -0.071   0.738 -10.958  0.00  0.00     0.215 A 
HETATM   16  O   UNK     0       0.510   1.619 -10.279  0.00  0.00    -0.285 OA
ENDBRANCH   1   4
BRANCH   2  17
HETATM   17  C   UNK     0      -3.179   4.018 -10.458  0.00  0.00     0.219 C 
BRANCH  17  18
HETATM   18  N   UNK     0      -2.768   4.756  -9.302  0.00  0.00    -0.221 N 
HETATM   19  C   UNK     0      -3.547   5.451  -8.455  0.00  0.00     0.118 A 
HETATM   20  C   UNK     0      -2.721   5.872  -7.419  0.00  0.00     0.123 A 
HETATM   21  N   UNK     0      -1.489   5.439  -7.736  0.00  0.00    -0.129 NA
HETATM   22  C   UNK     0      -3.073   6.571  -6.239  0.00  0.00     0.021 A 
HETATM   23  N   UNK     0      -1.550   4.790  -8.855  0.00  0.00    -0.063 NA
HETATM   24  C   UNK     0      -2.400   6.300  -5.022  0.00  0.00     0.002 A 
HETATM   25  C   UNK     0      -4.102   7.544  -6.240  0.00  0.00     0.002 A 
HETATM   26  C   UNK     0      -2.750   6.978  -3.839  0.00  0.00     0.000 A 
HETATM   27  C   UNK     0      -3.766   7.949  -3.858  0.00  0.00     0.000 A 
HETATM   28  C   UNK     0      -4.443   8.231  -5.060  0.00  0.00     0.000 A 
ENDBRANCH  17  18
ENDBRANCH   2  17
TORSDOF 3
ENDMDL
MODEL 4
REMARK VINA RESULT:      -7.8      2.385      9.833
REMARK  3 active torsions:
REMARK  status: ('A' for Active; 'I' for Inactive)
REMARK    1  A    between atoms: C_9  and  N_13 
REMARK       I    between atoms: N_13  and  C_14 
REMARK    2  A    between atoms: C_14  and  C_17 
REMARK    3  A    between atoms: C_17  and  N_18 
ROOT
HETATM    1  N   UNK     0       1.388  -1.968 -12.208  0.00  0.00    -0.205 NA
HETATM    2  C   UNK     0       1.606  -3.269 -11.854  0.00  0.00     0.281 C 
HETATM    3  O   UNK     0       0.761  -3.926 -11.199  0.00  0.00    -0.268 OA
ENDROOT
BRANCH   1   4
HETATM    4  C   UNK     0       0.278  -1.254 -11.957  0.00  0.00     0.146 A 
HETATM    5  C   UNK     0       0.265  -0.406 -10.898  0.00  0.00     0.162 A 
HETATM    6  C   UNK     0      -0.874   0.350 -10.584  0.00  0.00     0.217 A 
HETATM    7  N   UNK     0       1.332  -0.285 -10.117  0.00  0.00    -0.143 N 
HETATM    8  C   UNK     0      -2.078   0.180 -11.329  0.00  0.00     0.044 A 
HETATM    9  O   UNK     0      -0.832   1.179  -9.642  0.00  0.00    -0.285 OA
HETATM   10  C   UNK     0      -3.282   0.834 -10.968  0.00  0.00     0.003 A 
HETATM   11  C   UNK     0      -2.064  -0.677 -12.465  0.00  0.00     0.044 A 
HETATM   12  C   UNK     0      -4.451   0.651 -11.726  0.00  0.00     0.000 A 
HETATM   13  C   UNK     0      -4.432  -0.176 -12.859  0.00  0.00     0.000 A 
HETATM   14  C   UNK     0      -3.246  -0.834 -13.230  0.00  0.00     0.003 A 
HETATM   15  C   UNK     0      -0.849  -1.355 -12.795  0.00  0.00     0.215 A 
HETATM   16  O   UNK     0      -0.778  -2.018 -13.858  0.00  0.00    -0.285 OA
ENDBRANCH   1   4
BRANCH   2  17
HETATM   17  C   UNK     0       2.860  -3.939 -12.255  0.00  0.00     0.219 C 
BRANCH  17  18
HETATM   18  N   UNK     0       3.438  -4.767 -11.240  0.00  0.00    -0.221 N 
HETATM   19  C   UNK     0       4.458  -5.632 -11.372  0.00  0.00     0.118 A 
HETATM   20  C   UNK     0       4.751  -6.090 -10.093  0.00  0.00     0.123 A 
HETATM   21  N   UNK     0       3.856  -5.503  -9.281  0.00  0.00    -0.129 NA
HETATM   22  C   UNK     0       5.792  -6.958  -9.685  0.00  0.00     0.021 A 
HETATM   23  N   UNK     0       3.092  -4.733  -9.989  0.00  0.00    -0.063 NA
HETATM   24  C   UNK     0       6.426  -6.771  -8.431  0.00  0.00     0.002 A 
HETATM   25  C   UNK     0       6.231  -8.021 -10.511  0.00  0.00     0.002 A 
HETATM   26  C   UNK     0       7.472  -7.617  -8.019  0.00  0.00     0.000 A 
HETATM   27  C   UNK     0       7.890  -8.674  -8.846  0.00  0.00     0.000 A 
HETATM   28  C   UNK     0       7.269  -8.875 -10.093  0.00  0.00     0.000 A 
ENDBRANCH  17  18
ENDBRANCH   2  17
TORSDOF 3
ENDMDL
MODEL 5
REMARK VINA RESULT:      -7.6      3.993     10.230
REMARK  3 active torsions:
REMARK  status: ('A' for Active; 'I' for Inactive)
REMARK    1  A    between atoms: C_9  and  N_13 
REMARK       I    between atoms: N_13  and  C_14 
REMARK    2  A    between atoms: C_14  and  C_17 
REMARK    3  A    between atoms: C_17  and  N_18 
ROOT
HETATM    1  N   UNK     0      -0.881  -0.173 -10.426  0.00  0.00    -0.205 NA
HETATM    2  C   UNK     0       0.315   0.276 -10.908  0.00  0.00     0.281 C 
HETATM    3  O   UNK     0       0.381   1.142 -11.814  0.00  0.00    -0.268 OA
ENDROOT
BRANCH   1   4
HETATM    4  C   UNK     0      -2.098   0.256 -10.802  0.00  0.00     0.146 A 
HETATM    5  C   UNK     0      -2.704  -0.327 -11.866  0.00  0.00     0.162 A 
HETATM    6  C   UNK     0      -3.966   0.095 -12.308  0.00  0.00     0.217 A 
HETATM    7  N   UNK     0      -2.104  -1.308 -12.531  0.00  0.00    -0.143 N 
HETATM    8  C   UNK     0      -4.607   1.211 -11.693  0.00  0.00     0.044 A 
HETATM    9  O   UNK     0      -4.533  -0.512 -13.250  0.00  0.00    -0.285 OA
HETATM   10  C   UNK     0      -5.824   1.742 -12.188  0.00  0.00     0.003 A 
HETATM   11  C   UNK     0      -3.999   1.805 -10.553  0.00  0.00     0.044 A 
HETATM   12  C   UNK     0      -6.435   2.838 -11.557  0.00  0.00     0.000 A 
HETATM   13  C   UNK     0      -5.847   3.411 -10.419  0.00  0.00     0.000 A 
HETATM   14  C   UNK     0      -4.640   2.897  -9.916  0.00  0.00     0.003 A 
HETATM   15  C   UNK     0      -2.755   1.277 -10.088  0.00  0.00     0.215 A 
HETATM   16  O   UNK     0      -2.262   1.704  -9.015  0.00  0.00    -0.285 OA
ENDBRANCH   1   4
BRANCH   2  17
HETATM   17  C   UNK     0       1.576  -0.254 -10.350  0.00  0.00     0.219 C 
BRANCH  17  18
HETATM   18  N   UNK     0       1.786  -1.650 -10.590  0.00  0.00    -0.221 N 
HETATM   19  C   UNK     0       1.819  -2.280 -11.777  0.00  0.00     0.118 A 
HETATM   20  C   UNK     0       2.192  -3.593 -11.513  0.00  0.00     0.123 A 
HETATM   21  N   UNK     0       2.314  -3.677 -10.178  0.00  0.00    -0.129 NA
HETATM   22  C   UNK     0       2.443  -4.640 -12.433  0.00  0.00     0.021 A 
HETATM   23  N   UNK     0       2.063  -2.515  -9.662  0.00  0.00    -0.063 NA
HETATM   24  C   UNK     0       3.454  -5.597 -12.165  0.00  0.00     0.002 A 
HETATM   25  C   UNK     0       1.706  -4.755 -13.636  0.00  0.00     0.002 A 
HETATM   26  C   UNK     0       3.724  -6.634 -13.077  0.00  0.00     0.000 A 
HETATM   27  C   UNK     0       2.976  -6.741 -14.263  0.00  0.00     0.000 A 
HETATM   28  C   UNK     0       1.968  -5.800 -14.542  0.00  0.00     0.000 A 
ENDBRANCH  17  18
ENDBRANCH   2  17
TORSDOF 3
ENDMDL
MODEL 6
REMARK VINA RESULT:      -7.6      4.562      7.019
REMARK  3 active torsions:
REMARK  status: ('A' for Active; 'I' for Inactive)
REMARK    1  A    between atoms: C_9  and  N_13 
REMARK       I    between atoms: N_13  and  C_14 
REMARK    2  A    between atoms: C_14  and  C_17 
REMARK    3  A    between atoms: C_17  and  N_18 
ROOT
HETATM    1  N   UNK     0      -1.791   0.259 -12.050  0.00  0.00    -0.205 NA
HETATM    2  C   UNK     0      -2.889   0.373 -11.246  0.00  0.00     0.281 C 
HETATM    3  O   UNK     0      -3.231  -0.544 -10.461  0.00  0.00    -0.268 OA
ENDROOT
BRANCH   1   4
HETATM    4  C   UNK     0      -0.938  -0.779 -12.085  0.00  0.00     0.146 A 
HETATM    5  C   UNK     0      -1.096  -1.731 -13.038  0.00  0.00     0.162 A 
HETATM    6  C   UNK     0      -0.243  -2.842 -13.106  0.00  0.00     0.217 A 
HETATM    7  N   UNK     0      -2.081  -1.642 -13.924  0.00  0.00    -0.143 N 
HETATM    8  C   UNK     0       0.766  -3.036 -12.117  0.00  0.00     0.044 A 
HETATM    9  O   UNK     0      -0.368  -3.668 -14.043  0.00  0.00    -0.285 OA
HETATM   10  C   UNK     0       1.566  -4.205 -12.083  0.00  0.00     0.003 A 
HETATM   11  C   UNK     0       0.965  -2.025 -11.136  0.00  0.00     0.044 A 
HETATM   12  C   UNK     0       2.556  -4.365 -11.098  0.00  0.00     0.000 A 
HETATM   13  C   UNK     0       2.768  -3.359 -10.144  0.00  0.00     0.000 A 
HETATM   14  C   UNK     0       1.982  -2.194 -10.163  0.00  0.00     0.003 A 
HETATM   15  C   UNK     0       0.126  -0.868 -11.166  0.00  0.00     0.215 A 
HETATM   16  O   UNK     0       0.362   0.089 -10.390  0.00  0.00    -0.285 OA
ENDBRANCH   1   4
BRANCH   2  17
HETATM   17  C   UNK     0      -3.698   1.608 -11.281  0.00  0.00     0.219 C 
BRANCH  17  18
HETATM   18  N   UNK     0      -3.138   2.702 -10.547  0.00  0.00    -0.221 N 
HETATM   19  C   UNK     0      -3.786   3.767 -10.044  0.00  0.00     0.118 A 
HETATM   20  C   UNK     0      -2.853   4.477  -9.298  0.00  0.00     0.123 A 
HETATM   21  N   UNK     0      -1.692   3.814  -9.439  0.00  0.00    -0.129 NA
HETATM   22  C   UNK     0      -3.052   5.633  -8.505  0.00  0.00     0.021 A 
HETATM   23  N   UNK     0      -1.893   2.776 -10.186  0.00  0.00    -0.063 NA
HETATM   24  C   UNK     0      -2.322   5.809  -7.304  0.00  0.00     0.002 A 
HETATM   25  C   UNK     0      -3.983   6.632  -8.883  0.00  0.00     0.002 A 
HETATM   26  C   UNK     0      -2.521   6.947  -6.499  0.00  0.00     0.000 A 
HETATM   27  C   UNK     0      -3.442   7.934  -6.892  0.00  0.00     0.000 A 
HETATM   28  C   UNK     0      -4.172   7.775  -8.084  0.00  0.00     0.000 A 
ENDBRANCH  17  18
ENDBRANCH   2  17
TORSDOF 3
ENDMDL
MODEL 7
REMARK VINA RESULT:      -7.6      5.217      8.229
REMARK  3 active torsions:
REMARK  status: ('A' for Active; 'I' for Inactive)
REMARK    1  A    between atoms: C_9  and  N_13 
REMARK       I    between atoms: N_13  and  C_14 
REMARK    2  A    between atoms: C_14  and  C_17 
REMARK    3  A    between atoms: C_17  and  N_18 
ROOT
HETATM    1  N   UNK     0      -1.634   1.589 -11.754  0.00  0.00    -0.205 NA
HETATM    2  C   UNK     0      -2.646   1.906 -10.894  0.00  0.00     0.281 C 
HETATM    3  O   UNK     0      -3.083   1.082 -10.054  0.00  0.00    -0.268 OA
ENDROOT
BRANCH   1   4
HETATM    4  C   UNK     0      -0.964   0.425 -11.795  0.00  0.00     0.146 A 
HETATM    5  C   UNK     0       0.085   0.237 -10.957  0.00  0.00     0.162 A 
HETATM    6  C   UNK     0       0.826  -0.954 -10.972  0.00  0.00     0.217 A 
HETATM    7  N   UNK     0       0.449   1.190 -10.107  0.00  0.00    -0.143 N 
HETATM    8  C   UNK     0       0.540  -1.967 -11.935  0.00  0.00     0.044 A 
HETATM    9  O   UNK     0       1.745  -1.127 -10.135  0.00  0.00    -0.285 OA
HETATM   10  C   UNK     0       1.342  -3.128 -12.060  0.00  0.00     0.003 A 
HETATM   11  C   UNK     0      -0.582  -1.797 -12.793  0.00  0.00     0.044 A 
HETATM   12  C   UNK     0       1.032  -4.112 -13.015  0.00  0.00     0.000 A 
HETATM   13  C   UNK     0      -0.088  -3.955 -13.847  0.00  0.00     0.000 A 
HETATM   14  C   UNK     0      -0.893  -2.809 -13.735  0.00  0.00     0.003 A 
HETATM   15  C   UNK     0      -1.359  -0.603 -12.673  0.00  0.00     0.215 A 
HETATM   16  O   UNK     0      -2.421  -0.486 -13.333  0.00  0.00    -0.285 OA
ENDBRANCH   1   4
BRANCH   2  17
HETATM   17  C   UNK     0      -3.246   3.255 -10.932  0.00  0.00     0.219 C 
BRANCH  17  18
HETATM   18  N   UNK     0      -2.792   4.132  -9.895  0.00  0.00    -0.221 N 
HETATM   19  C   UNK     0      -3.542   4.893  -9.080  0.00  0.00     0.118 A 
HETATM   20  C   UNK     0      -2.670   5.454  -8.154  0.00  0.00     0.123 A 
HETATM   21  N   UNK     0      -1.444   5.028  -8.503  0.00  0.00    -0.129 NA
HETATM   22  C   UNK     0      -2.974   6.271  -7.038  0.00  0.00     0.021 A 
HETATM   23  N   UNK     0      -1.550   4.255  -9.537  0.00  0.00    -0.063 NA
HETATM   24  C   UNK     0      -2.216   6.161  -5.847  0.00  0.00     0.002 A 
HETATM   25  C   UNK     0      -4.038   7.204  -7.079  0.00  0.00     0.002 A 
HETATM   26  C   UNK     0      -2.516   6.957  -4.725  0.00  0.00     0.000 A 
HETATM   27  C   UNK     0      -3.569   7.886  -4.784  0.00  0.00     0.000 A 
HETATM   28  C   UNK     0      -4.330   8.009  -5.961  0.00  0.00     0.000 A 
ENDBRANCH  17  18
ENDBRANCH   2  17
TORSDOF 3
ENDMDL
MODEL 8
REMARK VINA RESULT:      -7.5     12.501     16.446
REMARK  3 active torsions:
REMARK  status: ('A' for Active; 'I' for Inactive)
REMARK    1  A    between atoms: C_9  and  N_13 
REMARK       I    between atoms: N_13  and  C_14 
REMARK    2  A    between atoms: C_14  and  C_17 
REMARK    3  A    between atoms: C_17  and  N_18 
ROOT
HETATM    1  N   UNK     0      -9.055  -8.095  -4.453  0.00  0.00    -0.205 NA
HETATM    2  C   UNK     0      -7.967  -8.862  -4.151  0.00  0.00     0.281 C 
HETATM    3  O   UNK     0      -6.944  -8.375  -3.611  0.00  0.00    -0.268 OA
ENDROOT
BRANCH   1   4
HETATM    4  C   UNK     0      -9.200  -6.785  -4.189  0.00  0.00     0.146 A 
HETATM    5  C   UNK     0      -8.515  -5.882  -4.936  0.00  0.00     0.162 A 
HETATM    6  C   UNK     0      -8.619  -4.506  -4.691  0.00  0.00     0.217 A 
HETATM    7  N   UNK     0      -7.710  -6.286  -5.912  0.00  0.00    -0.143 N 
HETATM    8  C   UNK     0      -9.389  -4.027  -3.590  0.00  0.00     0.044 A 
HETATM    9  O   UNK     0      -8.030  -3.692  -5.444  0.00  0.00    -0.285 OA
HETATM   10  C   UNK     0      -9.419  -2.655  -3.238  0.00  0.00     0.003 A 
HETATM   11  C   UNK     0     -10.141  -4.961  -2.824  0.00  0.00     0.044 A 
HETATM   12  C   UNK     0     -10.193  -2.212  -2.151  0.00  0.00     0.000 A 
HETATM   13  C   UNK     0     -10.953  -3.130  -1.410  0.00  0.00     0.000 A 
HETATM   14  C   UNK     0     -10.932  -4.494  -1.745  0.00  0.00     0.003 A 
HETATM   15  C   UNK     0     -10.071  -6.345  -3.174  0.00  0.00     0.215 A 
HETATM   16  O   UNK     0     -10.818  -7.170  -2.593  0.00  0.00    -0.285 OA
ENDBRANCH   1   4
BRANCH   2  17
HETATM   17  C   UNK     0      -7.982 -10.307  -4.452  0.00  0.00     0.219 C 
BRANCH  17  18
HETATM   18  N   UNK     0      -7.061 -11.081  -3.675  0.00  0.00    -0.221 N 
HETATM   19  C   UNK     0      -5.953 -11.709  -4.105  0.00  0.00     0.118 A 
HETATM   20  C   UNK     0      -5.317 -12.201  -2.972  0.00  0.00     0.123 A 
HETATM   21  N   UNK     0      -6.110 -11.876  -1.938  0.00  0.00    -0.129 NA
HETATM   22  C   UNK     0      -4.072 -12.871  -2.880  0.00  0.00     0.021 A 
HETATM   23  N   UNK     0      -7.133 -11.221  -2.386  0.00  0.00    -0.063 NA
HETATM   24  C   UNK     0      -3.232 -12.662  -1.759  0.00  0.00     0.002 A 
HETATM   25  C   UNK     0      -3.635 -13.752  -3.899  0.00  0.00     0.002 A 
HETATM   26  C   UNK     0      -1.986 -13.311  -1.662  0.00  0.00     0.000 A 
HETATM   27  C   UNK     0      -1.569 -14.190  -2.677  0.00  0.00     0.000 A 
HETATM   28  C   UNK     0      -2.394 -14.410  -3.795  0.00  0.00     0.000 A 
ENDBRANCH  17  18
ENDBRANCH   2  17
TORSDOF 3
ENDMDL
MODEL 9
REMARK VINA RESULT:      -7.5      2.414      9.725
REMARK  3 active torsions:
REMARK  status: ('A' for Active; 'I' for Inactive)
REMARK    1  A    between atoms: C_9  and  N_13 
REMARK       I    between atoms: N_13  and  C_14 
REMARK    2  A    between atoms: C_14  and  C_17 
REMARK    3  A    between atoms: C_17  and  N_18 
ROOT
HETATM    1  N   UNK     0       2.653  -4.776 -10.286  0.00  0.00    -0.205 NA
HETATM    2  C   UNK     0       3.951  -5.009  -9.932  0.00  0.00     0.281 C 
HETATM    3  O   UNK     0       4.894  -4.315 -10.384  0.00  0.00    -0.268 OA
ENDROOT
BRANCH   1   4
HETATM    4  C   UNK     0       2.215  -3.795 -11.094  0.00  0.00     0.146 A 
HETATM    5  C   UNK     0       2.140  -4.024 -12.428  0.00  0.00     0.162 A 
HETATM    6  C   UNK     0       1.705  -3.028 -13.315  0.00  0.00     0.217 A 
HETATM    7  N   UNK     0       2.497  -5.199 -12.933  0.00  0.00    -0.143 N 
HETATM    8  C   UNK     0       1.408  -1.718 -12.836  0.00  0.00     0.044 A 
HETATM    9  O   UNK     0       1.577  -3.292 -14.536  0.00  0.00    -0.285 OA
HETATM   10  C   UNK     0       1.083  -0.655 -13.714  0.00  0.00     0.003 A 
HETATM   11  C   UNK     0       1.446  -1.478 -11.434  0.00  0.00     0.044 A 
HETATM   12  C   UNK     0       0.790   0.624 -13.211  0.00  0.00     0.000 A 
HETATM   13  C   UNK     0       0.805   0.856 -11.828  0.00  0.00     0.000 A 
HETATM   14  C   UNK     0       1.126  -0.188 -10.943  0.00  0.00     0.003 A 
HETATM   15  C   UNK     0       1.808  -2.555 -10.566  0.00  0.00     0.215 A 
HETATM   16  O   UNK     0       1.731  -2.401  -9.322  0.00  0.00    -0.285 OA
ENDBRANCH   1   4
BRANCH   2  17
HETATM   17  C   UNK     0       4.269  -6.094  -8.983  0.00  0.00     0.219 C 
BRANCH  17  18
HETATM   18  N   UNK     0       5.410  -6.880  -9.347  0.00  0.00    -0.221 N 
HETATM   19  C   UNK     0       6.558  -7.023  -8.662  0.00  0.00     0.118 A 
HETATM   20  C   UNK     0       7.298  -7.987  -9.336  0.00  0.00     0.123 A 
HETATM   21  N   UNK     0       6.565  -8.327 -10.409  0.00  0.00    -0.129 NA
HETATM   22  C   UNK     0       8.547  -8.550  -8.976  0.00  0.00     0.021 A 
HETATM   23  N   UNK     0       5.459  -7.653 -10.389  0.00  0.00    -0.063 NA
HETATM   24  C   UNK     0       8.821  -9.912  -9.254  0.00  0.00     0.002 A 
HETATM   25  C   UNK     0       9.543  -7.779  -8.329  0.00  0.00     0.002 A 
HETATM   26  C   UNK     0      10.052 -10.489  -8.889  0.00  0.00     0.000 A 
HETATM   27  C   UNK     0      11.034  -9.707  -8.256  0.00  0.00     0.000 A 
HETATM   28  C   UNK     0      10.778  -8.353  -7.976  0.00  0.00     0.000 A 
ENDBRANCH  17  18
ENDBRANCH   2  17
TORSDOF 3
ENDMDL
