MODEL 1
REMARK VINA RESULT:      -7.2      0.000      0.000
REMARK  6 active torsions:
REMARK  status: ('A' for Active; 'I' for Inactive)
REMARK    1  A    between atoms: C_9  and  N_13 
REMARK       I    between atoms: N_13  and  C_14 
REMARK    2  A    between atoms: C_14  and  C_17 
REMARK    3  A    between atoms: C_17  and  N_18 
REMARK    4  A    between atoms: C_20  and  C_23 
REMARK    5  A    between atoms: C_23  and  C_25 
REMARK    6  A    between atoms: C_25  and  C_26 
ROOT
HETATM    1  N   UNK     0      -3.122   3.676 -11.046  0.00  0.00    -0.205 NA
HETATM    2  C   UNK     0      -2.929   2.330 -11.169  0.00  0.00     0.281 C 
HETATM    3  O   UNK     0      -2.889   1.887 -12.339  0.00  0.00    -0.268 OA
ENDROOT
BRANCH   1   4
HETATM    4  C   UNK     0      -3.199   4.349  -9.893  0.00  0.00     0.146 C 
HETATM    5  C   UNK     0      -4.414   4.614  -9.356  0.00  0.00     0.162 C 
HETATM    6  C   UNK     0      -4.523   5.429  -8.217  0.00  0.00     0.217 C 
HETATM    7  N   UNK     0      -5.518   4.136  -9.928  0.00  0.00    -0.143 N 
HETATM    8  C   UNK     0      -3.375   6.140  -7.733  0.00  0.00     0.044 A 
HETATM    9  O   UNK     0      -5.638   5.578  -7.659  0.00  0.00    -0.285 OA
HETATM   10  C   UNK     0      -3.471   7.159  -6.752  0.00  0.00     0.003 A 
HETATM   11  C   UNK     0      -2.101   5.828  -8.286  0.00  0.00     0.044 A 
HETATM   12  C   UNK     0      -2.331   7.884  -6.362  0.00  0.00     0.000 A 
HETATM   13  C   UNK     0      -1.080   7.591  -6.930  0.00  0.00     0.000 A 
HETATM   14  C   UNK     0      -0.961   6.562  -7.881  0.00  0.00     0.003 A 
HETATM   15  C   UNK     0      -2.026   4.800  -9.270  0.00  0.00     0.215 C 
HETATM   16  O   UNK     0      -0.919   4.309  -9.597  0.00  0.00    -0.285 OA
ENDBRANCH   1   4
BRANCH   2  17
HETATM   17  C   UNK     0      -2.733   1.356 -10.063  0.00  0.00     0.219 C 
BRANCH  17  18
HETATM   18  N   UNK     0      -1.494   0.658 -10.193  0.00  0.00    -0.221 N 
HETATM   19  C   UNK     0      -1.311  -0.553 -10.747  0.00  0.00     0.114 A 
HETATM   20  C   UNK     0       0.045  -0.829 -10.644  0.00  0.00     0.101 A 
HETATM   21  N   UNK     0       0.593   0.245 -10.051  0.00  0.00    -0.133 NA
HETATM   22  N   UNK     0      -0.342   1.107  -9.800  0.00  0.00    -0.064 NA
BRANCH  20  23
HETATM   23  C   UNK     0       0.756  -2.066 -11.060  0.00  0.00     0.044 C 
HETATM   24  C   UNK     0       1.314  -1.908 -12.502  0.00  0.00     0.006 C 
BRANCH  23  25
HETATM   25  C   UNK     0       1.888  -2.452 -10.055  0.00  0.00     0.006 C 
BRANCH  25  26
HETATM   26  C   UNK     0       3.257  -2.726 -10.740  0.00  0.00     0.000 C 
HETATM   27  C   UNK     0       3.835  -4.120 -10.417  0.00  0.00     0.000 C 
ENDBRANCH  25  26
ENDBRANCH  23  25
ENDBRANCH  20  23
ENDBRANCH  17  18
ENDBRANCH   2  17
TORSDOF 6
ENDMDL
MODEL 2
REMARK VINA RESULT:      -7.1      1.680      2.378
REMARK  6 active torsions:
REMARK  status: ('A' for Active; 'I' for Inactive)
REMARK    1  A    between atoms: C_9  and  N_13 
REMARK       I    between atoms: N_13  and  C_14 
REMARK    2  A    between atoms: C_14  and  C_17 
REMARK    3  A    between atoms: C_17  and  N_18 
REMARK    4  A    between atoms: C_20  and  C_23 
REMARK    5  A    between atoms: C_23  and  C_25 
REMARK    6  A    between atoms: C_25  and  C_26 
ROOT
HETATM    1  N   UNK     0      -2.125   1.924 -12.202  0.00  0.00    -0.205 NA
HETATM    2  C   UNK     0      -1.605   0.663 -12.139  0.00  0.00     0.281 C 
HETATM    3  O   UNK     0      -1.024   0.257 -13.171  0.00  0.00    -0.268 OA
ENDROOT
BRANCH   1   4
HETATM    4  C   UNK     0      -2.784   2.545 -11.219  0.00  0.00     0.146 C 
HETATM    5  C   UNK     0      -4.133   2.445 -11.154  0.00  0.00     0.162 C 
HETATM    6  C   UNK     0      -4.854   3.193 -10.208  0.00  0.00     0.217 C 
HETATM    7  N   UNK     0      -4.790   1.668 -12.014  0.00  0.00    -0.143 N 
HETATM    8  C   UNK     0      -4.191   4.205  -9.439  0.00  0.00     0.044 A 
HETATM    9  O   UNK     0      -6.090   3.012 -10.078  0.00  0.00    -0.285 OA
HETATM   10  C   UNK     0      -4.900   5.152  -8.657  0.00  0.00     0.003 A 
HETATM   11  C   UNK     0      -2.770   4.277  -9.494  0.00  0.00     0.044 A 
HETATM   12  C   UNK     0      -4.214   6.176  -7.981  0.00  0.00     0.000 A 
HETATM   13  C   UNK     0      -2.813   6.259  -8.059  0.00  0.00     0.000 A 
HETATM   14  C   UNK     0      -2.091   5.309  -8.803  0.00  0.00     0.003 A 
HETATM   15  C   UNK     0      -2.076   3.316 -10.284  0.00  0.00     0.215 C 
HETATM   16  O   UNK     0      -0.836   3.167 -10.166  0.00  0.00    -0.285 OA
ENDBRANCH   1   4
BRANCH   2  17
HETATM   17  C   UNK     0      -1.636  -0.252 -10.968  0.00  0.00     0.219 C 
BRANCH  17  18
HETATM   18  N   UNK     0      -0.353  -0.829 -10.721  0.00  0.00    -0.221 N 
HETATM   19  C   UNK     0       0.003  -2.110 -10.921  0.00  0.00     0.114 A 
HETATM   20  C   UNK     0       1.331  -2.211 -10.536  0.00  0.00     0.101 A 
HETATM   21  N   UNK     0       1.696  -0.978 -10.147  0.00  0.00    -0.133 NA
HETATM   22  N   UNK     0       0.679  -0.183 -10.271  0.00  0.00    -0.064 NA
BRANCH  20  23
HETATM   23  C   UNK     0       2.182  -3.430 -10.513  0.00  0.00     0.044 C 
HETATM   24  C   UNK     0       1.868  -4.330 -11.740  0.00  0.00     0.006 C 
BRANCH  23  25
HETATM   25  C   UNK     0       3.702  -3.078 -10.446  0.00  0.00     0.006 C 
BRANCH  25  26
HETATM   26  C   UNK     0       4.632  -4.305 -10.660  0.00  0.00     0.000 C 
HETATM   27  C   UNK     0       4.770  -5.195  -9.406  0.00  0.00     0.000 C 
ENDBRANCH  25  26
ENDBRANCH  23  25
ENDBRANCH  20  23
ENDBRANCH  17  18
ENDBRANCH   2  17
TORSDOF 6
ENDMDL
MODEL 3
REMARK VINA RESULT:      -7.0      3.147      4.928
REMARK  6 active torsions:
REMARK  status: ('A' for Active; 'I' for Inactive)
REMARK    1  A    between atoms: C_9  and  N_13 
REMARK       I    between atoms: N_13  and  C_14 
REMARK    2  A    between atoms: C_14  and  C_17 
REMARK    3  A    between atoms: C_17  and  N_18 
REMARK    4  A    between atoms: C_20  and  C_23 
REMARK    5  A    between atoms: C_23  and  C_25 
REMARK    6  A    between atoms: C_25  and  C_26 
ROOT
HETATM    1  N   UNK     0      -0.304   0.093 -12.442  0.00  0.00    -0.205 NA
HETATM    2  C   UNK     0       0.372  -1.051 -12.127  0.00  0.00     0.281 C 
HETATM    3  O   UNK     0       1.394  -1.289 -12.811  0.00  0.00    -0.268 OA
ENDROOT
BRANCH   1   4
HETATM    4  C   UNK     0      -1.416   0.530 -11.843  0.00  0.00     0.146 C 
HETATM    5  C   UNK     0      -2.620   0.061 -12.248  0.00  0.00     0.162 C 
HETATM    6  C   UNK     0      -3.805   0.602 -11.722  0.00  0.00     0.217 C 
HETATM    7  N   UNK     0      -2.690  -0.888 -13.181  0.00  0.00    -0.143 N 
HETATM    8  C   UNK     0      -3.753   1.777 -10.901  0.00  0.00     0.044 A 
HETATM    9  O   UNK     0      -4.912   0.088 -12.017  0.00  0.00    -0.285 OA
HETATM   10  C   UNK     0      -4.915   2.508 -10.547  0.00  0.00     0.003 A 
HETATM   11  C   UNK     0      -2.482   2.239 -10.458  0.00  0.00     0.044 A 
HETATM   12  C   UNK     0      -4.812   3.698  -9.806  0.00  0.00     0.000 A 
HETATM   13  C   UNK     0      -3.552   4.165  -9.393  0.00  0.00     0.000 A 
HETATM   14  C   UNK     0      -2.392   3.435  -9.707  0.00  0.00     0.003 A 
HETATM   15  C   UNK     0      -1.326   1.489 -10.823  0.00  0.00     0.215 C 
HETATM   16  O   UNK     0      -0.226   1.693 -10.255  0.00  0.00    -0.285 OA
ENDBRANCH   1   4
BRANCH   2  17
HETATM   17  C   UNK     0       0.034  -2.013 -11.046  0.00  0.00     0.219 C 
BRANCH  17  18
HETATM   18  N   UNK     0       1.179  -2.763 -10.637  0.00  0.00    -0.221 N 
HETATM   19  C   UNK     0       1.636  -3.897 -11.195  0.00  0.00     0.114 A 
HETATM   20  C   UNK     0       2.755  -4.268 -10.465  0.00  0.00     0.101 A 
HETATM   21  N   UNK     0       2.911  -3.321  -9.525  0.00  0.00    -0.133 NA
HETATM   22  N   UNK     0       1.965  -2.444  -9.655  0.00  0.00    -0.064 NA
BRANCH  20  23
HETATM   23  C   UNK     0       3.598  -5.480 -10.644  0.00  0.00     0.044 C 
HETATM   24  C   UNK     0       4.205  -5.508 -12.073  0.00  0.00     0.006 C 
BRANCH  23  25
HETATM   25  C   UNK     0       4.713  -5.579  -9.554  0.00  0.00     0.006 C 
BRANCH  25  26
HETATM   26  C   UNK     0       4.432  -6.666  -8.479  0.00  0.00     0.000 C 
HETATM   27  C   UNK     0       5.672  -7.519  -8.132  0.00  0.00     0.000 C 
ENDBRANCH  25  26
ENDBRANCH  23  25
ENDBRANCH  20  23
ENDBRANCH  17  18
ENDBRANCH   2  17
TORSDOF 6
ENDMDL
MODEL 4
REMARK VINA RESULT:      -7.0     12.799     13.942
REMARK  6 active torsions:
REMARK  status: ('A' for Active; 'I' for Inactive)
REMARK    1  A    between atoms: C_9  and  N_13 
REMARK       I    between atoms: N_13  and  C_14 
REMARK    2  A    between atoms: C_14  and  C_17 
REMARK    3  A    between atoms: C_17  and  N_18 
REMARK    4  A    between atoms: C_20  and  C_23 
REMARK    5  A    between atoms: C_23  and  C_25 
REMARK    6  A    between atoms: C_25  and  C_26 
ROOT
HETATM    1  N   UNK     0     -10.075  -7.513  -5.428  0.00  0.00    -0.205 NA
HETATM    2  C   UNK     0      -9.586  -8.641  -4.834  0.00  0.00     0.281 C 
HETATM    3  O   UNK     0      -9.781  -9.713  -5.449  0.00  0.00    -0.268 OA
ENDROOT
BRANCH   1   4
HETATM    4  C   UNK     0      -9.979  -6.272  -4.941  0.00  0.00     0.146 C 
HETATM    5  C   UNK     0      -8.925  -5.497  -5.292  0.00  0.00     0.162 C 
HETATM    6  C   UNK     0      -8.736  -4.241  -4.692  0.00  0.00     0.217 C 
HETATM    7  N   UNK     0      -8.036  -5.939  -6.181  0.00  0.00    -0.143 N 
HETATM    8  C   UNK     0      -9.544  -3.855  -3.571  0.00  0.00     0.044 A 
HETATM    9  O   UNK     0      -7.824  -3.482  -5.102  0.00  0.00    -0.285 OA
HETATM   10  C   UNK     0      -9.244  -2.722  -2.773  0.00  0.00     0.003 A 
HETATM   11  C   UNK     0     -10.666  -4.663  -3.233  0.00  0.00     0.044 A 
HETATM   12  C   UNK     0     -10.016  -2.425  -1.636  0.00  0.00     0.000 A 
HETATM   13  C   UNK     0     -11.107  -3.240  -1.291  0.00  0.00     0.000 A 
HETATM   14  C   UNK     0     -11.439  -4.349  -2.090  0.00  0.00     0.003 A 
HETATM   15  C   UNK     0     -10.952  -5.796  -4.048  0.00  0.00     0.215 C 
HETATM   16  O   UNK     0     -12.056  -6.385  -3.960  0.00  0.00    -0.285 OA
ENDBRANCH   1   4
BRANCH   2  17
HETATM   17  C   UNK     0      -8.829  -8.714  -3.556  0.00  0.00     0.219 C 
BRANCH  17  18
HETATM   18  N   UNK     0      -7.701  -9.583  -3.666  0.00  0.00    -0.221 N 
HETATM   19  C   UNK     0      -7.528 -10.756  -3.033  0.00  0.00     0.114 A 
HETATM   20  C   UNK     0      -6.291 -11.238  -3.435  0.00  0.00     0.101 A 
HETATM   21  N   UNK     0      -5.808 -10.332  -4.302  0.00  0.00    -0.133 NA
HETATM   22  N   UNK     0      -6.667  -9.367  -4.419  0.00  0.00    -0.064 NA
BRANCH  20  23
HETATM   23  C   UNK     0      -5.606 -12.478  -2.983  0.00  0.00     0.044 C 
HETATM   24  C   UNK     0      -5.451 -13.471  -4.167  0.00  0.00     0.006 C 
BRANCH  23  25
HETATM   25  C   UNK     0      -4.227 -12.171  -2.318  0.00  0.00     0.006 C 
BRANCH  25  26
HETATM   26  C   UNK     0      -4.273 -12.183  -0.763  0.00  0.00     0.000 C 
HETATM   27  C   UNK     0      -2.902 -11.911  -0.108  0.00  0.00     0.000 C 
ENDBRANCH  25  26
ENDBRANCH  23  25
ENDBRANCH  20  23
ENDBRANCH  17  18
ENDBRANCH   2  17
TORSDOF 6
ENDMDL
MODEL 5
REMARK VINA RESULT:      -7.0      5.068      9.384
REMARK  6 active torsions:
REMARK  status: ('A' for Active; 'I' for Inactive)
REMARK    1  A    between atoms: C_9  and  N_13 
REMARK       I    between atoms: N_13  and  C_14 
REMARK    2  A    between atoms: C_14  and  C_17 
REMARK    3  A    between atoms: C_17  and  N_18 
REMARK    4  A    between atoms: C_20  and  C_23 
REMARK    5  A    between atoms: C_23  and  C_25 
REMARK    6  A    between atoms: C_25  and  C_26 
ROOT
HETATM    1  N   UNK     0       2.694  -4.585 -11.870  0.00  0.00    -0.205 NA
HETATM    2  C   UNK     0       2.959  -4.096 -10.623  0.00  0.00     0.281 C 
HETATM    3  O   UNK     0       3.190  -4.949  -9.737  0.00  0.00    -0.268 OA
ENDROOT
BRANCH   1   4
HETATM    4  C   UNK     0       2.420  -3.850 -12.953  0.00  0.00     0.146 C 
HETATM    5  C   UNK     0       3.437  -3.321 -13.674  0.00  0.00     0.162 C 
HETATM    6  C   UNK     0       3.170  -2.441 -14.736  0.00  0.00     0.217 C 
HETATM    7  N   UNK     0       4.701  -3.599 -13.355  0.00  0.00    -0.143 N 
HETATM    8  C   UNK     0       1.839  -1.949 -14.941  0.00  0.00     0.044 A 
HETATM    9  O   UNK     0       4.108  -2.044 -15.470  0.00  0.00    -0.285 OA
HETATM   10  C   UNK     0       1.552  -0.881 -15.827  0.00  0.00     0.003 A 
HETATM   11  C   UNK     0       0.777  -2.537 -14.197  0.00  0.00     0.044 A 
HETATM   12  C   UNK     0       0.244  -0.377 -15.939  0.00  0.00     0.000 A 
HETATM   13  C   UNK     0      -0.797  -0.943 -15.183  0.00  0.00     0.000 A 
HETATM   14  C   UNK     0      -0.537  -2.024 -14.323  0.00  0.00     0.003 A 
HETATM   15  C   UNK     0       1.085  -3.610 -13.312  0.00  0.00     0.215 C 
HETATM   16  O   UNK     0       0.174  -4.328 -12.836  0.00  0.00    -0.285 OA
ENDBRANCH   1   4
BRANCH   2  17
HETATM   17  C   UNK     0       3.028  -2.664 -10.227  0.00  0.00     0.219 C 
BRANCH  17  18
HETATM   18  N   UNK     0       1.764  -2.018 -10.381  0.00  0.00    -0.221 N 
HETATM   19  C   UNK     0       1.539  -0.822 -10.952  0.00  0.00     0.114 A 
HETATM   20  C   UNK     0       0.172  -0.600 -10.867  0.00  0.00     0.101 A 
HETATM   21  N   UNK     0      -0.340  -1.686 -10.266  0.00  0.00    -0.133 NA
HETATM   22  N   UNK     0       0.627  -2.508  -9.994  0.00  0.00    -0.064 NA
BRANCH  20  23
HETATM   23  C   UNK     0      -0.583   0.603 -11.307  0.00  0.00     0.044 C 
HETATM   24  C   UNK     0       0.205   1.361 -12.411  0.00  0.00     0.006 C 
BRANCH  23  25
HETATM   25  C   UNK     0      -2.024   0.241 -11.789  0.00  0.00     0.006 C 
BRANCH  25  26
HETATM   26  C   UNK     0      -3.126   0.558 -10.739  0.00  0.00     0.000 C 
HETATM   27  C   UNK     0      -2.655   1.523  -9.630  0.00  0.00     0.000 C 
ENDBRANCH  25  26
ENDBRANCH  23  25
ENDBRANCH  20  23
ENDBRANCH  17  18
ENDBRANCH   2  17
TORSDOF 6
ENDMDL
MODEL 6
REMARK VINA RESULT:      -6.9     12.234     13.866
REMARK  6 active torsions:
REMARK  status: ('A' for Active; 'I' for Inactive)
REMARK    1  A    between atoms: C_9  and  N_13 
REMARK       I    between atoms: N_13  and  C_14 
REMARK    2  A    between atoms: C_14  and  C_17 
REMARK    3  A    between atoms: C_17  and  N_18 
REMARK    4  A    between atoms: C_20  and  C_23 
REMARK    5  A    between atoms: C_23  and  C_25 
REMARK    6  A    between atoms: C_25  and  C_26 
ROOT
HETATM    1  N   UNK     0      -9.193  -3.949  -3.122  0.00  0.00    -0.205 NA
HETATM    2  C   UNK     0      -8.825  -3.397  -4.316  0.00  0.00     0.281 C 
HETATM    3  O   UNK     0      -7.922  -2.532  -4.265  0.00  0.00    -0.268 OA
ENDROOT
BRANCH   1   4
HETATM    4  C   UNK     0     -10.135  -4.882  -2.954  0.00  0.00     0.146 C 
HETATM    5  C   UNK     0      -9.788  -6.191  -2.980  0.00  0.00     0.162 C 
HETATM    6  C   UNK     0     -10.777  -7.188  -2.935  0.00  0.00     0.217 C 
HETATM    7  N   UNK     0      -8.508  -6.543  -3.090  0.00  0.00    -0.143 N 
HETATM    8  C   UNK     0     -12.161  -6.829  -3.055  0.00  0.00     0.044 A 
HETATM    9  O   UNK     0     -10.446  -8.395  -2.846  0.00  0.00    -0.285 OA
HETATM   10  C   UNK     0     -13.180  -7.792  -3.264  0.00  0.00     0.003 A 
HETATM   11  C   UNK     0     -12.512  -5.451  -2.994  0.00  0.00     0.044 A 
HETATM   12  C   UNK     0     -14.514  -7.391  -3.454  0.00  0.00     0.000 A 
HETATM   13  C   UNK     0     -14.852  -6.027  -3.420  0.00  0.00     0.000 A 
HETATM   14  C   UNK     0     -13.860  -5.060  -3.182  0.00  0.00     0.003 A 
HETATM   15  C   UNK     0     -11.474  -4.498  -2.782  0.00  0.00     0.215 C 
HETATM   16  O   UNK     0     -11.746  -3.316  -2.464  0.00  0.00    -0.285 OA
ENDBRANCH   1   4
BRANCH   2  17
HETATM   17  C   UNK     0      -9.367  -3.740  -5.657  0.00  0.00     0.219 C 
BRANCH  17  18
HETATM   18  N   UNK     0      -8.692  -4.866  -6.221  0.00  0.00    -0.221 N 
HETATM   19  C   UNK     0      -9.257  -5.888  -6.887  0.00  0.00     0.114 A 
HETATM   20  C   UNK     0      -8.223  -6.745  -7.237  0.00  0.00     0.101 A 
HETATM   21  N   UNK     0      -7.100  -6.172  -6.775  0.00  0.00    -0.133 NA
HETATM   22  N   UNK     0      -7.410  -5.061  -6.182  0.00  0.00    -0.064 NA
BRANCH  20  23
HETATM   23  C   UNK     0      -8.322  -8.050  -7.941  0.00  0.00     0.044 C 
HETATM   24  C   UNK     0      -7.673  -7.954  -9.350  0.00  0.00     0.006 C 
BRANCH  23  25
HETATM   25  C   UNK     0      -7.693  -9.211  -7.107  0.00  0.00     0.006 C 
BRANCH  25  26
HETATM   26  C   UNK     0      -8.126  -9.206  -5.614  0.00  0.00     0.000 C 
HETATM   27  C   UNK     0      -6.943  -9.346  -4.633  0.00  0.00     0.000 C 
ENDBRANCH  25  26
ENDBRANCH  23  25
ENDBRANCH  20  23
ENDBRANCH  17  18
ENDBRANCH   2  17
TORSDOF 6
ENDMDL
MODEL 7
REMARK VINA RESULT:      -6.9      1.748      3.042
REMARK  6 active torsions:
REMARK  status: ('A' for Active; 'I' for Inactive)
REMARK    1  A    between atoms: C_9  and  N_13 
REMARK       I    between atoms: N_13  and  C_14 
REMARK    2  A    between atoms: C_14  and  C_17 
REMARK    3  A    between atoms: C_17  and  N_18 
REMARK    4  A    between atoms: C_20  and  C_23 
REMARK    5  A    between atoms: C_23  and  C_25 
REMARK    6  A    between atoms: C_25  and  C_26 
ROOT
HETATM    1  N   UNK     0      -3.945   5.145 -10.218  0.00  0.00    -0.205 NA
HETATM    2  C   UNK     0      -4.318   3.863 -10.503  0.00  0.00     0.281 C 
HETATM    3  O   UNK     0      -4.670   3.644 -11.684  0.00  0.00    -0.268 OA
ENDROOT
BRANCH   1   4
HETATM    4  C   UNK     0      -3.540   5.591  -9.025  0.00  0.00     0.146 C 
HETATM    5  C   UNK     0      -2.229   5.511  -8.693  0.00  0.00     0.162 C 
HETATM    6  C   UNK     0      -1.802   5.852  -7.399  0.00  0.00     0.217 C 
HETATM    7  N   UNK     0      -1.339   5.067  -9.581  0.00  0.00    -0.143 N 
HETATM    8  C   UNK     0      -2.769   6.103  -6.370  0.00  0.00     0.044 A 
HETATM    9  O   UNK     0      -0.576   5.884  -7.132  0.00  0.00    -0.285 OA
HETATM   10  C   UNK     0      -2.412   6.208  -5.002  0.00  0.00     0.003 A 
HETATM   11  C   UNK     0      -4.139   6.215  -6.739  0.00  0.00     0.044 A 
HETATM   12  C   UNK     0      -3.401   6.375  -4.017  0.00  0.00     0.000 A 
HETATM   13  C   UNK     0      -4.755   6.459  -4.383  0.00  0.00     0.000 A 
HETATM   14  C   UNK     0      -5.125   6.390  -5.738  0.00  0.00     0.003 A 
HETATM   15  C   UNK     0      -4.478   6.109  -8.119  0.00  0.00     0.215 C 
HETATM   16  O   UNK     0      -5.613   6.454  -8.528  0.00  0.00    -0.285 OA
ENDBRANCH   1   4
BRANCH   2  17
HETATM   17  C   UNK     0      -4.318   2.709  -9.565  0.00  0.00     0.219 C 
BRANCH  17  18
HETATM   18  N   UNK     0      -3.230   1.822  -9.826  0.00  0.00    -0.221 N 
HETATM   19  C   UNK     0      -3.220   0.802 -10.702  0.00  0.00     0.114 A 
HETATM   20  C   UNK     0      -1.964   0.220 -10.609  0.00  0.00     0.101 A 
HETATM   21  N   UNK     0      -1.292   0.941  -9.696  0.00  0.00    -0.133 NA
HETATM   22  N   UNK     0      -2.067   1.883  -9.254  0.00  0.00    -0.064 NA
BRANCH  20  23
HETATM   23  C   UNK     0      -1.461  -0.977 -11.331  0.00  0.00     0.044 C 
HETATM   24  C   UNK     0      -2.048  -1.027 -12.769  0.00  0.00     0.006 C 
BRANCH  23  25
HETATM   25  C   UNK     0       0.100  -1.028 -11.356  0.00  0.00     0.006 C 
BRANCH  25  26
HETATM   26  C   UNK     0       0.692  -2.257 -10.609  0.00  0.00     0.000 C 
HETATM   27  C   UNK     0       0.762  -3.528 -11.482  0.00  0.00     0.000 C 
ENDBRANCH  25  26
ENDBRANCH  23  25
ENDBRANCH  20  23
ENDBRANCH  17  18
ENDBRANCH   2  17
TORSDOF 6
ENDMDL
MODEL 8
REMARK VINA RESULT:      -6.8      1.009      1.199
REMARK  6 active torsions:
REMARK  status: ('A' for Active; 'I' for Inactive)
REMARK    1  A    between atoms: C_9  and  N_13 
REMARK       I    between atoms: N_13  and  C_14 
REMARK    2  A    between atoms: C_14  and  C_17 
REMARK    3  A    between atoms: C_17  and  N_18 
REMARK    4  A    between atoms: C_20  and  C_23 
REMARK    5  A    between atoms: C_23  and  C_25 
REMARK    6  A    between atoms: C_25  and  C_26 
ROOT
HETATM    1  N   UNK     0      -2.997   4.675 -10.417  0.00  0.00    -0.205 NA
HETATM    2  C   UNK     0      -2.770   3.371 -10.750  0.00  0.00     0.281 C 
HETATM    3  O   UNK     0      -2.444   3.157 -11.940  0.00  0.00    -0.268 OA
ENDROOT
BRANCH   1   4
HETATM    4  C   UNK     0      -3.356   5.120  -9.209  0.00  0.00     0.146 C 
HETATM    5  C   UNK     0      -4.670   5.228  -8.902  0.00  0.00     0.162 C 
HETATM    6  C   UNK     0      -5.070   5.813  -7.689  0.00  0.00     0.217 C 
HETATM    7  N   UNK     0      -5.597   4.817  -9.768  0.00  0.00    -0.143 N 
HETATM    8  C   UNK     0      -4.103   6.470  -6.859  0.00  0.00     0.044 A 
HETATM    9  O   UNK     0      -6.282   5.808  -7.361  0.00  0.00    -0.285 OA
HETATM   10  C   UNK     0      -4.473   7.285  -5.759  0.00  0.00     0.003 A 
HETATM   11  C   UNK     0      -2.723   6.321  -7.177  0.00  0.00     0.044 A 
HETATM   12  C   UNK     0      -3.496   7.974  -5.020  0.00  0.00     0.000 A 
HETATM   13  C   UNK     0      -2.137   7.846  -5.353  0.00  0.00     0.000 A 
HETATM   14  C   UNK     0      -1.749   7.016  -6.420  0.00  0.00     0.003 A 
HETATM   15  C   UNK     0      -2.370   5.497  -8.284  0.00  0.00     0.215 C 
HETATM   16  O   UNK     0      -1.184   5.123  -8.451  0.00  0.00    -0.285 OA
ENDBRANCH   1   4
BRANCH   2  17
HETATM   17  C   UNK     0      -2.842   2.197  -9.840  0.00  0.00     0.219 C 
BRANCH  17  18
HETATM   18  N   UNK     0      -1.819   1.245 -10.132  0.00  0.00    -0.221 N 
HETATM   19  C   UNK     0      -1.938   0.150 -10.902  0.00  0.00     0.114 A 
HETATM   20  C   UNK     0      -0.699  -0.473 -10.890  0.00  0.00     0.101 A 
HETATM   21  N   UNK     0       0.093   0.300 -10.128  0.00  0.00    -0.133 NA
HETATM   22  N   UNK     0      -0.598   1.309  -9.697  0.00  0.00    -0.064 NA
BRANCH  20  23
HETATM   23  C   UNK     0      -0.316  -1.751 -11.545  0.00  0.00     0.044 C 
HETATM   24  C   UNK     0       0.254  -1.481 -12.965  0.00  0.00     0.006 C 
BRANCH  23  25
HETATM   25  C   UNK     0       0.691  -2.571 -10.678  0.00  0.00     0.006 C 
BRANCH  25  26
HETATM   26  C   UNK     0       2.060  -2.808 -11.377  0.00  0.00     0.000 C 
HETATM   27  C   UNK     0       3.253  -2.825 -10.398  0.00  0.00     0.000 C 
ENDBRANCH  25  26
ENDBRANCH  23  25
ENDBRANCH  20  23
ENDBRANCH  17  18
ENDBRANCH   2  17
TORSDOF 6
ENDMDL
MODEL 9
REMARK VINA RESULT:      -6.8     11.647     13.551
REMARK  6 active torsions:
REMARK  status: ('A' for Active; 'I' for Inactive)
REMARK    1  A    between atoms: C_9  and  N_13 
REMARK       I    between atoms: N_13  and  C_14 
REMARK    2  A    between atoms: C_14  and  C_17 
REMARK    3  A    between atoms: C_17  and  N_18 
REMARK    4  A    between atoms: C_20  and  C_23 
REMARK    5  A    between atoms: C_23  and  C_25 
REMARK    6  A    between atoms: C_25  and  C_26 
ROOT
HETATM    1  N   UNK     0     -11.349  -3.048  -3.926  0.00  0.00    -0.205 NA
HETATM    2  C   UNK     0     -10.269  -3.166  -3.099  0.00  0.00     0.281 C 
HETATM    3  O   UNK     0      -9.924  -2.124  -2.496  0.00  0.00    -0.268 OA
ENDROOT
BRANCH   1   4
HETATM    4  C   UNK     0     -11.876  -4.031  -4.662  0.00  0.00     0.146 C 
HETATM    5  C   UNK     0     -12.723  -4.916  -4.084  0.00  0.00     0.162 C 
HETATM    6  C   UNK     0     -13.186  -6.030  -4.804  0.00  0.00     0.217 C 
HETATM    7  N   UNK     0     -13.091  -4.758  -2.812  0.00  0.00    -0.143 N 
HETATM    8  C   UNK     0     -12.617  -6.342  -6.083  0.00  0.00     0.044 A 
HETATM    9  O   UNK     0     -14.056  -6.783  -4.301  0.00  0.00    -0.285 OA
HETATM   10  C   UNK     0     -12.859  -7.573  -6.742  0.00  0.00     0.003 A 
HETATM   11  C   UNK     0     -11.753  -5.388  -6.692  0.00  0.00     0.044 A 
HETATM   12  C   UNK     0     -12.219  -7.870  -7.958  0.00  0.00     0.000 A 
HETATM   13  C   UNK     0     -11.347  -6.937  -8.543  0.00  0.00     0.000 A 
HETATM   14  C   UNK     0     -11.121  -5.696  -7.920  0.00  0.00     0.003 A 
HETATM   15  C   UNK     0     -11.525  -4.155  -6.015  0.00  0.00     0.215 C 
HETATM   16  O   UNK     0     -10.994  -3.187  -6.611  0.00  0.00    -0.285 OA
ENDBRANCH   1   4
BRANCH   2  17
HETATM   17  C   UNK     0      -9.490  -4.403  -2.826  0.00  0.00     0.219 C 
BRANCH  17  18
HETATM   18  N   UNK     0      -8.855  -4.892  -4.007  0.00  0.00    -0.221 N 
HETATM   19  C   UNK     0      -8.864  -6.159  -4.457  0.00  0.00     0.114 A 
HETATM   20  C   UNK     0      -8.114  -6.165  -5.624  0.00  0.00     0.101 A 
HETATM   21  N   UNK     0      -7.718  -4.896  -5.812  0.00  0.00    -0.133 NA
HETATM   22  N   UNK     0      -8.175  -4.167  -4.841  0.00  0.00    -0.064 NA
BRANCH  20  23
HETATM   23  C   UNK     0      -7.775  -7.331  -6.481  0.00  0.00     0.044 C 
HETATM   24  C   UNK     0      -8.797  -8.480  -6.260  0.00  0.00     0.006 C 
BRANCH  23  25
HETATM   25  C   UNK     0      -7.685  -6.938  -7.990  0.00  0.00     0.006 C 
BRANCH  25  26
HETATM   26  C   UNK     0      -7.877  -8.141  -8.956  0.00  0.00     0.000 C 
HETATM   27  C   UNK     0      -7.099  -7.992 -10.281  0.00  0.00     0.000 C 
ENDBRANCH  25  26
ENDBRANCH  23  25
ENDBRANCH  20  23
ENDBRANCH  17  18
ENDBRANCH   2  17
TORSDOF 6
ENDMDL
