MODEL 1
REMARK VINA RESULT:      -7.7      0.000      0.000
REMARK  4 active torsions:
REMARK  status: ('A' for Active; 'I' for Inactive)
REMARK    1  A    between atoms: C_9  and  N_13 
REMARK       I    between atoms: N_13  and  C_14 
REMARK    2  A    between atoms: C_14  and  C_17 
REMARK    3  A    between atoms: C_17  and  N_18 
REMARK    4  A    between atoms: C_20  and  C_23 
ROOT
HETATM    1  N   UNK     0      -3.123   3.731 -11.230  0.00  0.00    -0.205 NA
HETATM    2  C   UNK     0      -2.821   2.420 -11.473  0.00  0.00     0.281 C 
HETATM    3  O   UNK     0      -2.527   2.139 -12.658  0.00  0.00    -0.268 OA
ENDROOT
BRANCH   1   4
HETATM    4  C   UNK     0      -3.422   4.276 -10.046  0.00  0.00     0.146 C 
HETATM    5  C   UNK     0      -4.722   4.426  -9.694  0.00  0.00     0.162 C 
HETATM    6  C   UNK     0      -5.076   5.071  -8.501  0.00  0.00     0.217 C 
HETATM    7  N   UNK     0      -5.699   4.001 -10.485  0.00  0.00    -0.143 N 
HETATM    8  C   UNK     0      -4.079   5.742  -7.730  0.00  0.00     0.044 A 
HETATM    9  O   UNK     0      -6.272   5.074  -8.120  0.00  0.00    -0.285 OA
HETATM   10  C   UNK     0      -4.412   6.625  -6.676  0.00  0.00     0.003 A 
HETATM   11  C   UNK     0      -2.710   5.533  -8.061  0.00  0.00     0.044 A 
HETATM   12  C   UNK     0      -3.402   7.291  -5.959  0.00  0.00     0.000 A 
HETATM   13  C   UNK     0      -2.051   7.062  -6.266  0.00  0.00     0.000 A 
HETATM   14  C   UNK     0      -1.705   6.182  -7.305  0.00  0.00     0.003 A 
HETATM   15  C   UNK     0      -2.401   4.696  -9.177  0.00  0.00     0.215 C 
HETATM   16  O   UNK     0      -1.214   4.346  -9.394  0.00  0.00    -0.285 OA
ENDBRANCH   1   4
BRANCH   2  17
HETATM   17  C   UNK     0      -2.772   1.317 -10.480  0.00  0.00     0.219 C 
BRANCH  17  18
HETATM   18  N   UNK     0      -1.473   0.722 -10.405  0.00  0.00    -0.221 N 
HETATM   19  C   UNK     0      -1.078  -0.418 -10.995  0.00  0.00     0.114 A 
HETATM   20  C   UNK     0       0.269  -0.564 -10.706  0.00  0.00     0.101 A 
HETATM   21  N   UNK     0       0.599   0.491  -9.944  0.00  0.00    -0.133 NA
HETATM   22  N   UNK     0      -0.455   1.230  -9.780  0.00  0.00    -0.064 NA
BRANCH  20  23
HETATM   23  C   UNK     0       1.166  -1.650 -11.172  0.00  0.00     0.044 C 
HETATM   24  C   UNK     0       0.570  -3.071 -11.044  0.00  0.00     0.006 C 
HETATM   25  C   UNK     0       1.792  -4.007 -11.097  0.00  0.00     0.000 C 
HETATM   26  C   UNK     0       2.969  -3.204 -10.500  0.00  0.00     0.000 C 
HETATM   27  C   UNK     0       2.504  -1.733 -10.397  0.00  0.00     0.006 C 
ENDBRANCH  20  23
ENDBRANCH  17  18
ENDBRANCH   2  17
TORSDOF 4
ENDMDL
MODEL 2
REMARK VINA RESULT:      -7.6      1.587      2.408
REMARK  4 active torsions:
REMARK  status: ('A' for Active; 'I' for Inactive)
REMARK    1  A    between atoms: C_9  and  N_13 
REMARK       I    between atoms: N_13  and  C_14 
REMARK    2  A    between atoms: C_14  and  C_17 
REMARK    3  A    between atoms: C_17  and  N_18 
REMARK    4  A    between atoms: C_20  and  C_23 
ROOT
HETATM    1  N   UNK     0      -2.064   1.826 -12.355  0.00  0.00    -0.205 NA
HETATM    2  C   UNK     0      -1.543   0.564 -12.305  0.00  0.00     0.281 C 
HETATM    3  O   UNK     0      -0.898   0.201 -13.316  0.00  0.00    -0.268 OA
ENDROOT
BRANCH   1   4
HETATM    4  C   UNK     0      -2.747   2.447 -11.386  0.00  0.00     0.146 C 
HETATM    5  C   UNK     0      -4.099   2.349 -11.360  0.00  0.00     0.162 C 
HETATM    6  C   UNK     0      -4.853   3.054 -10.414  0.00  0.00     0.217 C 
HETATM    7  N   UNK     0      -4.749   1.611 -12.251  0.00  0.00    -0.143 N 
HETATM    8  C   UNK     0      -4.225   4.031  -9.584  0.00  0.00     0.044 A 
HETATM    9  O   UNK     0      -6.086   2.842 -10.309  0.00  0.00    -0.285 OA
HETATM   10  C   UNK     0      -4.969   4.952  -8.811  0.00  0.00     0.003 A 
HETATM   11  C   UNK     0      -2.803   4.092  -9.564  0.00  0.00     0.044 A 
HETATM   12  C   UNK     0      -4.314   5.920  -8.028  0.00  0.00     0.000 A 
HETATM   13  C   UNK     0      -2.912   5.960  -7.986  0.00  0.00     0.000 A 
HETATM   14  C   UNK     0      -2.159   5.046  -8.742  0.00  0.00     0.003 A 
HETATM   15  C   UNK     0      -2.073   3.201 -10.410  0.00  0.00     0.215 C 
HETATM   16  O   UNK     0      -0.827   3.100 -10.295  0.00  0.00    -0.285 OA
ENDBRANCH   1   4
BRANCH   2  17
HETATM   17  C   UNK     0      -1.632  -0.396 -11.175  0.00  0.00     0.219 C 
BRANCH  17  18
HETATM   18  N   UNK     0      -0.341  -0.830 -10.739  0.00  0.00    -0.221 N 
HETATM   19  C   UNK     0       0.148  -2.079 -10.801  0.00  0.00     0.114 A 
HETATM   20  C   UNK     0       1.451  -2.015 -10.335  0.00  0.00     0.101 A 
HETATM   21  N   UNK     0       1.661  -0.730 -10.004  0.00  0.00    -0.133 NA
HETATM   22  N   UNK     0       0.580  -0.057 -10.250  0.00  0.00    -0.064 NA
BRANCH  20  23
HETATM   23  C   UNK     0       2.422  -3.134 -10.250  0.00  0.00     0.044 C 
HETATM   24  C   UNK     0       3.853  -2.775 -10.714  0.00  0.00     0.006 C 
HETATM   25  C   UNK     0       4.514  -4.134 -11.008  0.00  0.00     0.000 C 
HETATM   26  C   UNK     0       3.373  -5.076 -11.450  0.00  0.00     0.000 C 
HETATM   27  C   UNK     0       2.043  -4.360 -11.115  0.00  0.00     0.006 C 
ENDBRANCH  20  23
ENDBRANCH  17  18
ENDBRANCH   2  17
TORSDOF 4
ENDMDL
MODEL 3
REMARK VINA RESULT:      -7.5      4.573      6.779
REMARK  4 active torsions:
REMARK  status: ('A' for Active; 'I' for Inactive)
REMARK    1  A    between atoms: C_9  and  N_13 
REMARK       I    between atoms: N_13  and  C_14 
REMARK    2  A    between atoms: C_14  and  C_17 
REMARK    3  A    between atoms: C_17  and  N_18 
REMARK    4  A    between atoms: C_20  and  C_23 
ROOT
HETATM    1  N   UNK     0       1.178  -1.506 -13.201  0.00  0.00    -0.205 NA
HETATM    2  C   UNK     0       1.862  -2.648 -12.891  0.00  0.00     0.281 C 
HETATM    3  O   UNK     0       2.997  -2.761 -13.409  0.00  0.00    -0.268 OA
ENDROOT
BRANCH   1   4
HETATM    4  C   UNK     0      -0.023  -1.143 -12.738  0.00  0.00     0.146 C 
HETATM    5  C   UNK     0      -1.124  -1.375 -13.494  0.00  0.00     0.162 C 
HETATM    6  C   UNK     0      -2.387  -0.932 -13.082  0.00  0.00     0.217 C 
HETATM    7  N   UNK     0      -1.033  -1.996 -14.664  0.00  0.00    -0.143 N 
HETATM    8  C   UNK     0      -2.507  -0.068 -11.951  0.00  0.00     0.044 A 
HETATM    9  O   UNK     0      -3.412  -1.278 -13.718  0.00  0.00    -0.285 OA
HETATM   10  C   UNK     0      -3.706   0.619 -11.653  0.00  0.00     0.003 A 
HETATM   11  C   UNK     0      -1.367   0.125 -11.121  0.00  0.00     0.044 A 
HETATM   12  C   UNK     0      -3.777   1.485 -10.547  0.00  0.00     0.000 A 
HETATM   13  C   UNK     0      -2.661   1.652  -9.712  0.00  0.00     0.000 A 
HETATM   14  C   UNK     0      -1.465   0.970  -9.990  0.00  0.00     0.003 A 
HETATM   15  C   UNK     0      -0.145  -0.520 -11.484  0.00  0.00     0.215 C 
HETATM   16  O   UNK     0       0.830  -0.520 -10.692  0.00  0.00    -0.285 OA
ENDBRANCH   1   4
BRANCH   2  17
HETATM   17  C   UNK     0       1.416  -3.738 -11.985  0.00  0.00     0.219 C 
BRANCH  17  18
HETATM   18  N   UNK     0       2.407  -4.059 -11.006  0.00  0.00    -0.221 N 
HETATM   19  C   UNK     0       3.231  -5.120 -11.016  0.00  0.00     0.114 A 
HETATM   20  C   UNK     0       4.062  -4.984  -9.916  0.00  0.00     0.101 A 
HETATM   21  N   UNK     0       3.676  -3.854  -9.300  0.00  0.00    -0.133 NA
HETATM   22  N   UNK     0       2.692  -3.334  -9.967  0.00  0.00    -0.064 NA
BRANCH  20  23
HETATM   23  C   UNK     0       5.171  -5.886  -9.521  0.00  0.00     0.044 C 
HETATM   24  C   UNK     0       5.594  -6.895 -10.614  0.00  0.00     0.006 C 
HETATM   25  C   UNK     0       6.353  -7.995  -9.849  0.00  0.00     0.000 C 
HETATM   26  C   UNK     0       5.732  -8.036  -8.435  0.00  0.00     0.000 C 
HETATM   27  C   UNK     0       4.849  -6.774  -8.295  0.00  0.00     0.006 C 
ENDBRANCH  20  23
ENDBRANCH  17  18
ENDBRANCH   2  17
TORSDOF 4
ENDMDL
MODEL 4
REMARK VINA RESULT:      -7.5     12.752     13.818
REMARK  4 active torsions:
REMARK  status: ('A' for Active; 'I' for Inactive)
REMARK    1  A    between atoms: C_9  and  N_13 
REMARK       I    between atoms: N_13  and  C_14 
REMARK    2  A    between atoms: C_14  and  C_17 
REMARK    3  A    between atoms: C_17  and  N_18 
REMARK    4  A    between atoms: C_20  and  C_23 
ROOT
HETATM    1  N   UNK     0     -10.199  -7.762  -5.251  0.00  0.00    -0.205 NA
HETATM    2  C   UNK     0      -9.736  -8.908  -4.666  0.00  0.00     0.281 C 
HETATM    3  O   UNK     0      -9.938  -9.966  -5.306  0.00  0.00    -0.268 OA
ENDROOT
BRANCH   1   4
HETATM    4  C   UNK     0     -10.063  -6.516  -4.783  0.00  0.00     0.146 C 
HETATM    5  C   UNK     0      -9.010  -5.766  -5.190  0.00  0.00     0.162 C 
HETATM    6  C   UNK     0      -8.787  -4.490  -4.657  0.00  0.00     0.217 C 
HETATM    7  N   UNK     0      -8.139  -6.231  -6.077  0.00  0.00    -0.143 N 
HETATM    8  C   UNK     0      -9.558  -4.036  -3.545  0.00  0.00     0.044 A 
HETATM    9  O   UNK     0      -7.897  -3.752  -5.146  0.00  0.00    -0.285 OA
HETATM   10  C   UNK     0      -9.203  -2.885  -2.803  0.00  0.00     0.003 A 
HETATM   11  C   UNK     0     -10.701  -4.791  -3.158  0.00  0.00     0.044 A 
HETATM   12  C   UNK     0      -9.970  -2.485  -1.694  0.00  0.00     0.000 A 
HETATM   13  C   UNK     0     -11.114  -3.214  -1.331  0.00  0.00     0.000 A 
HETATM   14  C   UNK     0     -11.484  -4.355  -2.063  0.00  0.00     0.003 A 
HETATM   15  C   UNK     0     -10.997  -5.990  -3.874  0.00  0.00     0.215 C 
HETATM   16  O   UNK     0     -12.085  -6.589  -3.683  0.00  0.00    -0.285 OA
ENDBRANCH   1   4
BRANCH   2  17
HETATM   17  C   UNK     0      -8.996  -9.020  -3.383  0.00  0.00     0.219 C 
BRANCH  17  18
HETATM   18  N   UNK     0      -7.778  -9.757  -3.530  0.00  0.00    -0.221 N 
HETATM   19  C   UNK     0      -7.473 -10.926  -2.945  0.00  0.00     0.114 A 
HETATM   20  C   UNK     0      -6.229 -11.296  -3.431  0.00  0.00     0.101 A 
HETATM   21  N   UNK     0      -5.854 -10.315  -4.268  0.00  0.00    -0.133 NA
HETATM   22  N   UNK     0      -6.790  -9.417  -4.301  0.00  0.00    -0.064 NA
BRANCH  20  23
HETATM   23  C   UNK     0      -5.483 -12.538  -3.112  0.00  0.00     0.044 C 
HETATM   24  C   UNK     0      -4.129 -12.305  -2.402  0.00  0.00     0.006 C 
HETATM   25  C   UNK     0      -3.348 -13.613  -2.623  0.00  0.00     0.000 C 
HETATM   26  C   UNK     0      -3.850 -14.186  -3.967  0.00  0.00     0.000 C 
HETATM   27  C   UNK     0      -5.115 -13.385  -4.354  0.00  0.00     0.006 C 
ENDBRANCH  20  23
ENDBRANCH  17  18
ENDBRANCH   2  17
TORSDOF 4
ENDMDL
MODEL 5
REMARK VINA RESULT:      -7.5     11.780     13.367
REMARK  4 active torsions:
REMARK  status: ('A' for Active; 'I' for Inactive)
REMARK    1  A    between atoms: C_9  and  N_13 
REMARK       I    between atoms: N_13  and  C_14 
REMARK    2  A    between atoms: C_14  and  C_17 
REMARK    3  A    between atoms: C_17  and  N_18 
REMARK    4  A    between atoms: C_20  and  C_23 
ROOT
HETATM    1  N   UNK     0     -11.448  -2.993  -3.938  0.00  0.00    -0.205 NA
HETATM    2  C   UNK     0     -10.402  -3.039  -3.059  0.00  0.00     0.281 C 
HETATM    3  O   UNK     0     -10.154  -1.973  -2.450  0.00  0.00    -0.268 OA
ENDROOT
BRANCH   1   4
HETATM    4  C   UNK     0     -11.926  -4.009  -4.665  0.00  0.00     0.146 C 
HETATM    5  C   UNK     0     -12.746  -4.916  -4.080  0.00  0.00     0.162 C 
HETATM    6  C   UNK     0     -13.196  -6.040  -4.785  0.00  0.00     0.217 C 
HETATM    7  N   UNK     0     -13.117  -4.786  -2.813  0.00  0.00    -0.143 N 
HETATM    8  C   UNK     0     -12.650  -6.344  -6.068  0.00  0.00     0.044 A 
HETATM    9  O   UNK     0     -14.066  -6.791  -4.280  0.00  0.00    -0.285 OA
HETATM   10  C   UNK     0     -12.863  -7.591  -6.700  0.00  0.00     0.003 A 
HETATM   11  C   UNK     0     -11.840  -5.365  -6.710  0.00  0.00     0.044 A 
HETATM   12  C   UNK     0     -12.283  -7.865  -7.953  0.00  0.00     0.000 A 
HETATM   13  C   UNK     0     -11.509  -6.887  -8.598  0.00  0.00     0.000 A 
HETATM   14  C   UNK     0     -11.295  -5.641  -7.987  0.00  0.00     0.003 A 
HETATM   15  C   UNK     0     -11.577  -4.142  -6.020  0.00  0.00     0.215 C 
HETATM   16  O   UNK     0     -11.018  -3.188  -6.615  0.00  0.00    -0.285 OA
ENDBRANCH   1   4
BRANCH   2  17
HETATM   17  C   UNK     0      -9.562  -4.220  -2.732  0.00  0.00     0.219 C 
BRANCH  17  18
HETATM   18  N   UNK     0      -8.888  -4.733  -3.884  0.00  0.00    -0.221 N 
HETATM   19  C   UNK     0      -8.832  -6.016  -4.276  0.00  0.00     0.114 A 
HETATM   20  C   UNK     0      -8.137  -6.032  -5.475  0.00  0.00     0.101 A 
HETATM   21  N   UNK     0      -7.801  -4.754  -5.722  0.00  0.00    -0.133 NA
HETATM   22  N   UNK     0      -8.256  -4.012  -4.760  0.00  0.00    -0.064 NA
BRANCH  20  23
HETATM   23  C   UNK     0      -7.851  -7.215  -6.322  0.00  0.00     0.044 C 
HETATM   24  C   UNK     0      -7.887  -6.935  -7.843  0.00  0.00     0.006 C 
HETATM   25  C   UNK     0      -8.062  -8.324  -8.485  0.00  0.00     0.000 C 
HETATM   26  C   UNK     0      -8.849  -9.170  -7.460  0.00  0.00     0.000 C 
HETATM   27  C   UNK     0      -8.851  -8.380  -6.131  0.00  0.00     0.006 C 
ENDBRANCH  20  23
ENDBRANCH  17  18
ENDBRANCH   2  17
TORSDOF 4
ENDMDL
MODEL 6
REMARK VINA RESULT:      -7.4     12.827     13.743
REMARK  4 active torsions:
REMARK  status: ('A' for Active; 'I' for Inactive)
REMARK    1  A    between atoms: C_9  and  N_13 
REMARK       I    between atoms: N_13  and  C_14 
REMARK    2  A    between atoms: C_14  and  C_17 
REMARK    3  A    between atoms: C_17  and  N_18 
REMARK    4  A    between atoms: C_20  and  C_23 
ROOT
HETATM    1  N   UNK     0      -9.319  -6.244  -6.521  0.00  0.00    -0.205 NA
HETATM    2  C   UNK     0      -8.238  -7.001  -6.879  0.00  0.00     0.281 C 
HETATM    3  O   UNK     0      -8.100  -7.205  -8.107  0.00  0.00    -0.268 OA
ENDROOT
BRANCH   1   4
HETATM    4  C   UNK     0      -9.648  -5.857  -5.283  0.00  0.00     0.146 C 
HETATM    5  C   UNK     0     -10.559  -6.575  -4.583  0.00  0.00     0.162 C 
HETATM    6  C   UNK     0     -10.993  -6.153  -3.320  0.00  0.00     0.217 C 
HETATM    7  N   UNK     0     -11.095  -7.680  -5.088  0.00  0.00    -0.143 N 
HETATM    8  C   UNK     0     -10.621  -4.865  -2.832  0.00  0.00     0.044 A 
HETATM    9  O   UNK     0     -11.724  -6.901  -2.625  0.00  0.00    -0.285 OA
HETATM   10  C   UNK     0     -11.239  -4.282  -1.700  0.00  0.00     0.003 A 
HETATM   11  C   UNK     0      -9.618  -4.137  -3.532  0.00  0.00     0.044 A 
HETATM   12  C   UNK     0     -10.867  -2.997  -1.267  0.00  0.00     0.000 A 
HETATM   13  C   UNK     0      -9.856  -2.292  -1.940  0.00  0.00     0.000 A 
HETATM   14  C   UNK     0      -9.228  -2.860  -3.061  0.00  0.00     0.003 A 
HETATM   15  C   UNK     0      -9.062  -4.713  -4.715  0.00  0.00     0.215 C 
HETATM   16  O   UNK     0      -8.059  -4.190  -5.261  0.00  0.00    -0.285 OA
ENDBRANCH   1   4
BRANCH   2  17
HETATM   17  C   UNK     0      -7.206  -7.567  -5.975  0.00  0.00     0.219 C 
BRANCH  17  18
HETATM   18  N   UNK     0      -7.692  -8.702  -5.252  0.00  0.00    -0.221 N 
HETATM   19  C   UNK     0      -7.731  -8.847  -3.918  0.00  0.00     0.114 A 
HETATM   20  C   UNK     0      -8.342 -10.065  -3.672  0.00  0.00     0.101 A 
HETATM   21  N   UNK     0      -8.619 -10.588  -4.878  0.00  0.00    -0.133 NA
HETATM   22  N   UNK     0      -8.217  -9.759  -5.792  0.00  0.00    -0.064 NA
BRANCH  20  23
HETATM   23  C   UNK     0      -8.653 -10.654  -2.346  0.00  0.00     0.044 C 
HETATM   24  C   UNK     0      -8.949  -9.616  -1.239  0.00  0.00     0.006 C 
HETATM   25  C   UNK     0      -8.746 -10.388   0.077  0.00  0.00     0.000 C 
HETATM   26  C   UNK     0      -7.682 -11.467  -0.222  0.00  0.00     0.000 C 
HETATM   27  C   UNK     0      -7.508 -11.514  -1.758  0.00  0.00     0.006 C 
ENDBRANCH  20  23
ENDBRANCH  17  18
ENDBRANCH   2  17
TORSDOF 4
ENDMDL
MODEL 7
REMARK VINA RESULT:      -7.3      5.823      9.444
REMARK  4 active torsions:
REMARK  status: ('A' for Active; 'I' for Inactive)
REMARK    1  A    between atoms: C_9  and  N_13 
REMARK       I    between atoms: N_13  and  C_14 
REMARK    2  A    between atoms: C_14  and  C_17 
REMARK    3  A    between atoms: C_17  and  N_18 
REMARK    4  A    between atoms: C_20  and  C_23 
ROOT
HETATM    1  N   UNK     0       2.598  -4.650 -11.858  0.00  0.00    -0.205 NA
HETATM    2  C   UNK     0       2.903  -4.201 -10.604  0.00  0.00     0.281 C 
HETATM    3  O   UNK     0       3.124  -5.087  -9.747  0.00  0.00    -0.268 OA
ENDROOT
BRANCH   1   4
HETATM    4  C   UNK     0       2.368  -3.900 -12.942  0.00  0.00     0.146 C 
HETATM    5  C   UNK     0       3.418  -3.394 -13.634  0.00  0.00     0.162 C 
HETATM    6  C   UNK     0       3.217  -2.534 -14.721  0.00  0.00     0.217 C 
HETATM    7  N   UNK     0       4.667  -3.668 -13.280  0.00  0.00    -0.143 N 
HETATM    8  C   UNK     0       1.911  -2.030 -15.001  0.00  0.00     0.044 A 
HETATM    9  O   UNK     0       4.189  -2.191 -15.438  0.00  0.00    -0.285 OA
HETATM   10  C   UNK     0       1.693  -0.964 -15.904  0.00  0.00     0.003 A 
HETATM   11  C   UNK     0       0.801  -2.606 -14.319  0.00  0.00     0.044 A 
HETATM   12  C   UNK     0       0.394  -0.475 -16.131  0.00  0.00     0.000 A 
HETATM   13  C   UNK     0      -0.703  -1.063 -15.481  0.00  0.00     0.000 A 
HETATM   14  C   UNK     0      -0.504  -2.128 -14.587  0.00  0.00     0.003 A 
HETATM   15  C   UNK     0       1.052  -3.631 -13.356  0.00  0.00     0.215 C 
HETATM   16  O   UNK     0       0.099  -4.283 -12.864  0.00  0.00    -0.285 OA
ENDBRANCH   1   4
BRANCH   2  17
HETATM   17  C   UNK     0       3.033  -2.787 -10.169  0.00  0.00     0.219 C 
BRANCH  17  18
HETATM   18  N   UNK     0       1.815  -2.059 -10.346  0.00  0.00    -0.221 N 
HETATM   19  C   UNK     0       1.676  -0.856 -10.928  0.00  0.00     0.114 A 
HETATM   20  C   UNK     0       0.318  -0.579 -10.939  0.00  0.00     0.101 A 
HETATM   21  N   UNK     0      -0.277  -1.628 -10.347  0.00  0.00    -0.133 NA
HETATM   22  N   UNK     0       0.637  -2.483 -10.003  0.00  0.00    -0.064 NA
BRANCH  20  23
HETATM   23  C   UNK     0      -0.341   0.618 -11.516  0.00  0.00     0.044 C 
HETATM   24  C   UNK     0      -1.717   0.340 -12.163  0.00  0.00     0.006 C 
HETATM   25  C   UNK     0      -1.958   1.546 -13.090  0.00  0.00     0.000 C 
HETATM   26  C   UNK     0      -0.559   2.022 -13.540  0.00  0.00     0.000 C 
HETATM   27  C   UNK     0       0.473   1.300 -12.642  0.00  0.00     0.006 C 
ENDBRANCH  20  23
ENDBRANCH  17  18
ENDBRANCH   2  17
TORSDOF 4
ENDMDL
MODEL 8
REMARK VINA RESULT:      -7.2      1.634      3.023
REMARK  4 active torsions:
REMARK  status: ('A' for Active; 'I' for Inactive)
REMARK    1  A    between atoms: C_9  and  N_13 
REMARK       I    between atoms: N_13  and  C_14 
REMARK    2  A    between atoms: C_14  and  C_17 
REMARK    3  A    between atoms: C_17  and  N_18 
REMARK    4  A    between atoms: C_20  and  C_23 
ROOT
HETATM    1  N   UNK     0      -3.954   5.075 -10.216  0.00  0.00    -0.205 NA
HETATM    2  C   UNK     0      -4.289   3.793 -10.549  0.00  0.00     0.281 C 
HETATM    3  O   UNK     0      -4.563   3.597 -11.755  0.00  0.00    -0.268 OA
ENDROOT
BRANCH   1   4
HETATM    4  C   UNK     0      -3.583   5.516  -9.008  0.00  0.00     0.146 C 
HETATM    5  C   UNK     0      -2.273   5.475  -8.661  0.00  0.00     0.162 C 
HETATM    6  C   UNK     0      -1.857   5.846  -7.376  0.00  0.00     0.217 C 
HETATM    7  N   UNK     0      -1.351   5.047  -9.515  0.00  0.00    -0.143 N 
HETATM    8  C   UNK     0      -2.825   6.095  -6.357  0.00  0.00     0.044 A 
HETATM    9  O   UNK     0      -0.633   5.941  -7.115  0.00  0.00    -0.285 OA
HETATM   10  C   UNK     0      -2.468   6.208  -4.993  0.00  0.00     0.003 A 
HETATM   11  C   UNK     0      -4.194   6.201  -6.732  0.00  0.00     0.044 A 
HETATM   12  C   UNK     0      -3.455   6.424  -4.013  0.00  0.00     0.000 A 
HETATM   13  C   UNK     0      -4.801   6.558  -4.387  0.00  0.00     0.000 A 
HETATM   14  C   UNK     0      -5.170   6.457  -5.739  0.00  0.00     0.003 A 
HETATM   15  C   UNK     0      -4.539   6.010  -8.105  0.00  0.00     0.215 C 
HETATM   16  O   UNK     0      -5.701   6.266  -8.506  0.00  0.00    -0.285 OA
ENDBRANCH   1   4
BRANCH   2  17
HETATM   17  C   UNK     0      -4.326   2.616  -9.644  0.00  0.00     0.219 C 
BRANCH  17  18
HETATM   18  N   UNK     0      -3.218   1.738  -9.861  0.00  0.00    -0.221 N 
HETATM   19  C   UNK     0      -3.159   0.723 -10.739  0.00  0.00     0.114 A 
HETATM   20  C   UNK     0      -1.878   0.203 -10.653  0.00  0.00     0.101 A 
HETATM   21  N   UNK     0      -1.248   0.929  -9.714  0.00  0.00    -0.133 NA
HETATM   22  N   UNK     0      -2.070   1.825  -9.262  0.00  0.00    -0.064 NA
BRANCH  20  23
HETATM   23  C   UNK     0      -1.312  -0.908 -11.457  0.00  0.00     0.044 C 
HETATM   24  C   UNK     0      -0.129  -1.644 -10.787  0.00  0.00     0.006 C 
HETATM   25  C   UNK     0       0.581  -2.367 -11.947  0.00  0.00     0.000 C 
HETATM   26  C   UNK     0       0.338  -1.499 -13.201  0.00  0.00     0.000 C 
HETATM   27  C   UNK     0      -0.751  -0.465 -12.830  0.00  0.00     0.006 C 
ENDBRANCH  20  23
ENDBRANCH  17  18
ENDBRANCH   2  17
TORSDOF 4
ENDMDL
MODEL 9
REMARK VINA RESULT:      -7.2     12.106     13.414
REMARK  4 active torsions:
REMARK  status: ('A' for Active; 'I' for Inactive)
REMARK    1  A    between atoms: C_9  and  N_13 
REMARK       I    between atoms: N_13  and  C_14 
REMARK    2  A    between atoms: C_14  and  C_17 
REMARK    3  A    between atoms: C_17  and  N_18 
REMARK    4  A    between atoms: C_20  and  C_23 
ROOT
HETATM    1  N   UNK     0      -9.178  -3.811  -3.143  0.00  0.00    -0.205 NA
HETATM    2  C   UNK     0      -8.725  -3.281  -4.318  0.00  0.00     0.281 C 
HETATM    3  O   UNK     0      -7.804  -2.438  -4.217  0.00  0.00    -0.268 OA
ENDROOT
BRANCH   1   4
HETATM    4  C   UNK     0     -10.117  -4.754  -3.000  0.00  0.00     0.146 C 
HETATM    5  C   UNK     0      -9.748  -6.058  -2.966  0.00  0.00     0.162 C 
HETATM    6  C   UNK     0     -10.708  -7.076  -2.905  0.00  0.00     0.217 C 
HETATM    7  N   UNK     0      -8.470  -6.409  -3.025  0.00  0.00    -0.143 N 
HETATM    8  C   UNK     0     -12.091  -6.763  -3.065  0.00  0.00     0.044 A 
HETATM    9  O   UNK     0     -10.350  -8.266  -2.728  0.00  0.00    -0.285 OA
HETATM   10  C   UNK     0     -13.068  -7.763  -3.280  0.00  0.00     0.003 A 
HETATM   11  C   UNK     0     -12.486  -5.396  -3.038  0.00  0.00     0.044 A 
HETATM   12  C   UNK     0     -14.419  -7.414  -3.465  0.00  0.00     0.000 A 
HETATM   13  C   UNK     0     -14.811  -6.067  -3.408  0.00  0.00     0.000 A 
HETATM   14  C   UNK     0     -13.853  -5.063  -3.187  0.00  0.00     0.003 A 
HETATM   15  C   UNK     0     -11.472  -4.399  -2.895  0.00  0.00     0.215 C 
HETATM   16  O   UNK     0     -11.789  -3.201  -2.691  0.00  0.00    -0.285 OA
ENDBRANCH   1   4
BRANCH   2  17
HETATM   17  C   UNK     0      -9.184  -3.626  -5.688  0.00  0.00     0.219 C 
BRANCH  17  18
HETATM   18  N   UNK     0      -8.556  -4.813  -6.180  0.00  0.00    -0.221 N 
HETATM   19  C   UNK     0      -9.165  -5.865  -6.750  0.00  0.00     0.114 A 
HETATM   20  C   UNK     0      -8.162  -6.741  -7.132  0.00  0.00     0.101 A 
HETATM   21  N   UNK     0      -7.008  -6.168  -6.752  0.00  0.00    -0.133 NA
HETATM   22  N   UNK     0      -7.276  -5.031  -6.188  0.00  0.00    -0.064 NA
BRANCH  20  23
HETATM   23  C   UNK     0      -8.331  -8.032  -7.842  0.00  0.00     0.044 C 
HETATM   24  C   UNK     0      -7.705  -9.247  -7.118  0.00  0.00     0.006 C 
HETATM   25  C   UNK     0      -7.559 -10.317  -8.216  0.00  0.00     0.000 C 
HETATM   26  C   UNK     0      -7.354  -9.545  -9.538  0.00  0.00     0.000 C 
HETATM   27  C   UNK     0      -7.688  -8.062  -9.250  0.00  0.00     0.006 C 
ENDBRANCH  20  23
ENDBRANCH  17  18
ENDBRANCH   2  17
TORSDOF 4
ENDMDL
