MODEL 1
REMARK VINA RESULT:      -7.2      0.000      0.000
REMARK  4 active torsions:
REMARK  status: ('A' for Active; 'I' for Inactive)
REMARK    1  A    between atoms: C_9  and  N_13 
REMARK       I    between atoms: N_13  and  C_14 
REMARK    2  A    between atoms: C_14  and  C_17 
REMARK    3  A    between atoms: C_17  and  N_18 
REMARK    4  A    between atoms: C_20  and  C_23 
ROOT
HETATM    1  C   UNK     0       4.518  -4.868  -9.398  0.00  0.00     0.003 A 
HETATM    2  C   UNK     0       5.059  -6.088  -8.958  0.00  0.00     0.000 A 
HETATM    3  C   UNK     0       5.130  -7.181  -9.836  0.00  0.00     0.000 A 
HETATM    4  C   UNK     0       4.661  -7.055 -11.156  0.00  0.00     0.003 A 
HETATM    5  C   UNK     0       4.101  -5.838 -11.613  0.00  0.00     0.044 A 
HETATM    6  C   UNK     0       4.033  -4.730 -10.721  0.00  0.00     0.044 A 
HETATM    7  C   UNK     0       3.590  -5.679 -12.940  0.00  0.00     0.217 C 
HETATM    8  C   UNK     0       2.918  -4.502 -13.304  0.00  0.00     0.162 C 
HETATM    9  C   UNK     0       2.824  -3.461 -12.444  0.00  0.00     0.146 C 
HETATM   10  C   UNK     0       3.470  -3.511 -11.199  0.00  0.00     0.215 C 
HETATM   11  O   UNK     0       3.590  -2.461 -10.521  0.00  0.00    -0.285 OA
HETATM   12  O   UNK     0       3.739  -6.599 -13.780  0.00  0.00    -0.285 OA
HETATM   13  N   UNK     0       2.354  -4.432 -14.506  0.00  0.00    -0.143 N 
ENDROOT
BRANCH   9  14
HETATM   14  N   UNK     0       2.122  -2.370 -12.790  0.00  0.00    -0.205 NA
HETATM   15  C   UNK     0       0.824  -2.114 -12.442  0.00  0.00     0.281 C 
HETATM   16  O   UNK     0       0.130  -2.959 -11.824  0.00  0.00    -0.268 OA
BRANCH  15  17
HETATM   17  C   UNK     0       0.220  -0.814 -12.796  0.00  0.00     0.219 C 
BRANCH  17  18
HETATM   18  N   UNK     0      -0.286  -0.148 -11.637  0.00  0.00    -0.221 N 
HETATM   19  C   UNK     0      -1.538   0.294 -11.453  0.00  0.00     0.114 A 
HETATM   20  C   UNK     0      -1.551   0.896 -10.206  0.00  0.00     0.101 A 
HETATM   21  N   UNK     0      -0.313   0.767  -9.708  0.00  0.00    -0.133 NA
HETATM   22  N   UNK     0       0.413   0.139 -10.581  0.00  0.00    -0.064 NA
BRANCH  20  23
HETATM   23  C   UNK     0      -2.699   1.520  -9.527  0.00  0.00     0.044 A 
HETATM   24  C   UNK     0      -2.893   3.041  -9.673  0.00  0.00     0.006 A 
HETATM   25  C   UNK     0      -3.831   2.077 -10.407  0.00  0.00     0.006 A 
ENDBRANCH  20  23
ENDBRANCH  17  18
ENDBRANCH  15  17
ENDBRANCH   9  14
TORSDOF 4
ENDMDL
MODEL 2
REMARK VINA RESULT:      -7.1      2.180      8.299
REMARK  4 active torsions:
REMARK  status: ('A' for Active; 'I' for Inactive)
REMARK    1  A    between atoms: C_9  and  N_13 
REMARK       I    between atoms: N_13  and  C_14 
REMARK    2  A    between atoms: C_14  and  C_17 
REMARK    3  A    between atoms: C_17  and  N_18 
REMARK    4  A    between atoms: C_20  and  C_23 
ROOT
HETATM    1  C   UNK     0      -3.054  -0.744 -13.195  0.00  0.00     0.003 A 
HETATM    2  C   UNK     0      -4.213  -0.026 -12.856  0.00  0.00     0.000 A 
HETATM    3  C   UNK     0      -4.195   0.862 -11.770  0.00  0.00     0.000 A 
HETATM    4  C   UNK     0      -3.019   1.034 -11.019  0.00  0.00     0.003 A 
HETATM    5  C   UNK     0      -1.845   0.309 -11.337  0.00  0.00     0.044 A 
HETATM    6  C   UNK     0      -1.864  -0.588 -12.443  0.00  0.00     0.044 A 
HETATM    7  C   UNK     0      -0.636   0.436 -10.582  0.00  0.00     0.217 C 
HETATM    8  C   UNK     0       0.457  -0.404 -10.846  0.00  0.00     0.162 C 
HETATM    9  C   UNK     0       0.426  -1.281 -11.877  0.00  0.00     0.146 C 
HETATM   10  C   UNK     0      -0.673  -1.307 -12.751  0.00  0.00     0.215 C 
HETATM   11  O   UNK     0      -0.586  -1.935 -13.835  0.00  0.00    -0.285 OA
HETATM   12  O   UNK     0      -0.554   1.301  -9.676  0.00  0.00    -0.285 OA
HETATM   13  N   UNK     0       1.521  -0.340 -10.053  0.00  0.00    -0.143 N 
ENDROOT
BRANCH   9  14
HETATM   14  N   UNK     0       1.456  -2.119 -12.072  0.00  0.00    -0.205 NA
HETATM   15  C   UNK     0       1.485  -3.442 -11.722  0.00  0.00     0.281 C 
HETATM   16  O   UNK     0       0.546  -3.973 -11.080  0.00  0.00    -0.268 OA
BRANCH  15  17
HETATM   17  C   UNK     0       2.645  -4.270 -12.109  0.00  0.00     0.219 C 
BRANCH  17  18
HETATM   18  N   UNK     0       3.457  -4.579 -10.975  0.00  0.00    -0.221 N 
HETATM   19  C   UNK     0       4.258  -5.646 -10.834  0.00  0.00     0.114 A 
HETATM   20  C   UNK     0       4.814  -5.541  -9.570  0.00  0.00     0.101 A 
HETATM   21  N   UNK     0       4.327  -4.414  -9.032  0.00  0.00    -0.133 NA
HETATM   22  N   UNK     0       3.527  -3.864  -9.894  0.00  0.00    -0.064 NA
BRANCH  20  23
HETATM   23  C   UNK     0       5.782  -6.454  -8.940  0.00  0.00     0.044 A 
HETATM   24  C   UNK     0       5.241  -7.684  -8.187  0.00  0.00     0.006 A 
HETATM   25  C   UNK     0       5.930  -7.861  -9.544  0.00  0.00     0.006 A 
ENDBRANCH  20  23
ENDBRANCH  17  18
ENDBRANCH  15  17
ENDBRANCH   9  14
TORSDOF 4
ENDMDL
MODEL 3
REMARK VINA RESULT:      -7.1      3.901      6.241
REMARK  4 active torsions:
REMARK  status: ('A' for Active; 'I' for Inactive)
REMARK    1  A    between atoms: C_9  and  N_13 
REMARK       I    between atoms: N_13  and  C_14 
REMARK    2  A    between atoms: C_14  and  C_17 
REMARK    3  A    between atoms: C_17  and  N_18 
REMARK    4  A    between atoms: C_20  and  C_23 
ROOT
HETATM    1  C   UNK     0       1.535  -0.759 -10.324  0.00  0.00     0.003 A 
HETATM    2  C   UNK     0       2.109  -2.033 -10.473  0.00  0.00     0.000 A 
HETATM    3  C   UNK     0       1.516  -2.974 -11.329  0.00  0.00     0.000 A 
HETATM    4  C   UNK     0       0.348  -2.643 -12.038  0.00  0.00     0.003 A 
HETATM    5  C   UNK     0      -0.252  -1.369 -11.891  0.00  0.00     0.044 A 
HETATM    6  C   UNK     0       0.354  -0.415 -11.025  0.00  0.00     0.044 A 
HETATM    7  C   UNK     0      -1.454  -1.003 -12.575  0.00  0.00     0.217 C 
HETATM    8  C   UNK     0      -2.088   0.216 -12.292  0.00  0.00     0.162 C 
HETATM    9  C   UNK     0      -1.529   1.110 -11.442  0.00  0.00     0.146 C 
HETATM   10  C   UNK     0      -0.261   0.864 -10.891  0.00  0.00     0.215 C 
HETATM   11  O   UNK     0       0.353   1.794 -10.314  0.00  0.00    -0.285 OA
HETATM   12  O   UNK     0      -1.946  -1.779 -13.430  0.00  0.00    -0.285 OA
HETATM   13  N   UNK     0      -3.262   0.474 -12.858  0.00  0.00    -0.143 N 
ENDROOT
BRANCH   9  14
HETATM   14  N   UNK     0      -2.183   2.241 -11.137  0.00  0.00    -0.205 NA
HETATM   15  C   UNK     0      -2.781   2.517  -9.936  0.00  0.00     0.281 C 
HETATM   16  O   UNK     0      -2.845   1.660  -9.022  0.00  0.00    -0.268 OA
BRANCH  15  17
HETATM   17  C   UNK     0      -3.362   3.855  -9.705  0.00  0.00     0.219 C 
BRANCH  17  18
HETATM   18  N   UNK     0      -2.451   4.696  -8.996  0.00  0.00    -0.221 N 
HETATM   19  C   UNK     0      -2.770   5.643  -8.102  0.00  0.00     0.114 A 
HETATM   20  C   UNK     0      -1.571   6.214  -7.707  0.00  0.00     0.101 A 
HETATM   21  N   UNK     0      -0.603   5.569  -8.373  0.00  0.00    -0.133 NA
HETATM   22  N   UNK     0      -1.159   4.670  -9.128  0.00  0.00    -0.064 NA
BRANCH  20  23
HETATM   23  C   UNK     0      -1.376   7.289  -6.719  0.00  0.00     0.044 A 
HETATM   24  C   UNK     0      -1.646   8.740  -7.159  0.00  0.00     0.006 A 
HETATM   25  C   UNK     0      -2.626   8.032  -6.218  0.00  0.00     0.006 A 
ENDBRANCH  20  23
ENDBRANCH  17  18
ENDBRANCH  15  17
ENDBRANCH   9  14
TORSDOF 4
ENDMDL
MODEL 4
REMARK VINA RESULT:      -7.1      2.939      8.995
REMARK  4 active torsions:
REMARK  status: ('A' for Active; 'I' for Inactive)
REMARK    1  A    between atoms: C_9  and  N_13 
REMARK       I    between atoms: N_13  and  C_14 
REMARK    2  A    between atoms: C_14  and  C_17 
REMARK    3  A    between atoms: C_17  and  N_18 
REMARK    4  A    between atoms: C_20  and  C_23 
ROOT
HETATM    1  C   UNK     0      -2.088   3.868  -9.318  0.00  0.00     0.003 A 
HETATM    2  C   UNK     0      -2.647   5.145  -9.145  0.00  0.00     0.000 A 
HETATM    3  C   UNK     0      -3.937   5.417  -9.625  0.00  0.00     0.000 A 
HETATM    4  C   UNK     0      -4.671   4.412 -10.280  0.00  0.00     0.003 A 
HETATM    5  C   UNK     0      -4.119   3.123 -10.475  0.00  0.00     0.044 A 
HETATM    6  C   UNK     0      -2.812   2.848  -9.983  0.00  0.00     0.044 A 
HETATM    7  C   UNK     0      -4.824   2.082 -11.159  0.00  0.00     0.217 C 
HETATM    8  C   UNK     0      -4.186   0.868 -11.453  0.00  0.00     0.162 C 
HETATM    9  C   UNK     0      -2.929   0.620 -11.014  0.00  0.00     0.146 C 
HETATM   10  C   UNK     0      -2.274   1.545 -10.186  0.00  0.00     0.215 C 
HETATM   11  O   UNK     0      -1.226   1.202  -9.585  0.00  0.00    -0.285 OA
HETATM   12  O   UNK     0      -6.019   2.259 -11.502  0.00  0.00    -0.285 OA
HETATM   13  N   UNK     0      -4.828  -0.033 -12.189  0.00  0.00    -0.143 N 
ENDROOT
BRANCH   9  14
HETATM   14  N   UNK     0      -2.314  -0.522 -11.360  0.00  0.00    -0.205 NA
HETATM   15  C   UNK     0      -1.345  -0.646 -12.318  0.00  0.00     0.281 C 
HETATM   16  O   UNK     0      -1.008   0.322 -13.042  0.00  0.00    -0.268 OA
BRANCH  15  17
HETATM   17  C   UNK     0      -0.673  -1.948 -12.507  0.00  0.00     0.219 C 
BRANCH  17  18
HETATM   18  N   UNK     0       0.424  -2.096 -11.605  0.00  0.00    -0.221 N 
HETATM   19  C   UNK     0       1.693  -2.383 -11.931  0.00  0.00     0.114 A 
HETATM   20  C   UNK     0       2.387  -2.459 -10.735  0.00  0.00     0.101 A 
HETATM   21  N   UNK     0       1.501  -2.199  -9.763  0.00  0.00    -0.133 NA
HETATM   22  N   UNK     0       0.345  -1.984 -10.313  0.00  0.00    -0.064 NA
BRANCH  20  23
HETATM   23  C   UNK     0       3.823  -2.727 -10.550  0.00  0.00     0.044 A 
HETATM   24  C   UNK     0       4.272  -4.188 -10.354  0.00  0.00     0.006 A 
HETATM   25  C   UNK     0       4.559  -3.471 -11.678  0.00  0.00     0.006 A 
ENDBRANCH  20  23
ENDBRANCH  17  18
ENDBRANCH  15  17
ENDBRANCH   9  14
TORSDOF 4
ENDMDL
MODEL 5
REMARK VINA RESULT:      -7.0      3.551     10.138
REMARK  4 active torsions:
REMARK  status: ('A' for Active; 'I' for Inactive)
REMARK    1  A    between atoms: C_9  and  N_13 
REMARK       I    between atoms: N_13  and  C_14 
REMARK    2  A    between atoms: C_14  and  C_17 
REMARK    3  A    between atoms: C_17  and  N_18 
REMARK    4  A    between atoms: C_20  and  C_23 
ROOT
HETATM    1  C   UNK     0      -3.110   6.297  -8.245  0.00  0.00     0.003 A 
HETATM    2  C   UNK     0      -4.125   7.086  -7.680  0.00  0.00     0.000 A 
HETATM    3  C   UNK     0      -5.466   6.683  -7.783  0.00  0.00     0.000 A 
HETATM    4  C   UNK     0      -5.793   5.491  -8.451  0.00  0.00     0.003 A 
HETATM    5  C   UNK     0      -4.784   4.689  -9.038  0.00  0.00     0.044 A 
HETATM    6  C   UNK     0      -3.425   5.098  -8.928  0.00  0.00     0.044 A 
HETATM    7  C   UNK     0      -5.079   3.482  -9.748  0.00  0.00     0.217 C 
HETATM    8  C   UNK     0      -4.064   2.796 -10.432  0.00  0.00     0.162 C 
HETATM    9  C   UNK     0      -2.776   3.205 -10.356  0.00  0.00     0.146 C 
HETATM   10  C   UNK     0      -2.422   4.278  -9.522  0.00  0.00     0.215 C 
HETATM   11  O   UNK     0      -1.211   4.487  -9.264  0.00  0.00    -0.285 OA
HETATM   12  O   UNK     0      -6.253   3.038  -9.762  0.00  0.00    -0.285 OA
HETATM   13  N   UNK     0      -4.390   1.745 -11.177  0.00  0.00    -0.143 N 
ENDROOT
BRANCH   9  14
HETATM   14  N   UNK     0      -1.831   2.572 -11.069  0.00  0.00    -0.205 NA
HETATM   15  C   UNK     0      -1.008   1.584 -10.602  0.00  0.00     0.281 C 
HETATM   16  O   UNK     0      -1.010   1.243  -9.394  0.00  0.00    -0.268 OA
BRANCH  15  17
HETATM   17  C   UNK     0      -0.096   0.896 -11.537  0.00  0.00     0.219 C 
BRANCH  17  18
HETATM   18  N   UNK     0       0.328  -0.363 -11.012  0.00  0.00    -0.221 N 
HETATM   19  C   UNK     0       1.592  -0.791 -10.886  0.00  0.00     0.114 A 
HETATM   20  C   UNK     0       1.511  -2.072 -10.363  0.00  0.00     0.101 A 
HETATM   21  N   UNK     0       0.208  -2.332 -10.192  0.00  0.00    -0.133 NA
HETATM   22  N   UNK     0      -0.469  -1.295 -10.583  0.00  0.00    -0.064 NA
BRANCH  20  23
HETATM   23  C   UNK     0       2.628  -2.968 -10.017  0.00  0.00     0.044 A 
HETATM   24  C   UNK     0       2.859  -4.214 -10.892  0.00  0.00     0.006 A 
HETATM   25  C   UNK     0       3.821  -3.026 -10.986  0.00  0.00     0.006 A 
ENDBRANCH  20  23
ENDBRANCH  17  18
ENDBRANCH  15  17
ENDBRANCH   9  14
TORSDOF 4
ENDMDL
MODEL 6
REMARK VINA RESULT:      -6.9     12.820     15.673
REMARK  4 active torsions:
REMARK  status: ('A' for Active; 'I' for Inactive)
REMARK    1  A    between atoms: C_9  and  N_13 
REMARK       I    between atoms: N_13  and  C_14 
REMARK    2  A    between atoms: C_14  and  C_17 
REMARK    3  A    between atoms: C_17  and  N_18 
REMARK    4  A    between atoms: C_20  and  C_23 
ROOT
HETATM    1  C   UNK     0     -10.983  -4.577  -1.813  0.00  0.00     0.003 A 
HETATM    2  C   UNK     0     -11.025  -3.247  -1.364  0.00  0.00     0.000 A 
HETATM    3  C   UNK     0     -10.288  -2.257  -2.032  0.00  0.00     0.000 A 
HETATM    4  C   UNK     0      -9.508  -2.596  -3.152  0.00  0.00     0.003 A 
HETATM    5  C   UNK     0      -9.443  -3.934  -3.611  0.00  0.00     0.044 A 
HETATM    6  C   UNK     0     -10.195  -4.935  -2.934  0.00  0.00     0.044 A 
HETATM    7  C   UNK     0      -8.642  -4.323  -4.731  0.00  0.00     0.217 C 
HETATM    8  C   UNK     0      -8.498  -5.678  -5.063  0.00  0.00     0.162 C 
HETATM    9  C   UNK     0      -9.187  -6.634  -4.396  0.00  0.00     0.146 C 
HETATM   10  C   UNK     0     -10.121  -6.275  -3.412  0.00  0.00     0.215 C 
HETATM   11  O   UNK     0     -10.928  -7.136  -2.982  0.00  0.00    -0.285 OA
HETATM   12  O   UNK     0      -8.060  -3.446  -5.416  0.00  0.00    -0.285 OA
HETATM   13  N   UNK     0      -7.656  -6.015  -6.034  0.00  0.00    -0.143 N 
ENDROOT
BRANCH   9  14
HETATM   14  N   UNK     0      -8.986  -7.929  -4.688  0.00  0.00    -0.205 NA
HETATM   15  C   UNK     0      -7.951  -8.698  -4.230  0.00  0.00     0.281 C 
HETATM   16  O   UNK     0      -7.019  -8.207  -3.548  0.00  0.00    -0.268 OA
BRANCH  15  17
HETATM   17  C   UNK     0      -7.927 -10.142  -4.540  0.00  0.00     0.219 C 
BRANCH  17  18
HETATM   18  N   UNK     0      -6.918 -10.813  -3.784  0.00  0.00    -0.221 N 
HETATM   19  C   UNK     0      -7.068 -11.379  -2.577  0.00  0.00     0.114 A 
HETATM   20  C   UNK     0      -5.821 -11.874  -2.231  0.00  0.00     0.101 A 
HETATM   21  N   UNK     0      -5.001 -11.591  -3.252  0.00  0.00    -0.133 NA
HETATM   22  N   UNK     0      -5.684 -10.964  -4.161  0.00  0.00    -0.064 NA
BRANCH  20  23
HETATM   23  C   UNK     0      -5.460 -12.606  -1.005  0.00  0.00     0.044 A 
HETATM   24  C   UNK     0      -4.477 -11.943  -0.023  0.00  0.00     0.006 A 
HETATM   25  C   UNK     0      -5.963 -12.044   0.335  0.00  0.00     0.006 A 
ENDBRANCH  20  23
ENDBRANCH  17  18
ENDBRANCH  15  17
ENDBRANCH   9  14
TORSDOF 4
ENDMDL
MODEL 7
REMARK VINA RESULT:      -6.9      1.235      2.408
REMARK  4 active torsions:
REMARK  status: ('A' for Active; 'I' for Inactive)
REMARK    1  A    between atoms: C_9  and  N_13 
REMARK       I    between atoms: N_13  and  C_14 
REMARK    2  A    between atoms: C_14  and  C_17 
REMARK    3  A    between atoms: C_17  and  N_18 
REMARK    4  A    between atoms: C_20  and  C_23 
ROOT
HETATM    1  C   UNK     0       3.633  -6.907 -13.692  0.00  0.00     0.003 A 
HETATM    2  C   UNK     0       4.348  -8.076 -13.384  0.00  0.00     0.000 A 
HETATM    3  C   UNK     0       4.885  -8.252 -12.099  0.00  0.00     0.000 A 
HETATM    4  C   UNK     0       4.706  -7.260 -11.120  0.00  0.00     0.003 A 
HETATM    5  C   UNK     0       3.999  -6.069 -11.415  0.00  0.00     0.044 A 
HETATM    6  C   UNK     0       3.453  -5.895 -12.718  0.00  0.00     0.044 A 
HETATM    7  C   UNK     0       3.818  -5.025 -10.453  0.00  0.00     0.217 C 
HETATM    8  C   UNK     0       3.235  -3.807 -10.831  0.00  0.00     0.162 C 
HETATM    9  C   UNK     0       2.745  -3.628 -12.081  0.00  0.00     0.146 C 
HETATM   10  C   UNK     0       2.741  -4.692 -12.997  0.00  0.00     0.215 C 
HETATM   11  O   UNK     0       2.067  -4.597 -14.052  0.00  0.00    -0.285 OA
HETATM   12  O   UNK     0       4.188  -5.200  -9.266  0.00  0.00    -0.285 OA
HETATM   13  N   UNK     0       3.187  -2.817  -9.945  0.00  0.00    -0.143 N 
ENDROOT
BRANCH   9  14
HETATM   14  N   UNK     0       2.249  -2.434 -12.439  0.00  0.00    -0.205 NA
HETATM   15  C   UNK     0       0.952  -2.029 -12.277  0.00  0.00     0.281 C 
HETATM   16  O   UNK     0       0.068  -2.810 -11.848  0.00  0.00    -0.268 OA
BRANCH  15  17
HETATM   17  C   UNK     0       0.578  -0.639 -12.611  0.00  0.00     0.219 C 
BRANCH  17  18
HETATM   18  N   UNK     0      -0.076  -0.004 -11.512  0.00  0.00    -0.221 N 
HETATM   19  C   UNK     0      -1.375   0.321 -11.436  0.00  0.00     0.114 A 
HETATM   20  C   UNK     0      -1.542   0.941 -10.209  0.00  0.00     0.101 A 
HETATM   21  N   UNK     0      -0.340   0.941  -9.615  0.00  0.00    -0.133 NA
HETATM   22  N   UNK     0       0.508   0.368 -10.414  0.00  0.00    -0.064 NA
BRANCH  20  23
HETATM   23  C   UNK     0      -2.792   1.466  -9.635  0.00  0.00     0.044 A 
HETATM   24  C   UNK     0      -3.065   2.978  -9.743  0.00  0.00     0.006 A 
HETATM   25  C   UNK     0      -3.857   1.995 -10.611  0.00  0.00     0.006 A 
ENDBRANCH  20  23
ENDBRANCH  17  18
ENDBRANCH  15  17
ENDBRANCH   9  14
TORSDOF 4
ENDMDL
MODEL 8
REMARK VINA RESULT:      -6.9     13.113     14.093
REMARK  4 active torsions:
REMARK  status: ('A' for Active; 'I' for Inactive)
REMARK    1  A    between atoms: C_9  and  N_13 
REMARK       I    between atoms: N_13  and  C_14 
REMARK    2  A    between atoms: C_14  and  C_17 
REMARK    3  A    between atoms: C_17  and  N_18 
REMARK    4  A    between atoms: C_20  and  C_23 
ROOT
HETATM    1  C   UNK     0      -5.201 -12.377  -3.560  0.00  0.00     0.003 A 
HETATM    2  C   UNK     0      -4.590 -13.296  -2.690  0.00  0.00     0.000 A 
HETATM    3  C   UNK     0      -5.091 -13.470  -1.390  0.00  0.00     0.000 A 
HETATM    4  C   UNK     0      -6.203 -12.726  -0.959  0.00  0.00     0.003 A 
HETATM    5  C   UNK     0      -6.823 -11.786  -1.817  0.00  0.00     0.044 A 
HETATM    6  C   UNK     0      -6.316 -11.614  -3.136  0.00  0.00     0.044 A 
HETATM    7  C   UNK     0      -7.940 -10.992  -1.406  0.00  0.00     0.217 C 
HETATM    8  C   UNK     0      -8.432  -9.976  -2.240  0.00  0.00     0.162 C 
HETATM    9  C   UNK     0      -7.926  -9.790  -3.482  0.00  0.00     0.146 C 
HETATM   10  C   UNK     0      -6.954 -10.667  -3.988  0.00  0.00     0.215 C 
HETATM   11  O   UNK     0      -6.677 -10.643  -5.212  0.00  0.00    -0.285 OA
HETATM   12  O   UNK     0      -8.479 -11.202  -0.292  0.00  0.00    -0.285 OA
HETATM   13  N   UNK     0      -9.393  -9.181  -1.782  0.00  0.00    -0.143 N 
ENDROOT
BRANCH   9  14
HETATM   14  N   UNK     0      -8.368  -8.772  -4.237  0.00  0.00    -0.205 NA
HETATM   15  C   UNK     0      -7.717  -7.584  -4.433  0.00  0.00     0.281 C 
HETATM   16  O   UNK     0      -6.657  -7.307  -3.821  0.00  0.00    -0.268 OA
BRANCH  15  17
HETATM   17  C   UNK     0      -8.269  -6.603  -5.389  0.00  0.00     0.219 C 
BRANCH  17  18
HETATM   18  N   UNK     0      -8.505  -5.344  -4.756  0.00  0.00    -0.221 N 
HETATM   19  C   UNK     0      -9.250  -5.127  -3.663  0.00  0.00     0.114 A 
HETATM   20  C   UNK     0      -9.214  -3.761  -3.441  0.00  0.00     0.101 A 
HETATM   21  N   UNK     0      -8.439  -3.239  -4.402  0.00  0.00    -0.133 NA
HETATM   22  N   UNK     0      -8.030  -4.207  -5.165  0.00  0.00    -0.064 NA
BRANCH  20  23
HETATM   23  C   UNK     0      -9.857  -3.015  -2.346  0.00  0.00     0.044 A 
HETATM   24  C   UNK     0     -11.285  -2.484  -2.567  0.00  0.00     0.006 A 
HETATM   25  C   UNK     0     -11.051  -3.679  -1.638  0.00  0.00     0.006 A 
ENDBRANCH  20  23
ENDBRANCH  17  18
ENDBRANCH  15  17
ENDBRANCH   9  14
TORSDOF 4
ENDMDL
MODEL 9
REMARK VINA RESULT:      -6.8      2.282      7.842
REMARK  4 active torsions:
REMARK  status: ('A' for Active; 'I' for Inactive)
REMARK    1  A    between atoms: C_9  and  N_13 
REMARK       I    between atoms: N_13  and  C_14 
REMARK    2  A    between atoms: C_14  and  C_17 
REMARK    3  A    between atoms: C_17  and  N_18 
REMARK    4  A    between atoms: C_20  and  C_23 
ROOT
HETATM    1  C   UNK     0      -0.935   0.650 -10.296  0.00  0.00     0.003 A 
HETATM    2  C   UNK     0      -1.509   1.931 -10.355  0.00  0.00     0.000 A 
HETATM    3  C   UNK     0      -2.202   2.336 -11.506  0.00  0.00     0.000 A 
HETATM    4  C   UNK     0      -2.322   1.462 -12.600  0.00  0.00     0.003 A 
HETATM    5  C   UNK     0      -1.738   0.173 -12.564  0.00  0.00     0.044 A 
HETATM    6  C   UNK     0      -1.040  -0.238 -11.394  0.00  0.00     0.044 A 
HETATM    7  C   UNK     0      -1.817  -0.736 -13.667  0.00  0.00     0.217 C 
HETATM    8  C   UNK     0      -1.106  -1.946 -13.641  0.00  0.00     0.162 C 
HETATM    9  C   UNK     0      -0.413  -2.321 -12.539  0.00  0.00     0.146 C 
HETATM   10  C   UNK     0      -0.462  -1.541 -11.373  0.00  0.00     0.215 C 
HETATM   11  O   UNK     0      -0.031  -2.015 -10.294  0.00  0.00    -0.285 OA
HETATM   12  O   UNK     0      -2.522  -0.447 -14.665  0.00  0.00    -0.285 OA
HETATM   13  N   UNK     0      -1.106  -2.713 -14.725  0.00  0.00    -0.143 N 
ENDROOT
BRANCH   9  14
HETATM   14  N   UNK     0       0.311  -3.451 -12.559  0.00  0.00    -0.205 NA
HETATM   15  C   UNK     0       1.642  -3.539 -12.864  0.00  0.00     0.281 C 
HETATM   16  O   UNK     0       2.294  -2.541 -13.257  0.00  0.00    -0.268 OA
BRANCH  15  17
HETATM   17  C   UNK     0       2.334  -4.837 -12.727  0.00  0.00     0.219 C 
BRANCH  17  18
HETATM   18  N   UNK     0       3.043  -4.914 -11.490  0.00  0.00    -0.221 N 
HETATM   19  C   UNK     0       4.055  -5.744 -11.200  0.00  0.00     0.114 A 
HETATM   20  C   UNK     0       4.400  -5.482  -9.884  0.00  0.00     0.101 A 
HETATM   21  N   UNK     0       3.587  -4.501  -9.466  0.00  0.00    -0.133 NA
HETATM   22  N   UNK     0       2.795  -4.184 -10.445  0.00  0.00    -0.064 NA
BRANCH  20  23
HETATM   23  C   UNK     0       5.472  -6.114  -9.098  0.00  0.00     0.044 A 
HETATM   24  C   UNK     0       5.091  -7.245  -8.124  0.00  0.00     0.006 A 
HETATM   25  C   UNK     0       5.829  -7.574  -9.425  0.00  0.00     0.006 A 
ENDBRANCH  20  23
ENDBRANCH  17  18
ENDBRANCH  15  17
ENDBRANCH   9  14
TORSDOF 4
ENDMDL
