MODEL 1
REMARK VINA RESULT:      -7.9      0.000      0.000
REMARK  6 active torsions:
REMARK  status: ('A' for Active; 'I' for Inactive)
REMARK    1  A    between atoms: C_9  and  N_13 
REMARK       I    between atoms: N_13  and  C_14 
REMARK    2  A    between atoms: C_14  and  C_17 
REMARK    3  A    between atoms: C_17  and  N_18 
REMARK    4  A    between atoms: C_20  and  C_23 
REMARK    5  A    between atoms: C_23  and  C_24 
REMARK    6  A    between atoms: C_24  and  C_25 
ROOT
HETATM    1  N   UNK     0     -10.103  -7.462  -5.543  0.00  0.00    -0.205 NA
HETATM    2  C   UNK     0      -9.687  -8.644  -5.000  0.00  0.00     0.281 C 
HETATM    3  O   UNK     0      -9.839  -9.658  -5.719  0.00  0.00    -0.268 OA
ENDROOT
BRANCH   2   4
HETATM    4  C   UNK     0      -9.021  -8.828  -3.687  0.00  0.00     0.219 C 
BRANCH   4   5
HETATM    5  N   UNK     0      -7.807  -9.572  -3.832  0.00  0.00    -0.221 N 
HETATM    6  C   UNK     0      -7.519 -10.760  -3.269  0.00  0.00     0.114 A 
HETATM    7  C   UNK     0      -6.251 -11.100  -3.715  0.00  0.00     0.101 A 
HETATM    8  N   UNK     0      -5.852 -10.092  -4.506  0.00  0.00    -0.133 NA
HETATM    9  N   UNK     0      -6.797  -9.205  -4.558  0.00  0.00    -0.064 NA
BRANCH   7  10
HETATM   10  C   UNK     0      -5.465 -12.315  -3.415  0.00  0.00     0.054 C 
BRANCH  10  11
HETATM   11  C   UNK     0      -4.674 -12.192  -2.084  0.00  0.00     0.033 C 
BRANCH  11  12
HETATM   12  C   UNK     0      -3.323 -12.814  -2.182  0.00  0.00    -0.022 A 
HETATM   13  C   UNK     0      -3.009 -13.704  -3.237  0.00  0.00    -0.004 A 
HETATM   14  C   UNK     0      -1.726 -14.273  -3.342  0.00  0.00    -0.000 A 
HETATM   15  C   UNK     0      -0.739 -13.964  -2.389  0.00  0.00     0.000 A 
HETATM   16  C   UNK     0      -1.038 -13.090  -1.328  0.00  0.00    -0.000 A 
HETATM   17  C   UNK     0      -2.321 -12.520  -1.225  0.00  0.00    -0.004 A 
ENDBRANCH  11  12
ENDBRANCH  10  11
ENDBRANCH   7  10
ENDBRANCH   4   5
ENDBRANCH   2   4
BRANCH   1  18
HETATM   18  C   UNK     0     -10.009  -6.250  -4.982  0.00  0.00     0.146 C 
HETATM   19  C   UNK     0      -8.953  -5.458  -5.286  0.00  0.00     0.162 C 
HETATM   20  C   UNK     0      -8.763  -4.229  -4.643  0.00  0.00     0.217 C 
HETATM   21  N   UNK     0      -8.045  -5.848  -6.172  0.00  0.00    -0.143 N 
HETATM   22  C   UNK     0      -9.583  -3.876  -3.530  0.00  0.00     0.044 A 
HETATM   23  O   UNK     0      -7.861  -3.448  -5.034  0.00  0.00    -0.285 OA
HETATM   24  C   UNK     0      -9.277  -2.781  -2.687  0.00  0.00     0.003 A 
HETATM   25  C   UNK     0     -10.727  -4.674  -3.245  0.00  0.00     0.044 A 
HETATM   26  C   UNK     0     -10.089  -2.484  -1.578  0.00  0.00     0.000 A 
HETATM   27  C   UNK     0     -11.227  -3.261  -1.308  0.00  0.00     0.000 A 
HETATM   28  C   UNK     0     -11.550  -4.345  -2.141  0.00  0.00     0.003 A 
HETATM   29  C   UNK     0     -10.983  -5.810  -4.068  0.00  0.00     0.215 C 
HETATM   30  O   UNK     0     -12.072  -6.426  -3.970  0.00  0.00    -0.285 OA
ENDBRANCH   1  18
TORSDOF 6
ENDMDL
MODEL 2
REMARK VINA RESULT:      -7.9      1.015      1.491
REMARK  6 active torsions:
REMARK  status: ('A' for Active; 'I' for Inactive)
REMARK    1  A    between atoms: C_9  and  N_13 
REMARK       I    between atoms: N_13  and  C_14 
REMARK    2  A    between atoms: C_14  and  C_17 
REMARK    3  A    between atoms: C_17  and  N_18 
REMARK    4  A    between atoms: C_20  and  C_23 
REMARK    5  A    between atoms: C_23  and  C_24 
REMARK    6  A    between atoms: C_24  and  C_25 
ROOT
HETATM    1  N   UNK     0     -10.225  -7.609  -5.381  0.00  0.00    -0.205 NA
HETATM    2  C   UNK     0      -9.783  -8.769  -4.812  0.00  0.00     0.281 C 
HETATM    3  O   UNK     0      -9.981  -9.812  -5.476  0.00  0.00    -0.268 OA
ENDROOT
BRANCH   2   4
HETATM    4  C   UNK     0      -9.043  -8.901  -3.533  0.00  0.00     0.219 C 
BRANCH   4   5
HETATM    5  N   UNK     0      -7.810  -9.601  -3.728  0.00  0.00    -0.221 N 
HETATM    6  C   UNK     0      -7.449 -10.769  -3.165  0.00  0.00     0.114 A 
HETATM    7  C   UNK     0      -6.192 -11.066  -3.669  0.00  0.00     0.101 A 
HETATM    8  N   UNK     0      -5.872 -10.056  -4.491  0.00  0.00    -0.133 NA
HETATM    9  N   UNK     0      -6.852  -9.207  -4.507  0.00  0.00    -0.064 NA
BRANCH   7  10
HETATM   10  C   UNK     0      -5.346 -12.247  -3.392  0.00  0.00     0.054 C 
BRANCH  10  11
HETATM   11  C   UNK     0      -5.577 -12.816  -1.966  0.00  0.00     0.033 C 
BRANCH  11  12
HETATM   12  C   UNK     0      -4.499 -12.405  -1.023  0.00  0.00    -0.022 A 
HETATM   13  C   UNK     0      -3.157 -12.290  -1.460  0.00  0.00    -0.004 A 
HETATM   14  C   UNK     0      -2.144 -11.878  -0.574  0.00  0.00    -0.000 A 
HETATM   15  C   UNK     0      -2.456 -11.580   0.764  0.00  0.00     0.000 A 
HETATM   16  C   UNK     0      -3.783 -11.700   1.217  0.00  0.00    -0.000 A 
HETATM   17  C   UNK     0      -4.797 -12.109   0.330  0.00  0.00    -0.004 A 
ENDBRANCH  11  12
ENDBRANCH  10  11
ENDBRANCH   7  10
ENDBRANCH   4   5
ENDBRANCH   2   4
BRANCH   1  18
HETATM   18  C   UNK     0     -10.093  -6.374  -4.880  0.00  0.00     0.146 C 
HETATM   19  C   UNK     0      -9.037  -5.615  -5.256  0.00  0.00     0.162 C 
HETATM   20  C   UNK     0      -8.806  -4.361  -4.677  0.00  0.00     0.217 C 
HETATM   21  N   UNK     0      -8.166  -6.059  -6.154  0.00  0.00    -0.143 N 
HETATM   22  C   UNK     0      -9.581  -3.945  -3.554  0.00  0.00     0.044 A 
HETATM   23  O   UNK     0      -7.907  -3.614  -5.134  0.00  0.00    -0.285 OA
HETATM   24  C   UNK     0      -9.229  -2.818  -2.773  0.00  0.00     0.003 A 
HETATM   25  C   UNK     0     -10.725  -4.710  -3.193  0.00  0.00     0.044 A 
HETATM   26  C   UNK     0      -9.996  -2.457  -1.652  0.00  0.00     0.000 A 
HETATM   27  C   UNK     0     -11.137  -3.202  -1.307  0.00  0.00     0.000 A 
HETATM   28  C   UNK     0     -11.504  -4.318  -2.077  0.00  0.00     0.003 A 
HETATM   29  C   UNK     0     -11.027  -5.878  -3.954  0.00  0.00     0.215 C 
HETATM   30  O   UNK     0     -12.122  -6.471  -3.791  0.00  0.00    -0.285 OA
ENDBRANCH   1  18
TORSDOF 6
ENDMDL
MODEL 3
REMARK VINA RESULT:      -7.8     12.766     13.620
REMARK  6 active torsions:
REMARK  status: ('A' for Active; 'I' for Inactive)
REMARK    1  A    between atoms: C_9  and  N_13 
REMARK       I    between atoms: N_13  and  C_14 
REMARK    2  A    between atoms: C_14  and  C_17 
REMARK    3  A    between atoms: C_17  and  N_18 
REMARK    4  A    between atoms: C_20  and  C_23 
REMARK    5  A    between atoms: C_23  and  C_24 
REMARK    6  A    between atoms: C_24  and  C_25 
ROOT
HETATM    1  N   UNK     0      -2.864   3.925 -11.040  0.00  0.00    -0.205 NA
HETATM    2  C   UNK     0      -2.638   2.599 -11.274  0.00  0.00     0.281 C 
HETATM    3  O   UNK     0      -2.280   2.303 -12.437  0.00  0.00    -0.268 OA
ENDROOT
BRANCH   2   4
HETATM    4  C   UNK     0      -2.710   1.500 -10.279  0.00  0.00     0.219 C 
BRANCH   4   5
HETATM    5  N   UNK     0      -1.515   0.713 -10.303  0.00  0.00    -0.221 N 
HETATM    6  C   UNK     0      -1.381  -0.533 -10.794  0.00  0.00     0.114 A 
HETATM    7  C   UNK     0      -0.047  -0.872 -10.624  0.00  0.00     0.101 A 
HETATM    8  N   UNK     0       0.533   0.183 -10.033  0.00  0.00    -0.133 NA
HETATM    9  N   UNK     0      -0.362   1.106  -9.859  0.00  0.00    -0.064 NA
BRANCH   7  10
HETATM   10  C   UNK     0       0.640  -2.122 -11.009  0.00  0.00     0.054 C 
BRANCH  10  11
HETATM   11  C   UNK     0       1.929  -2.367 -10.179  0.00  0.00     0.033 C 
BRANCH  11  12
HETATM   12  C   UNK     0       2.708  -3.529 -10.692  0.00  0.00    -0.022 A 
HETATM   13  C   UNK     0       2.356  -4.157 -11.912  0.00  0.00    -0.004 A 
HETATM   14  C   UNK     0       3.107  -5.239 -12.407  0.00  0.00    -0.000 A 
HETATM   15  C   UNK     0       4.218  -5.714 -11.688  0.00  0.00     0.000 A 
HETATM   16  C   UNK     0       4.575  -5.108 -10.470  0.00  0.00    -0.000 A 
HETATM   17  C   UNK     0       3.825  -4.024  -9.975  0.00  0.00    -0.004 A 
ENDBRANCH  11  12
ENDBRANCH  10  11
ENDBRANCH   7  10
ENDBRANCH   4   5
ENDBRANCH   2   4
BRANCH   1  18
HETATM   18  C   UNK     0      -3.215   4.480  -9.873  0.00  0.00     0.146 C 
HETATM   19  C   UNK     0      -4.529   4.623  -9.574  0.00  0.00     0.162 C 
HETATM   20  C   UNK     0      -4.937   5.291  -8.415  0.00  0.00     0.217 C 
HETATM   21  N   UNK     0      -5.465   4.168 -10.398  0.00  0.00    -0.143 N 
HETATM   22  C   UNK     0      -3.977   5.989  -7.622  0.00  0.00     0.044 A 
HETATM   23  O   UNK     0      -6.148   5.293  -8.084  0.00  0.00    -0.285 OA
HETATM   24  C   UNK     0      -4.358   6.887  -6.597  0.00  0.00     0.003 A 
HETATM   25  C   UNK     0      -2.595   5.795  -7.898  0.00  0.00     0.044 A 
HETATM   26  C   UNK     0      -3.385   7.585  -5.859  0.00  0.00     0.000 A 
HETATM   27  C   UNK     0      -2.020   7.379  -6.120  0.00  0.00     0.000 A 
HETATM   28  C   UNK     0      -1.626   6.483  -7.128  0.00  0.00     0.003 A 
HETATM   29  C   UNK     0      -2.233   4.934  -8.976  0.00  0.00     0.215 C 
HETATM   30  O   UNK     0      -1.036   4.590  -9.133  0.00  0.00    -0.285 OA
ENDBRANCH   1  18
TORSDOF 6
ENDMDL
MODEL 4
REMARK VINA RESULT:      -7.6     12.185     13.022
REMARK  6 active torsions:
REMARK  status: ('A' for Active; 'I' for Inactive)
REMARK    1  A    between atoms: C_9  and  N_13 
REMARK       I    between atoms: N_13  and  C_14 
REMARK    2  A    between atoms: C_14  and  C_17 
REMARK    3  A    between atoms: C_17  and  N_18 
REMARK    4  A    between atoms: C_20  and  C_23 
REMARK    5  A    between atoms: C_23  and  C_24 
REMARK    6  A    between atoms: C_24  and  C_25 
ROOT
HETATM    1  N   UNK     0      -2.279   2.032 -11.975  0.00  0.00    -0.205 NA
HETATM    2  C   UNK     0      -1.720   0.790 -11.885  0.00  0.00     0.281 C 
HETATM    3  O   UNK     0      -1.145   0.374 -12.916  0.00  0.00    -0.268 OA
ENDROOT
BRANCH   2   4
HETATM    4  C   UNK     0      -1.672  -0.073 -10.678  0.00  0.00     0.219 C 
BRANCH   4   5
HETATM    5  N   UNK     0      -0.426  -0.771 -10.600  0.00  0.00    -0.221 N 
HETATM    6  C   UNK     0      -0.207  -2.065 -10.899  0.00  0.00     0.114 A 
HETATM    7  C   UNK     0       1.148  -2.281 -10.700  0.00  0.00     0.101 A 
HETATM    8  N   UNK     0       1.655  -1.111 -10.284  0.00  0.00    -0.133 NA
HETATM    9  N   UNK     0       0.699  -0.236 -10.239  0.00  0.00    -0.064 NA
BRANCH   7  10
HETATM   10  C   UNK     0       1.920  -3.526 -10.902  0.00  0.00     0.054 C 
BRANCH  10  11
HETATM   11  C   UNK     0       3.370  -3.416 -10.359  0.00  0.00     0.033 C 
BRANCH  11  12
HETATM   12  C   UNK     0       4.046  -4.743 -10.306  0.00  0.00    -0.022 A 
HETATM   13  C   UNK     0       4.037  -5.607 -11.427  0.00  0.00    -0.004 A 
HETATM   14  C   UNK     0       4.695  -6.850 -11.384  0.00  0.00    -0.000 A 
HETATM   15  C   UNK     0       5.368  -7.251 -10.216  0.00  0.00     0.000 A 
HETATM   16  C   UNK     0       5.378  -6.409  -9.089  0.00  0.00    -0.000 A 
HETATM   17  C   UNK     0       4.720  -5.164  -9.134  0.00  0.00    -0.004 A 
ENDBRANCH  11  12
ENDBRANCH  10  11
ENDBRANCH   7  10
ENDBRANCH   4   5
ENDBRANCH   2   4
BRANCH   1  18
HETATM   18  C   UNK     0      -2.910   2.696 -10.997  0.00  0.00     0.146 C 
HETATM   19  C   UNK     0      -4.256   2.593 -10.886  0.00  0.00     0.162 C 
HETATM   20  C   UNK     0      -4.963   3.351  -9.946  0.00  0.00     0.217 C 
HETATM   21  N   UNK     0      -4.945   1.800 -11.697  0.00  0.00    -0.143 N 
HETATM   22  C   UNK     0      -4.294   4.377  -9.213  0.00  0.00     0.044 A 
HETATM   23  O   UNK     0      -6.187   3.141  -9.761  0.00  0.00    -0.285 OA
HETATM   24  C   UNK     0      -4.998   5.337  -8.448  0.00  0.00     0.003 A 
HETATM   25  C   UNK     0      -2.874   4.451  -9.284  0.00  0.00     0.044 A 
HETATM   26  C   UNK     0      -4.308   6.355  -7.768  0.00  0.00     0.000 A 
HETATM   27  C   UNK     0      -2.906   6.416  -7.823  0.00  0.00     0.000 A 
HETATM   28  C   UNK     0      -2.191   5.465  -8.570  0.00  0.00     0.003 A 
HETATM   29  C   UNK     0      -2.187   3.512 -10.110  0.00  0.00     0.215 C 
HETATM   30  O   UNK     0      -0.937   3.423 -10.054  0.00  0.00    -0.285 OA
ENDBRANCH   1  18
TORSDOF 6
ENDMDL
MODEL 5
REMARK VINA RESULT:      -7.6      4.144      5.967
REMARK  6 active torsions:
REMARK  status: ('A' for Active; 'I' for Inactive)
REMARK    1  A    between atoms: C_9  and  N_13 
REMARK       I    between atoms: N_13  and  C_14 
REMARK    2  A    between atoms: C_14  and  C_17 
REMARK    3  A    between atoms: C_17  and  N_18 
REMARK    4  A    between atoms: C_20  and  C_23 
REMARK    5  A    between atoms: C_23  and  C_24 
REMARK    6  A    between atoms: C_24  and  C_25 
ROOT
HETATM    1  N   UNK     0     -10.984  -3.600  -5.126  0.00  0.00    -0.205 NA
HETATM    2  C   UNK     0     -11.121  -3.292  -3.803  0.00  0.00     0.281 C 
HETATM    3  O   UNK     0     -11.919  -2.364  -3.538  0.00  0.00    -0.268 OA
ENDROOT
BRANCH   2   4
HETATM    4  C   UNK     0     -10.474  -3.986  -2.661  0.00  0.00     0.219 C 
BRANCH   4   5
HETATM    5  N   UNK     0     -10.836  -5.370  -2.637  0.00  0.00    -0.221 N 
HETATM    6  C   UNK     0     -10.009  -6.422  -2.780  0.00  0.00     0.114 A 
HETATM    7  C   UNK     0     -10.801  -7.554  -2.658  0.00  0.00     0.101 A 
HETATM    8  N   UNK     0     -12.052  -7.113  -2.462  0.00  0.00    -0.133 NA
HETATM    9  N   UNK     0     -12.040  -5.817  -2.451  0.00  0.00    -0.064 NA
BRANCH   7  10
HETATM   10  C   UNK     0     -10.391  -8.973  -2.716  0.00  0.00     0.054 C 
BRANCH  10  11
HETATM   11  C   UNK     0     -10.550  -9.575  -4.138  0.00  0.00     0.033 C 
BRANCH  11  12
HETATM   12  C   UNK     0      -9.232  -9.832  -4.784  0.00  0.00    -0.022 A 
HETATM   13  C   UNK     0      -9.076 -10.878  -5.725  0.00  0.00    -0.004 A 
HETATM   14  C   UNK     0      -7.836 -11.103  -6.352  0.00  0.00    -0.000 A 
HETATM   15  C   UNK     0      -6.732 -10.290  -6.042  0.00  0.00     0.000 A 
HETATM   16  C   UNK     0      -6.867  -9.254  -5.101  0.00  0.00    -0.000 A 
HETATM   17  C   UNK     0      -8.109  -9.027  -4.476  0.00  0.00    -0.004 A 
ENDBRANCH  11  12
ENDBRANCH  10  11
ENDBRANCH   7  10
ENDBRANCH   4   5
ENDBRANCH   2   4
BRANCH   1  18
HETATM   18  C   UNK     0     -10.223  -4.573  -5.644  0.00  0.00     0.146 C 
HETATM   19  C   UNK     0      -8.887  -4.380  -5.758  0.00  0.00     0.162 C 
HETATM   20  C   UNK     0      -8.072  -5.327  -6.389  0.00  0.00     0.217 C 
HETATM   21  N   UNK     0      -8.321  -3.265  -5.312  0.00  0.00    -0.143 N 
HETATM   22  C   UNK     0      -8.665  -6.426  -7.079  0.00  0.00     0.044 A 
HETATM   23  O   UNK     0      -6.824  -5.199  -6.363  0.00  0.00    -0.285 OA
HETATM   24  C   UNK     0      -7.919  -7.262  -7.943  0.00  0.00     0.003 A 
HETATM   25  C   UNK     0     -10.058  -6.664  -6.914  0.00  0.00     0.044 A 
HETATM   26  C   UNK     0      -8.544  -8.315  -8.635  0.00  0.00     0.000 A 
HETATM   27  C   UNK     0      -9.915  -8.561  -8.457  0.00  0.00     0.000 A 
HETATM   28  C   UNK     0     -10.668  -7.745  -7.596  0.00  0.00     0.003 A 
HETATM   29  C   UNK     0     -10.805  -5.772  -6.088  0.00  0.00     0.215 C 
HETATM   30  O   UNK     0     -11.986  -6.051  -5.767  0.00  0.00    -0.285 OA
ENDBRANCH   1  18
TORSDOF 6
ENDMDL
MODEL 6
REMARK VINA RESULT:      -7.5      4.104      6.456
REMARK  6 active torsions:
REMARK  status: ('A' for Active; 'I' for Inactive)
REMARK    1  A    between atoms: C_9  and  N_13 
REMARK       I    between atoms: N_13  and  C_14 
REMARK    2  A    between atoms: C_14  and  C_17 
REMARK    3  A    between atoms: C_17  and  N_18 
REMARK    4  A    between atoms: C_20  and  C_23 
REMARK    5  A    between atoms: C_23  and  C_24 
REMARK    6  A    between atoms: C_24  and  C_25 
ROOT
HETATM    1  N   UNK     0     -11.597  -4.352  -2.643  0.00  0.00    -0.205 NA
HETATM    2  C   UNK     0     -11.600  -3.386  -3.607  0.00  0.00     0.281 C 
HETATM    3  O   UNK     0     -11.639  -2.204  -3.196  0.00  0.00    -0.268 OA
ENDROOT
BRANCH   2   4
HETATM    4  C   UNK     0     -11.494  -3.598  -5.072  0.00  0.00     0.219 C 
BRANCH   4   5
HETATM    5  N   UNK     0     -10.203  -4.106  -5.421  0.00  0.00    -0.221 N 
HETATM    6  C   UNK     0      -9.935  -5.284  -6.016  0.00  0.00     0.114 A 
HETATM    7  C   UNK     0      -8.558  -5.328  -6.177  0.00  0.00     0.101 A 
HETATM    8  N   UNK     0      -8.086  -4.183  -5.661  0.00  0.00    -0.133 NA
HETATM    9  N   UNK     0      -9.085  -3.480  -5.225  0.00  0.00    -0.064 NA
BRANCH   7  10
HETATM   10  C   UNK     0      -7.739  -6.392  -6.794  0.00  0.00     0.054 C 
BRANCH  10  11
HETATM   11  C   UNK     0      -7.053  -7.298  -5.736  0.00  0.00     0.033 C 
BRANCH  11  12
HETATM   12  C   UNK     0      -7.650  -8.662  -5.702  0.00  0.00    -0.022 A 
HETATM   13  C   UNK     0      -6.874  -9.784  -5.324  0.00  0.00    -0.004 A 
HETATM   14  C   UNK     0      -7.446 -11.070  -5.269  0.00  0.00    -0.000 A 
HETATM   15  C   UNK     0      -8.801 -11.253  -5.599  0.00  0.00     0.000 A 
HETATM   16  C   UNK     0      -9.582 -10.150  -5.987  0.00  0.00    -0.000 A 
HETATM   17  C   UNK     0      -9.011  -8.864  -6.039  0.00  0.00    -0.004 A 
ENDBRANCH  11  12
ENDBRANCH  10  11
ENDBRANCH   7  10
ENDBRANCH   4   5
ENDBRANCH   2   4
BRANCH   1  18
HETATM   18  C   UNK     0     -11.522  -5.675  -2.839  0.00  0.00     0.146 C 
HETATM   19  C   UNK     0     -12.650  -6.370  -3.120  0.00  0.00     0.162 C 
HETATM   20  C   UNK     0     -12.631  -7.765  -3.228  0.00  0.00     0.217 C 
HETATM   21  N   UNK     0     -13.815  -5.747  -3.257  0.00  0.00    -0.143 N 
HETATM   22  C   UNK     0     -11.456  -8.489  -2.867  0.00  0.00     0.044 A 
HETATM   23  O   UNK     0     -13.652  -8.379  -3.624  0.00  0.00    -0.285 OA
HETATM   24  C   UNK     0     -11.457  -9.895  -2.709  0.00  0.00     0.003 A 
HETATM   25  C   UNK     0     -10.254  -7.764  -2.628  0.00  0.00     0.044 A 
HETATM   26  C   UNK     0     -10.288 -10.572  -2.317  0.00  0.00     0.000 A 
HETATM   27  C   UNK     0      -9.098  -9.858  -2.100  0.00  0.00     0.000 A 
HETATM   28  C   UNK     0      -9.078  -8.462  -2.262  0.00  0.00     0.003 A 
HETATM   29  C   UNK     0     -10.289  -6.342  -2.731  0.00  0.00     0.215 C 
HETATM   30  O   UNK     0      -9.221  -5.683  -2.714  0.00  0.00    -0.285 OA
ENDBRANCH   1  18
TORSDOF 6
ENDMDL
MODEL 7
REMARK VINA RESULT:      -7.5     12.686     13.790
REMARK  6 active torsions:
REMARK  status: ('A' for Active; 'I' for Inactive)
REMARK    1  A    between atoms: C_9  and  N_13 
REMARK       I    between atoms: N_13  and  C_14 
REMARK    2  A    between atoms: C_14  and  C_17 
REMARK    3  A    between atoms: C_17  and  N_18 
REMARK    4  A    between atoms: C_20  and  C_23 
REMARK    5  A    between atoms: C_23  and  C_24 
REMARK    6  A    between atoms: C_24  and  C_25 
ROOT
HETATM    1  N   UNK     0      -3.797   5.012 -10.327  0.00  0.00    -0.205 NA
HETATM    2  C   UNK     0      -4.096   3.719 -10.649  0.00  0.00     0.281 C 
HETATM    3  O   UNK     0      -4.341   3.500 -11.857  0.00  0.00    -0.268 OA
ENDROOT
BRANCH   2   4
HETATM    4  C   UNK     0      -4.092   2.555  -9.729  0.00  0.00     0.219 C 
BRANCH   4   5
HETATM    5  N   UNK     0      -2.964   1.712  -9.979  0.00  0.00    -0.221 N 
HETATM    6  C   UNK     0      -2.919   0.650 -10.805  0.00  0.00     0.114 A 
HETATM    7  C   UNK     0      -1.620   0.169 -10.744  0.00  0.00     0.101 A 
HETATM    8  N   UNK     0      -0.970   0.961  -9.878  0.00  0.00    -0.133 NA
HETATM    9  N   UNK     0      -1.791   1.867  -9.446  0.00  0.00    -0.064 NA
BRANCH   7  10
HETATM   10  C   UNK     0      -1.027  -0.973 -11.471  0.00  0.00     0.054 C 
BRANCH  10  11
HETATM   11  C   UNK     0      -0.357  -1.997 -10.515  0.00  0.00     0.033 C 
BRANCH  11  12
HETATM   12  C   UNK     0       0.995  -2.401 -10.994  0.00  0.00    -0.022 A 
HETATM   13  C   UNK     0       2.056  -2.610 -10.079  0.00  0.00    -0.004 A 
HETATM   14  C   UNK     0       3.327  -3.014 -10.530  0.00  0.00    -0.000 A 
HETATM   15  C   UNK     0       3.558  -3.209 -11.904  0.00  0.00     0.000 A 
HETATM   16  C   UNK     0       2.518  -2.995 -12.826  0.00  0.00    -0.000 A 
HETATM   17  C   UNK     0       1.246  -2.593 -12.374  0.00  0.00    -0.004 A 
ENDBRANCH  11  12
ENDBRANCH  10  11
ENDBRANCH   7  10
ENDBRANCH   4   5
ENDBRANCH   2   4
BRANCH   1  18
HETATM   18  C   UNK     0      -3.467   5.477  -9.115  0.00  0.00     0.146 C 
HETATM   19  C   UNK     0      -2.166   5.476  -8.736  0.00  0.00     0.162 C 
HETATM   20  C   UNK     0      -1.791   5.855  -7.442  0.00  0.00     0.217 C 
HETATM   21  N   UNK     0      -1.216   5.073  -9.571  0.00  0.00    -0.143 N 
HETATM   22  C   UNK     0      -2.792   6.075  -6.449  0.00  0.00     0.044 A 
HETATM   23  O   UNK     0      -0.577   5.981  -7.151  0.00  0.00    -0.285 OA
HETATM   24  C   UNK     0      -2.474   6.205  -5.076  0.00  0.00     0.003 A 
HETATM   25  C   UNK     0      -4.155   6.134  -6.855  0.00  0.00     0.044 A 
HETATM   26  C   UNK     0      -3.490   6.386  -4.121  0.00  0.00     0.000 A 
HETATM   27  C   UNK     0      -4.833   6.462  -4.524  0.00  0.00     0.000 A 
HETATM   28  C   UNK     0      -5.164   6.345  -5.885  0.00  0.00     0.003 A 
HETATM   29  C   UNK     0      -4.460   5.939  -8.234  0.00  0.00     0.215 C 
HETATM   30  O   UNK     0      -5.618   6.167  -8.662  0.00  0.00    -0.285 OA
ENDBRANCH   1  18
TORSDOF 6
ENDMDL
MODEL 8
REMARK VINA RESULT:      -7.4     12.756     17.154
REMARK  6 active torsions:
REMARK  status: ('A' for Active; 'I' for Inactive)
REMARK    1  A    between atoms: C_9  and  N_13 
REMARK       I    between atoms: N_13  and  C_14 
REMARK    2  A    between atoms: C_14  and  C_17 
REMARK    3  A    between atoms: C_17  and  N_18 
REMARK    4  A    between atoms: C_20  and  C_23 
REMARK    5  A    between atoms: C_23  and  C_24 
REMARK    6  A    between atoms: C_24  and  C_25 
ROOT
HETATM    1  N   UNK     0       5.116  -7.800 -11.302  0.00  0.00    -0.205 NA
HETATM    2  C   UNK     0       4.696  -6.597 -11.791  0.00  0.00     0.281 C 
HETATM    3  O   UNK     0       3.637  -6.618 -12.458  0.00  0.00    -0.268 OA
ENDROOT
BRANCH   2   4
HETATM    4  C   UNK     0       5.329  -5.276 -11.553  0.00  0.00     0.219 C 
BRANCH   4   5
HETATM    5  N   UNK     0       4.398  -4.364 -10.964  0.00  0.00    -0.221 N 
HETATM    6  C   UNK     0       3.960  -3.206 -11.492  0.00  0.00     0.114 A 
HETATM    7  C   UNK     0       3.055  -2.685 -10.580  0.00  0.00     0.101 A 
HETATM    8  N   UNK     0       3.014  -3.553  -9.558  0.00  0.00    -0.133 NA
HETATM    9  N   UNK     0       3.817  -4.538  -9.817  0.00  0.00    -0.064 NA
BRANCH   7  10
HETATM   10  C   UNK     0       2.267  -1.438 -10.676  0.00  0.00     0.054 C 
BRANCH  10  11
HETATM   11  C   UNK     0       0.757  -1.711 -10.914  0.00  0.00     0.033 C 
BRANCH  11  12
HETATM   12  C   UNK     0      -0.060  -0.472 -10.780  0.00  0.00    -0.022 A 
HETATM   13  C   UNK     0       0.554   0.804 -10.772  0.00  0.00    -0.004 A 
HETATM   14  C   UNK     0      -0.220   1.975 -10.668  0.00  0.00    -0.000 A 
HETATM   15  C   UNK     0      -1.620   1.887 -10.567  0.00  0.00     0.000 A 
HETATM   16  C   UNK     0      -2.244   0.627 -10.563  0.00  0.00    -0.000 A 
HETATM   17  C   UNK     0      -1.470  -0.544 -10.668  0.00  0.00    -0.004 A 
ENDBRANCH  11  12
ENDBRANCH  10  11
ENDBRANCH   7  10
ENDBRANCH   4   5
ENDBRANCH   2   4
BRANCH   1  18
HETATM   18  C   UNK     0       6.193  -8.018 -10.536  0.00  0.00     0.146 C 
HETATM   19  C   UNK     0       7.388  -8.265 -11.124  0.00  0.00     0.162 C 
HETATM   20  C   UNK     0       8.513  -8.600 -10.362  0.00  0.00     0.217 C 
HETATM   21  N   UNK     0       7.513  -8.238 -12.446  0.00  0.00    -0.143 N 
HETATM   22  C   UNK     0       8.372  -8.862  -8.966  0.00  0.00     0.044 A 
HETATM   23  O   UNK     0       9.639  -8.689 -10.909  0.00  0.00    -0.285 OA
HETATM   24  C   UNK     0       9.408  -9.449  -8.202  0.00  0.00     0.003 A 
HETATM   25  C   UNK     0       7.135  -8.549  -8.334  0.00  0.00     0.044 A 
HETATM   26  C   UNK     0       9.222  -9.725  -6.836  0.00  0.00     0.000 A 
HETATM   27  C   UNK     0       8.007  -9.399  -6.209  0.00  0.00     0.000 A 
HETATM   28  C   UNK     0       6.972  -8.807  -6.952  0.00  0.00     0.003 A 
HETATM   29  C   UNK     0       6.082  -8.015  -9.135  0.00  0.00     0.215 C 
HETATM   30  O   UNK     0       5.049  -7.554  -8.590  0.00  0.00    -0.285 OA
ENDBRANCH   1  18
TORSDOF 6
ENDMDL
MODEL 9
REMARK VINA RESULT:      -7.4     11.965     12.813
REMARK  6 active torsions:
REMARK  status: ('A' for Active; 'I' for Inactive)
REMARK    1  A    between atoms: C_9  and  N_13 
REMARK       I    between atoms: N_13  and  C_14 
REMARK    2  A    between atoms: C_14  and  C_17 
REMARK    3  A    between atoms: C_17  and  N_18 
REMARK    4  A    between atoms: C_20  and  C_23 
REMARK    5  A    between atoms: C_23  and  C_24 
REMARK    6  A    between atoms: C_24  and  C_25 
ROOT
HETATM    1  N   UNK     0      -0.776   0.740 -12.527  0.00  0.00    -0.205 NA
HETATM    2  C   UNK     0      -0.201  -0.481 -12.319  0.00  0.00     0.281 C 
HETATM    3  O   UNK     0       0.790  -0.747 -13.036  0.00  0.00    -0.268 OA
ENDROOT
BRANCH   2   4
HETATM    4  C   UNK     0      -0.592  -1.479 -11.292  0.00  0.00     0.219 C 
BRANCH   4   5
HETATM    5  N   UNK     0       0.546  -2.223 -10.846  0.00  0.00    -0.221 N 
HETATM    6  C   UNK     0       0.958  -3.419 -11.306  0.00  0.00     0.114 A 
HETATM    7  C   UNK     0       2.110  -3.727 -10.599  0.00  0.00     0.101 A 
HETATM    8  N   UNK     0       2.311  -2.707  -9.752  0.00  0.00    -0.133 NA
HETATM    9  N   UNK     0       1.371  -1.831  -9.925  0.00  0.00    -0.064 NA
BRANCH   7  10
HETATM   10  C   UNK     0       2.975  -4.919 -10.725  0.00  0.00     0.054 C 
BRANCH  10  11
HETATM   11  C   UNK     0       4.394  -4.683 -10.141  0.00  0.00     0.033 C 
BRANCH  11  12
HETATM   12  C   UNK     0       5.062  -5.962  -9.770  0.00  0.00    -0.022 A 
HETATM   13  C   UNK     0       5.876  -6.652 -10.701  0.00  0.00    -0.004 A 
HETATM   14  C   UNK     0       6.526  -7.848 -10.342  0.00  0.00    -0.000 A 
HETATM   15  C   UNK     0       6.367  -8.375  -9.049  0.00  0.00     0.000 A 
HETATM   16  C   UNK     0       5.553  -7.708  -8.115  0.00  0.00    -0.000 A 
HETATM   17  C   UNK     0       4.905  -6.510  -8.474  0.00  0.00    -0.004 A 
ENDBRANCH  11  12
ENDBRANCH  10  11
ENDBRANCH   7  10
ENDBRANCH   4   5
ENDBRANCH   2   4
BRANCH   1  18
HETATM   18  C   UNK     0      -1.816   1.257 -11.859  0.00  0.00     0.146 C 
HETATM   19  C   UNK     0      -3.075   0.926 -12.233  0.00  0.00     0.162 C 
HETATM   20  C   UNK     0      -4.188   1.524 -11.630  0.00  0.00     0.217 C 
HETATM   21  N   UNK     0      -3.286   0.057 -13.214  0.00  0.00    -0.143 N 
HETATM   22  C   UNK     0      -4.006   2.622 -10.737  0.00  0.00     0.044 A 
HETATM   23  O   UNK     0      -5.343   1.107 -11.890  0.00  0.00    -0.285 OA
HETATM   24  C   UNK     0      -5.088   3.425 -10.302  0.00  0.00     0.003 A 
HETATM   25  C   UNK     0      -2.689   2.934 -10.297  0.00  0.00     0.044 A 
HETATM   26  C   UNK     0      -4.868   4.521  -9.450  0.00  0.00     0.000 A 
HETATM   27  C   UNK     0      -3.569   4.817  -9.001  0.00  0.00     0.000 A 
HETATM   28  C   UNK     0      -2.487   4.023  -9.416  0.00  0.00     0.003 A 
HETATM   29  C   UNK     0      -1.606   2.151 -10.796  0.00  0.00     0.215 C 
HETATM   30  O   UNK     0      -0.461   2.270 -10.294  0.00  0.00    -0.285 OA
ENDBRANCH   1  18
TORSDOF 6
ENDMDL
