MODEL 1
REMARK VINA RESULT:      -7.8      0.000      0.000
REMARK  5 active torsions:
REMARK  status: ('A' for Active; 'I' for Inactive)
REMARK    1  A    between atoms: C_9  and  N_13 
REMARK       I    between atoms: N_13  and  C_14 
REMARK    2  A    between atoms: C_14  and  C_17 
REMARK    3  A    between atoms: C_17  and  N_18 
REMARK    4  A    between atoms: C_20  and  C_23 
REMARK    5  A    between atoms: C_23  and  C_24 
ROOT
HETATM    1  N   UNK     0     -10.003  -7.658  -5.369  0.00  0.00    -0.205 NA
HETATM    2  C   UNK     0      -9.589  -8.833  -4.812  0.00  0.00     0.281 C 
HETATM    3  O   UNK     0      -9.748  -9.855  -5.518  0.00  0.00    -0.268 OA
ENDROOT
BRANCH   2   4
HETATM    4  C   UNK     0      -8.936  -9.006  -3.489  0.00  0.00     0.219 C 
BRANCH   4   5
HETATM    5  N   UNK     0      -7.756  -9.810  -3.593  0.00  0.00    -0.221 N 
HETATM    6  C   UNK     0      -7.542 -11.014  -3.032  0.00  0.00     0.114 A 
HETATM    7  C   UNK     0      -6.278 -11.414  -3.444  0.00  0.00     0.101 A 
HETATM    8  N   UNK     0      -5.802 -10.418  -4.207  0.00  0.00    -0.133 NA
HETATM    9  N   UNK     0      -6.704  -9.487  -4.280  0.00  0.00    -0.064 NA
BRANCH   7  10
HETATM   10  C   UNK     0      -5.567 -12.678  -3.140  0.00  0.00     0.049 C 
BRANCH  10  11
HETATM   11  C   UNK     0      -4.061 -12.500  -2.747  0.00  0.00     0.006 C 
HETATM   12  C   UNK     0      -3.243 -13.795  -3.068  0.00  0.00     0.000 C 
HETATM   13  C   UNK     0      -1.750 -13.693  -2.646  0.00  0.00     0.000 C 
HETATM   14  C   UNK     0      -1.600 -13.303  -1.153  0.00  0.00     0.000 C 
HETATM   15  C   UNK     0      -2.383 -12.007  -0.826  0.00  0.00     0.000 C 
HETATM   16  C   UNK     0      -3.875 -12.117  -1.241  0.00  0.00     0.000 C 
ENDBRANCH  10  11
ENDBRANCH   7  10
ENDBRANCH   4   5
ENDBRANCH   2   4
BRANCH   1  17
HETATM   17  C   UNK     0      -9.907  -6.438  -4.826  0.00  0.00     0.146 C 
HETATM   18  C   UNK     0      -8.886  -5.630  -5.203  0.00  0.00     0.162 C 
HETATM   19  C   UNK     0      -8.722  -4.360  -4.636  0.00  0.00     0.217 C 
HETATM   20  N   UNK     0      -7.992  -6.030  -6.099  0.00  0.00    -0.143 N 
HETATM   21  C   UNK     0      -9.521  -3.971  -3.520  0.00  0.00     0.044 A 
HETATM   22  O   UNK     0      -7.864  -3.571  -5.102  0.00  0.00    -0.285 OA
HETATM   23  C   UNK     0      -9.231  -2.809  -2.763  0.00  0.00     0.003 A 
HETATM   24  C   UNK     0     -10.625  -4.792  -3.152  0.00  0.00     0.044 A 
HETATM   25  C   UNK     0     -10.034  -2.457  -1.665  0.00  0.00     0.000 A 
HETATM   26  C   UNK     0     -11.143  -3.248  -1.323  0.00  0.00     0.000 A 
HETATM   27  C   UNK     0     -11.444  -4.404  -2.064  0.00  0.00     0.003 A 
HETATM   28  C   UNK     0     -10.853  -5.998  -3.885  0.00  0.00     0.215 C 
HETATM   29  O   UNK     0     -11.889  -6.678  -3.681  0.00  0.00    -0.285 OA
ENDBRANCH   1  17
TORSDOF 5
ENDMDL
MODEL 2
REMARK VINA RESULT:      -7.7     13.013     14.022
REMARK  5 active torsions:
REMARK  status: ('A' for Active; 'I' for Inactive)
REMARK    1  A    between atoms: C_9  and  N_13 
REMARK       I    between atoms: N_13  and  C_14 
REMARK    2  A    between atoms: C_14  and  C_17 
REMARK    3  A    between atoms: C_17  and  N_18 
REMARK    4  A    between atoms: C_20  and  C_23 
REMARK    5  A    between atoms: C_23  and  C_24 
ROOT
HETATM    1  N   UNK     0      -2.789   4.570 -10.435  0.00  0.00    -0.205 NA
HETATM    2  C   UNK     0      -2.498   3.271 -10.737  0.00  0.00     0.281 C 
HETATM    3  O   UNK     0      -2.019   3.073 -11.877  0.00  0.00    -0.268 OA
ENDROOT
BRANCH   2   4
HETATM    4  C   UNK     0      -2.651   2.097  -9.840  0.00  0.00     0.219 C 
BRANCH   4   5
HETATM    5  N   UNK     0      -1.631   1.122 -10.083  0.00  0.00    -0.221 N 
HETATM    6  C   UNK     0      -1.777  -0.076 -10.676  0.00  0.00     0.114 A 
HETATM    7  C   UNK     0      -0.511  -0.644 -10.720  0.00  0.00     0.101 A 
HETATM    8  N   UNK     0       0.313   0.236 -10.130  0.00  0.00    -0.133 NA
HETATM    9  N   UNK     0      -0.380   1.273  -9.770  0.00  0.00    -0.064 NA
BRANCH   7  10
HETATM   10  C   UNK     0      -0.104  -1.946 -11.300  0.00  0.00     0.049 C 
BRANCH  10  11
HETATM   11  C   UNK     0       1.438  -2.110 -11.514  0.00  0.00     0.006 C 
HETATM   12  C   UNK     0       1.737  -2.959 -12.795  0.00  0.00     0.000 C 
HETATM   13  C   UNK     0       3.256  -3.201 -13.025  0.00  0.00     0.000 C 
HETATM   14  C   UNK     0       3.934  -3.827 -11.780  0.00  0.00     0.000 C 
HETATM   15  C   UNK     0       3.669  -2.982 -10.508  0.00  0.00     0.000 C 
HETATM   16  C   UNK     0       2.151  -2.751 -10.278  0.00  0.00     0.000 C 
ENDBRANCH  10  11
ENDBRANCH   7  10
ENDBRANCH   4   5
ENDBRANCH   2   4
BRANCH   1  17
HETATM   17  C   UNK     0      -3.275   5.032  -9.276  0.00  0.00     0.146 C 
HETATM   18  C   UNK     0      -4.618   5.139  -9.123  0.00  0.00     0.162 C 
HETATM   19  C   UNK     0      -5.172   5.651  -7.944  0.00  0.00     0.217 C 
HETATM   20  N   UNK     0      -5.447   4.789 -10.099  0.00  0.00    -0.143 N 
HETATM   21  C   UNK     0      -4.327   6.238  -6.957  0.00  0.00     0.044 A 
HETATM   22  O   UNK     0      -6.414   5.603  -7.762  0.00  0.00    -0.285 OA
HETATM   23  C   UNK     0      -4.851   6.983  -5.871  0.00  0.00     0.003 A 
HETATM   24  C   UNK     0      -2.917   6.086  -7.088  0.00  0.00     0.044 A 
HETATM   25  C   UNK     0      -3.990   7.555  -4.919  0.00  0.00     0.000 A 
HETATM   26  C   UNK     0      -2.601   7.375  -5.030  0.00  0.00     0.000 A 
HETATM   27  C   UNK     0      -2.066   6.639  -6.101  0.00  0.00     0.003 A 
HETATM   28  C   UNK     0      -2.408   5.394  -8.231  0.00  0.00     0.215 C 
HETATM   29  O   UNK     0      -1.185   5.121  -8.315  0.00  0.00    -0.285 OA
ENDBRANCH   1  17
TORSDOF 5
ENDMDL
MODEL 3
REMARK VINA RESULT:      -7.6     13.165     14.351
REMARK  5 active torsions:
REMARK  status: ('A' for Active; 'I' for Inactive)
REMARK    1  A    between atoms: C_9  and  N_13 
REMARK       I    between atoms: N_13  and  C_14 
REMARK    2  A    between atoms: C_14  and  C_17 
REMARK    3  A    between atoms: C_17  and  N_18 
REMARK    4  A    between atoms: C_20  and  C_23 
REMARK    5  A    between atoms: C_23  and  C_24 
ROOT
HETATM    1  N   UNK     0      -3.160   5.562 -10.743  0.00  0.00    -0.205 NA
HETATM    2  C   UNK     0      -3.132   4.437 -11.515  0.00  0.00     0.281 C 
HETATM    3  O   UNK     0      -2.703   4.589 -12.682  0.00  0.00    -0.268 OA
ENDROOT
BRANCH   2   4
HETATM    4  C   UNK     0      -3.513   3.063 -11.095  0.00  0.00     0.219 C 
BRANCH   4   5
HETATM    5  N   UNK     0      -2.359   2.284 -10.761  0.00  0.00    -0.221 N 
HETATM    6  C   UNK     0      -1.426   1.810 -11.607  0.00  0.00     0.114 A 
HETATM    7  C   UNK     0      -0.490   1.151 -10.821  0.00  0.00     0.101 A 
HETATM    8  N   UNK     0      -0.929   1.251  -9.556  0.00  0.00    -0.133 NA
HETATM    9  N   UNK     0      -2.034   1.932  -9.555  0.00  0.00    -0.064 NA
BRANCH   7  10
HETATM   10  C   UNK     0       0.758   0.476 -11.246  0.00  0.00     0.049 C 
BRANCH  10  11
HETATM   11  C   UNK     0       0.786  -1.068 -10.984  0.00  0.00     0.006 C 
HETATM   12  C   UNK     0       2.193  -1.523 -10.471  0.00  0.00     0.000 C 
HETATM   13  C   UNK     0       2.293  -3.058 -10.247  0.00  0.00     0.000 C 
HETATM   14  C   UNK     0       1.886  -3.852 -11.514  0.00  0.00     0.000 C 
HETATM   15  C   UNK     0       0.482  -3.432 -12.017  0.00  0.00     0.000 C 
HETATM   16  C   UNK     0       0.390  -1.899 -12.249  0.00  0.00     0.000 C 
ENDBRANCH  10  11
ENDBRANCH   7  10
ENDBRANCH   4   5
ENDBRANCH   2   4
BRANCH   1  17
HETATM   17  C   UNK     0      -3.543   5.643  -9.463  0.00  0.00     0.146 C 
HETATM   18  C   UNK     0      -4.860   5.805  -9.182  0.00  0.00     0.162 C 
HETATM   19  C   UNK     0      -5.306   5.933  -7.860  0.00  0.00     0.217 C 
HETATM   20  N   UNK     0      -5.763   5.877 -10.151  0.00  0.00    -0.143 N 
HETATM   21  C   UNK     0      -4.361   6.078  -6.801  0.00  0.00     0.044 A 
HETATM   22  O   UNK     0      -6.537   5.931  -7.611  0.00  0.00    -0.285 OA
HETATM   23  C   UNK     0      -4.757   6.453  -5.494  0.00  0.00     0.003 A 
HETATM   24  C   UNK     0      -2.982   5.861  -7.083  0.00  0.00     0.044 A 
HETATM   25  C   UNK     0      -3.800   6.595  -4.474  0.00  0.00     0.000 A 
HETATM   26  C   UNK     0      -2.444   6.347  -4.744  0.00  0.00     0.000 A 
HETATM   27  C   UNK     0      -2.036   5.974  -6.037  0.00  0.00     0.003 A 
HETATM   28  C   UNK     0      -2.599   5.556  -8.426  0.00  0.00     0.215 C 
HETATM   29  O   UNK     0      -1.417   5.226  -8.689  0.00  0.00    -0.285 OA
ENDBRANCH   1  17
TORSDOF 5
ENDMDL
MODEL 4
REMARK VINA RESULT:      -7.5     13.040     16.102
REMARK  5 active torsions:
REMARK  status: ('A' for Active; 'I' for Inactive)
REMARK    1  A    between atoms: C_9  and  N_13 
REMARK       I    between atoms: N_13  and  C_14 
REMARK    2  A    between atoms: C_14  and  C_17 
REMARK    3  A    between atoms: C_17  and  N_18 
REMARK    4  A    between atoms: C_20  and  C_23 
REMARK    5  A    between atoms: C_23  and  C_24 
ROOT
HETATM    1  N   UNK     0      -3.372   0.846 -10.317  0.00  0.00    -0.205 NA
HETATM    2  C   UNK     0      -3.616   2.189 -10.320  0.00  0.00     0.281 C 
HETATM    3  O   UNK     0      -4.549   2.573  -9.579  0.00  0.00    -0.268 OA
ENDROOT
BRANCH   2   4
HETATM    4  C   UNK     0      -2.862   3.225 -11.073  0.00  0.00     0.219 C 
BRANCH   4   5
HETATM    5  N   UNK     0      -2.429   4.281 -10.209  0.00  0.00    -0.221 N 
HETATM    6  C   UNK     0      -2.970   5.508 -10.091  0.00  0.00     0.114 A 
HETATM    7  C   UNK     0      -2.238   6.161  -9.109  0.00  0.00     0.101 A 
HETATM    8  N   UNK     0      -1.290   5.297  -8.715  0.00  0.00    -0.133 NA
HETATM    9  N   UNK     0      -1.434   4.192  -9.380  0.00  0.00    -0.064 NA
BRANCH   7  10
HETATM   10  C   UNK     0      -2.435   7.526  -8.569  0.00  0.00     0.049 C 
BRANCH  10  11
HETATM   11  C   UNK     0      -2.947   7.574  -7.089  0.00  0.00     0.006 C 
HETATM   12  C   UNK     0      -1.769   7.857  -6.099  0.00  0.00     0.000 C 
HETATM   13  C   UNK     0      -2.213   7.860  -4.609  0.00  0.00     0.000 C 
HETATM   14  C   UNK     0      -2.950   6.551  -4.226  0.00  0.00     0.000 C 
HETATM   15  C   UNK     0      -4.137   6.272  -5.182  0.00  0.00     0.000 C 
HETATM   16  C   UNK     0      -3.687   6.261  -6.668  0.00  0.00     0.000 C 
ENDBRANCH  10  11
ENDBRANCH   7  10
ENDBRANCH   4   5
ENDBRANCH   2   4
BRANCH   1  17
HETATM   17  C   UNK     0      -2.413   0.206 -10.997  0.00  0.00     0.146 C 
HETATM   18  C   UNK     0      -2.735  -0.413 -12.161  0.00  0.00     0.162 C 
HETATM   19  C   UNK     0      -1.775  -1.126 -12.889  0.00  0.00     0.217 C 
HETATM   20  N   UNK     0      -3.976  -0.386 -12.629  0.00  0.00    -0.143 N 
HETATM   21  C   UNK     0      -0.487  -1.367 -12.325  0.00  0.00     0.044 A 
HETATM   22  O   UNK     0      -2.053  -1.563 -14.033  0.00  0.00    -0.285 OA
HETATM   23  C   UNK     0       0.425  -2.281 -12.907  0.00  0.00     0.003 A 
HETATM   24  C   UNK     0      -0.128  -0.681 -11.129  0.00  0.00     0.044 A 
HETATM   25  C   UNK     0       1.683  -2.501 -12.322  0.00  0.00     0.000 A 
HETATM   26  C   UNK     0       2.051  -1.799 -11.162  0.00  0.00     0.000 A 
HETATM   27  C   UNK     0       1.157  -0.888 -10.572  0.00  0.00     0.003 A 
HETATM   28  C   UNK     0      -1.092   0.180 -10.519  0.00  0.00     0.215 C 
HETATM   29  O   UNK     0      -0.770   0.903  -9.544  0.00  0.00    -0.285 OA
ENDBRANCH   1  17
TORSDOF 5
ENDMDL
MODEL 5
REMARK VINA RESULT:      -7.4     12.479     13.482
REMARK  5 active torsions:
REMARK  status: ('A' for Active; 'I' for Inactive)
REMARK    1  A    between atoms: C_9  and  N_13 
REMARK       I    between atoms: N_13  and  C_14 
REMARK    2  A    between atoms: C_14  and  C_17 
REMARK    3  A    between atoms: C_17  and  N_18 
REMARK    4  A    between atoms: C_20  and  C_23 
REMARK    5  A    between atoms: C_23  and  C_24 
ROOT
HETATM    1  N   UNK     0      -0.577   0.427 -13.701  0.00  0.00    -0.205 NA
HETATM    2  C   UNK     0      -0.374  -0.921 -13.625  0.00  0.00     0.281 C 
HETATM    3  O   UNK     0       0.286  -1.424 -14.562  0.00  0.00    -0.268 OA
ENDROOT
BRANCH   2   4
HETATM    4  C   UNK     0      -0.814  -1.823 -12.530  0.00  0.00     0.219 C 
BRANCH   4   5
HETATM    5  N   UNK     0       0.250  -2.077 -11.606  0.00  0.00    -0.221 N 
HETATM    6  C   UNK     0       1.441  -2.641 -11.875  0.00  0.00     0.114 A 
HETATM    7  C   UNK     0       2.148  -2.642 -10.680  0.00  0.00     0.101 A 
HETATM    8  N   UNK     0       1.330  -2.099  -9.764  0.00  0.00    -0.133 NA
HETATM    9  N   UNK     0       0.218  -1.771 -10.346  0.00  0.00    -0.064 NA
BRANCH   7  10
HETATM   10  C   UNK     0       3.527  -3.120 -10.425  0.00  0.00     0.049 C 
BRANCH  10  11
HETATM   11  C   UNK     0       3.682  -4.678 -10.396  0.00  0.00     0.006 C 
HETATM   12  C   UNK     0       4.675  -5.120  -9.270  0.00  0.00     0.000 C 
HETATM   13  C   UNK     0       4.909  -6.657  -9.233  0.00  0.00     0.000 C 
HETATM   14  C   UNK     0       5.360  -7.204 -10.611  0.00  0.00     0.000 C 
HETATM   15  C   UNK     0       4.370  -6.797 -11.732  0.00  0.00     0.000 C 
HETATM   16  C   UNK     0       4.148  -5.261 -11.771  0.00  0.00     0.000 C 
ENDBRANCH  10  11
ENDBRANCH   7  10
ENDBRANCH   4   5
ENDBRANCH   2   4
BRANCH   1  17
HETATM   17  C   UNK     0      -1.219   1.190 -12.808  0.00  0.00     0.146 C 
HETATM   18  C   UNK     0      -0.514   1.740 -11.788  0.00  0.00     0.162 C 
HETATM   19  C   UNK     0      -1.147   2.516 -10.809  0.00  0.00     0.217 C 
HETATM   20  N   UNK     0       0.792   1.536 -11.670  0.00  0.00    -0.143 N 
HETATM   21  C   UNK     0      -2.571   2.587 -10.767  0.00  0.00     0.044 A 
HETATM   22  O   UNK     0      -0.461   3.138  -9.961  0.00  0.00    -0.285 OA
HETATM   23  C   UNK     0      -3.260   3.149  -9.664  0.00  0.00     0.003 A 
HETATM   24  C   UNK     0      -3.312   2.054 -11.860  0.00  0.00     0.044 A 
HETATM   25  C   UNK     0      -4.664   3.197  -9.651  0.00  0.00     0.000 A 
HETATM   26  C   UNK     0      -5.394   2.702 -10.745  0.00  0.00     0.000 A 
HETATM   27  C   UNK     0      -4.725   2.141 -11.847  0.00  0.00     0.003 A 
HETATM   28  C   UNK     0      -2.599   1.425 -12.928  0.00  0.00     0.215 C 
HETATM   29  O   UNK     0      -3.202   1.064 -13.969  0.00  0.00    -0.285 OA
ENDBRANCH   1  17
TORSDOF 5
ENDMDL
MODEL 6
REMARK VINA RESULT:      -7.4      3.411      6.899
REMARK  5 active torsions:
REMARK  status: ('A' for Active; 'I' for Inactive)
REMARK    1  A    between atoms: C_9  and  N_13 
REMARK       I    between atoms: N_13  and  C_14 
REMARK    2  A    between atoms: C_14  and  C_17 
REMARK    3  A    between atoms: C_17  and  N_18 
REMARK    4  A    between atoms: C_20  and  C_23 
REMARK    5  A    between atoms: C_23  and  C_24 
ROOT
HETATM    1  N   UNK     0      -6.814  -9.188  -5.544  0.00  0.00    -0.205 NA
HETATM    2  C   UNK     0      -7.218 -10.323  -4.903  0.00  0.00     0.281 C 
HETATM    3  O   UNK     0      -6.308 -11.124  -4.591  0.00  0.00    -0.268 OA
ENDROOT
BRANCH   2   4
HETATM    4  C   UNK     0      -8.608 -10.671  -4.508  0.00  0.00     0.219 C 
BRANCH   4   5
HETATM    5  N   UNK     0      -9.165  -9.676  -3.642  0.00  0.00    -0.221 N 
HETATM    6  C   UNK     0     -10.231  -8.893  -3.884  0.00  0.00     0.114 A 
HETATM    7  C   UNK     0     -10.411  -8.120  -2.745  0.00  0.00     0.101 A 
HETATM    8  N   UNK     0      -9.429  -8.469  -1.899  0.00  0.00    -0.133 NA
HETATM    9  N   UNK     0      -8.713  -9.396  -2.458  0.00  0.00    -0.064 NA
BRANCH   7  10
HETATM   10  C   UNK     0     -11.464  -7.114  -2.471  0.00  0.00     0.049 C 
BRANCH  10  11
HETATM   11  C   UNK     0     -11.214  -5.714  -3.128  0.00  0.00     0.006 C 
HETATM   12  C   UNK     0     -10.770  -4.664  -2.055  0.00  0.00     0.000 C 
HETATM   13  C   UNK     0     -10.562  -3.241  -2.645  0.00  0.00     0.000 C 
HETATM   14  C   UNK     0     -11.816  -2.747  -3.412  0.00  0.00     0.000 C 
HETATM   15  C   UNK     0     -12.251  -3.764  -4.496  0.00  0.00     0.000 C 
HETATM   16  C   UNK     0     -12.466  -5.182  -3.901  0.00  0.00     0.000 C 
ENDBRANCH  10  11
ENDBRANCH   7  10
ENDBRANCH   4   5
ENDBRANCH   2   4
BRANCH   1  17
HETATM   17  C   UNK     0      -7.592  -8.176  -5.946  0.00  0.00     0.146 C 
HETATM   18  C   UNK     0      -8.315  -8.316  -7.085  0.00  0.00     0.162 C 
HETATM   19  C   UNK     0      -9.116  -7.272  -7.565  0.00  0.00     0.217 C 
HETATM   20  N   UNK     0      -8.264  -9.436  -7.795  0.00  0.00    -0.143 N 
HETATM   21  C   UNK     0      -9.039  -5.981  -6.962  0.00  0.00     0.044 A 
HETATM   22  O   UNK     0      -9.891  -7.470  -8.533  0.00  0.00    -0.285 OA
HETATM   23  C   UNK     0      -9.635  -4.842  -7.557  0.00  0.00     0.003 A 
HETATM   24  C   UNK     0      -8.322  -5.841  -5.740  0.00  0.00     0.044 A 
HETATM   25  C   UNK     0      -9.536  -3.583  -6.941  0.00  0.00     0.000 A 
HETATM   26  C   UNK     0      -8.857  -3.451  -5.718  0.00  0.00     0.000 A 
HETATM   27  C   UNK     0      -8.260  -4.572  -5.115  0.00  0.00     0.003 A 
HETATM   28  C   UNK     0      -7.666  -6.989  -5.197  0.00  0.00     0.215 C 
HETATM   29  O   UNK     0      -7.139  -6.940  -4.058  0.00  0.00    -0.285 OA
ENDBRANCH   1  17
TORSDOF 5
ENDMDL
MODEL 7
REMARK VINA RESULT:      -7.4     12.703     13.869
REMARK  5 active torsions:
REMARK  status: ('A' for Active; 'I' for Inactive)
REMARK    1  A    between atoms: C_9  and  N_13 
REMARK       I    between atoms: N_13  and  C_14 
REMARK    2  A    between atoms: C_14  and  C_17 
REMARK    3  A    between atoms: C_17  and  N_18 
REMARK    4  A    between atoms: C_20  and  C_23 
REMARK    5  A    between atoms: C_23  and  C_24 
ROOT
HETATM    1  N   UNK     0      -4.101   4.385 -10.940  0.00  0.00    -0.205 NA
HETATM    2  C   UNK     0      -4.322   3.055 -11.157  0.00  0.00     0.281 C 
HETATM    3  O   UNK     0      -4.688   2.746 -12.313  0.00  0.00    -0.268 OA
ENDROOT
BRANCH   2   4
HETATM    4  C   UNK     0      -4.127   1.954 -10.178  0.00  0.00     0.219 C 
BRANCH   4   5
HETATM    5  N   UNK     0      -2.794   1.435 -10.239  0.00  0.00    -0.221 N 
HETATM    6  C   UNK     0      -2.214   0.806 -11.277  0.00  0.00     0.114 A 
HETATM    7  C   UNK     0      -0.913   0.525 -10.881  0.00  0.00     0.101 A 
HETATM    8  N   UNK     0      -0.799   0.981  -9.624  0.00  0.00    -0.133 NA
HETATM    9  N   UNK     0      -1.928   1.519  -9.276  0.00  0.00    -0.064 NA
BRANCH   7  10
HETATM   10  C   UNK     0       0.165  -0.130 -11.658  0.00  0.00     0.049 C 
BRANCH  10  11
HETATM   11  C   UNK     0       0.580  -1.546 -11.132  0.00  0.00     0.006 C 
HETATM   12  C   UNK     0       2.050  -1.533 -10.595  0.00  0.00     0.000 C 
HETATM   13  C   UNK     0       2.534  -2.929 -10.110  0.00  0.00     0.000 C 
HETATM   14  C   UNK     0       2.357  -4.011 -11.206  0.00  0.00     0.000 C 
HETATM   15  C   UNK     0       0.899  -4.054 -11.727  0.00  0.00     0.000 C 
HETATM   16  C   UNK     0       0.424  -2.660 -12.219  0.00  0.00     0.000 C 
ENDBRANCH  10  11
ENDBRANCH   7  10
ENDBRANCH   4   5
ENDBRANCH   2   4
BRANCH   1  17
HETATM   17  C   UNK     0      -3.675   4.950  -9.804  0.00  0.00     0.146 C 
HETATM   18  C   UNK     0      -2.343   5.007  -9.558  0.00  0.00     0.162 C 
HETATM   19  C   UNK     0      -1.851   5.556  -8.368  0.00  0.00     0.217 C 
HETATM   20  N   UNK     0      -1.466   4.518 -10.426  0.00  0.00    -0.143 N 
HETATM   21  C   UNK     0      -2.751   5.896  -7.315  0.00  0.00     0.044 A 
HETATM   22  O   UNK     0      -0.617   5.736  -8.223  0.00  0.00    -0.285 OA
HETATM   23  C   UNK     0      -2.293   6.219  -6.014  0.00  0.00     0.003 A 
HETATM   24  C   UNK     0      -4.150   5.885  -7.584  0.00  0.00     0.044 A 
HETATM   25  C   UNK     0      -3.207   6.543  -4.998  0.00  0.00     0.000 A 
HETATM   26  C   UNK     0      -4.584   6.565  -5.272  0.00  0.00     0.000 A 
HETATM   27  C   UNK     0      -5.055   6.247  -6.558  0.00  0.00     0.003 A 
HETATM   28  C   UNK     0      -4.593   5.483  -8.883  0.00  0.00     0.215 C 
HETATM   29  O   UNK     0      -5.803   5.589  -9.201  0.00  0.00    -0.285 OA
ENDBRANCH   1  17
TORSDOF 5
ENDMDL
MODEL 8
REMARK VINA RESULT:      -7.4      3.849      5.740
REMARK  5 active torsions:
REMARK  status: ('A' for Active; 'I' for Inactive)
REMARK    1  A    between atoms: C_9  and  N_13 
REMARK       I    between atoms: N_13  and  C_14 
REMARK    2  A    between atoms: C_14  and  C_17 
REMARK    3  A    between atoms: C_17  and  N_18 
REMARK    4  A    between atoms: C_20  and  C_23 
REMARK    5  A    between atoms: C_23  and  C_24 
ROOT
HETATM    1  N   UNK     0     -10.950  -3.603  -5.007  0.00  0.00    -0.205 NA
HETATM    2  C   UNK     0     -11.027  -3.327  -3.673  0.00  0.00     0.281 C 
HETATM    3  O   UNK     0     -11.813  -2.407  -3.352  0.00  0.00    -0.268 OA
ENDROOT
BRANCH   2   4
HETATM    4  C   UNK     0     -10.312  -4.034  -2.579  0.00  0.00     0.219 C 
BRANCH   4   5
HETATM    5  N   UNK     0     -10.563  -5.443  -2.621  0.00  0.00    -0.221 N 
HETATM    6  C   UNK     0      -9.666  -6.422  -2.838  0.00  0.00     0.114 A 
HETATM    7  C   UNK     0     -10.367  -7.617  -2.749  0.00  0.00     0.101 A 
HETATM    8  N   UNK     0     -11.644  -7.282  -2.507  0.00  0.00    -0.133 NA
HETATM    9  N   UNK     0     -11.725  -5.988  -2.431  0.00  0.00    -0.064 NA
BRANCH   7  10
HETATM   10  C   UNK     0      -9.850  -8.999  -2.875  0.00  0.00     0.049 C 
BRANCH  10  11
HETATM   11  C   UNK     0      -9.070  -9.285  -4.202  0.00  0.00     0.006 C 
HETATM   12  C   UNK     0      -9.367 -10.731  -4.725  0.00  0.00     0.000 C 
HETATM   13  C   UNK     0      -8.574 -11.088  -6.013  0.00  0.00     0.000 C 
HETATM   14  C   UNK     0      -7.050 -10.872  -5.829  0.00  0.00     0.000 C 
HETATM   15  C   UNK     0      -6.739  -9.436  -5.338  0.00  0.00     0.000 C 
HETATM   16  C   UNK     0      -7.526  -9.087  -4.046  0.00  0.00     0.000 C 
ENDBRANCH  10  11
ENDBRANCH   7  10
ENDBRANCH   4   5
ENDBRANCH   2   4
BRANCH   1  17
HETATM   17  C   UNK     0     -10.210  -4.557  -5.585  0.00  0.00     0.146 C 
HETATM   18  C   UNK     0      -8.877  -4.355  -5.733  0.00  0.00     0.162 C 
HETATM   19  C   UNK     0      -8.068  -5.307  -6.364  0.00  0.00     0.217 C 
HETATM   20  N   UNK     0      -8.304  -3.235  -5.310  0.00  0.00    -0.143 N 
HETATM   21  C   UNK     0      -8.663  -6.422  -7.024  0.00  0.00     0.044 A 
HETATM   22  O   UNK     0      -6.819  -5.172  -6.358  0.00  0.00    -0.285 OA
HETATM   23  C   UNK     0      -7.917  -7.271  -7.878  0.00  0.00     0.003 A 
HETATM   24  C   UNK     0     -10.053  -6.666  -6.832  0.00  0.00     0.044 A 
HETATM   25  C   UNK     0      -8.536  -8.357  -8.520  0.00  0.00     0.000 A 
HETATM   26  C   UNK     0      -9.899  -8.618  -8.303  0.00  0.00     0.000 A 
HETATM   27  C   UNK     0     -10.654  -7.784  -7.459  0.00  0.00     0.003 A 
HETATM   28  C   UNK     0     -10.802  -5.753  -6.026  0.00  0.00     0.215 C 
HETATM   29  O   UNK     0     -11.994  -6.004  -5.723  0.00  0.00    -0.285 OA
ENDBRANCH   1  17
TORSDOF 5
ENDMDL
MODEL 9
REMARK VINA RESULT:      -7.4      3.192      5.427
REMARK  5 active torsions:
REMARK  status: ('A' for Active; 'I' for Inactive)
REMARK    1  A    between atoms: C_9  and  N_13 
REMARK       I    between atoms: N_13  and  C_14 
REMARK    2  A    between atoms: C_14  and  C_17 
REMARK    3  A    between atoms: C_17  and  N_18 
REMARK    4  A    between atoms: C_20  and  C_23 
REMARK    5  A    between atoms: C_23  and  C_24 
ROOT
HETATM    1  N   UNK     0      -9.275  -3.836  -3.161  0.00  0.00    -0.205 NA
HETATM    2  C   UNK     0      -8.790  -3.364  -4.346  0.00  0.00     0.281 C 
HETATM    3  O   UNK     0      -7.865  -2.524  -4.258  0.00  0.00    -0.268 OA
ENDROOT
BRANCH   2   4
HETATM    4  C   UNK     0      -9.217  -3.779  -5.707  0.00  0.00     0.219 C 
BRANCH   4   5
HETATM    5  N   UNK     0      -8.528  -4.960  -6.129  0.00  0.00    -0.221 N 
HETATM    6  C   UNK     0      -9.076  -6.116  -6.545  0.00  0.00     0.114 A 
HETATM    7  C   UNK     0      -8.018  -6.949  -6.882  0.00  0.00     0.101 A 
HETATM    8  N   UNK     0      -6.900  -6.251  -6.626  0.00  0.00    -0.133 NA
HETATM    9  N   UNK     0      -7.237  -5.077  -6.187  0.00  0.00    -0.064 NA
BRANCH   7  10
HETATM   10  C   UNK     0      -8.066  -8.325  -7.427  0.00  0.00     0.049 C 
BRANCH  10  11
HETATM   11  C   UNK     0      -7.933  -9.457  -6.353  0.00  0.00     0.006 C 
HETATM   12  C   UNK     0      -9.222  -9.544  -5.470  0.00  0.00     0.000 C 
HETATM   13  C   UNK     0      -9.122 -10.617  -4.350  0.00  0.00     0.000 C 
HETATM   14  C   UNK     0      -7.864 -10.411  -3.467  0.00  0.00     0.000 C 
HETATM   15  C   UNK     0      -6.576 -10.351  -4.326  0.00  0.00     0.000 C 
HETATM   16  C   UNK     0      -6.677  -9.272  -5.438  0.00  0.00     0.000 C 
ENDBRANCH  10  11
ENDBRANCH   7  10
ENDBRANCH   4   5
ENDBRANCH   2   4
BRANCH   1  17
HETATM   17  C   UNK     0     -10.233  -4.757  -2.999  0.00  0.00     0.146 C 
HETATM   18  C   UNK     0      -9.876  -6.057  -2.853  0.00  0.00     0.162 C 
HETATM   19  C   UNK     0     -10.842  -7.061  -2.717  0.00  0.00     0.217 C 
HETATM   20  N   UNK     0      -8.599  -6.421  -2.863  0.00  0.00    -0.143 N 
HETATM   21  C   UNK     0     -12.221  -6.753  -2.915  0.00  0.00     0.044 A 
HETATM   22  O   UNK     0     -10.493  -8.234  -2.434  0.00  0.00    -0.285 OA
HETATM   23  C   UNK     0     -13.203  -7.767  -3.033  0.00  0.00     0.003 A 
HETATM   24  C   UNK     0     -12.606  -5.386  -3.020  0.00  0.00     0.044 A 
HETATM   25  C   UNK     0     -14.553  -7.430  -3.234  0.00  0.00     0.000 A 
HETATM   26  C   UNK     0     -14.937  -6.080  -3.303  0.00  0.00     0.000 A 
HETATM   27  C   UNK     0     -13.974  -5.063  -3.189  0.00  0.00     0.003 A 
HETATM   28  C   UNK     0     -11.587  -4.384  -2.974  0.00  0.00     0.215 C 
HETATM   29  O   UNK     0     -11.895  -3.167  -2.927  0.00  0.00    -0.285 OA
ENDBRANCH   1  17
TORSDOF 5
ENDMDL
