MODEL 1
REMARK VINA RESULT:      -7.3      0.000      0.000
REMARK  6 active torsions:
REMARK  status: ('A' for Active; 'I' for Inactive)
REMARK    1  A    between atoms: C_9  and  N_13 
REMARK       I    between atoms: N_13  and  C_14 
REMARK    2  A    between atoms: C_14  and  C_17 
REMARK    3  A    between atoms: C_17  and  N_18 
REMARK    4  A    between atoms: C_20  and  C_23 
REMARK    5  A    between atoms: C_23  and  O_24 
REMARK    6  A    between atoms: O_24  and  C_26 
ROOT
HETATM    1  N   UNK     0       3.640  -3.509 -12.293  0.00  0.00    -0.205 NA
HETATM    2  C   UNK     0       2.421  -3.731 -12.871  0.00  0.00     0.281 C 
HETATM    3  O   UNK     0       1.956  -4.889 -13.008  0.00  0.00    -0.268 OA
ENDROOT
BRANCH   1   4
HETATM    4  C   UNK     0       4.420  -4.451 -11.745  0.00  0.00     0.146 C 
HETATM    5  C   UNK     0       5.375  -5.052 -12.493  0.00  0.00     0.162 C 
HETATM    6  C   UNK     0       6.156  -6.093 -11.968  0.00  0.00     0.217 C 
HETATM    7  N   UNK     0       5.567  -4.681 -13.753  0.00  0.00    -0.143 N 
HETATM    8  C   UNK     0       5.885  -6.604 -10.659  0.00  0.00     0.044 A 
HETATM    9  O   UNK     0       7.087  -6.582 -12.653  0.00  0.00    -0.285 OA
HETATM   10  C   UNK     0       6.551  -7.740 -10.137  0.00  0.00     0.003 A 
HETATM   11  C   UNK     0       4.907  -5.947  -9.862  0.00  0.00     0.044 A 
HETATM   12  C   UNK     0       6.242  -8.224  -8.854  0.00  0.00     0.000 A 
HETATM   13  C   UNK     0       5.273  -7.578  -8.072  0.00  0.00     0.000 A 
HETATM   14  C   UNK     0       4.614  -6.443  -8.569  0.00  0.00     0.003 A 
HETATM   15  C   UNK     0       4.252  -4.801 -10.396  0.00  0.00     0.215 C 
HETATM   16  O   UNK     0       3.549  -4.077  -9.648  0.00  0.00    -0.285 OA
ENDBRANCH   1   4
BRANCH   2  17
HETATM   17  C   UNK     0       1.629  -2.579 -13.342  0.00  0.00     0.219 C 
BRANCH  17  18
HETATM   18  N   UNK     0       1.045  -1.864 -12.252  0.00  0.00    -0.221 N 
HETATM   19  C   UNK     0       0.879  -0.536 -12.156  0.00  0.00     0.124 A 
HETATM   20  C   UNK     0       0.298  -0.307 -10.917  0.00  0.00     0.186 A 
HETATM   21  N   UNK     0       0.145  -1.513 -10.351  0.00  0.00    -0.123 NA
HETATM   22  N   UNK     0       0.592  -2.415 -11.167  0.00  0.00    -0.063 NA
BRANCH  20  23
HETATM   23  C   UNK     0      -0.078   0.915 -10.338  0.00  0.00     0.317 C 
HETATM   24  O   UNK     0       0.625   1.930 -10.552  0.00  0.00    -0.257 OA
BRANCH  23  25
HETATM   25  O   UNK     0      -1.187   0.993  -9.546  0.00  0.00    -0.297 OA
BRANCH  25  26
HETATM   26  C   UNK     0      -2.471   1.487  -9.949  0.00  0.00     0.152 C 
HETATM   27  C   UNK     0      -3.252   0.380 -10.676  0.00  0.00     0.035 C 
ENDBRANCH  25  26
ENDBRANCH  23  25
ENDBRANCH  20  23
ENDBRANCH  17  18
ENDBRANCH   2  17
TORSDOF 6
ENDMDL
MODEL 2
REMARK VINA RESULT:      -7.3      2.047      9.097
REMARK  6 active torsions:
REMARK  status: ('A' for Active; 'I' for Inactive)
REMARK    1  A    between atoms: C_9  and  N_13 
REMARK       I    between atoms: N_13  and  C_14 
REMARK    2  A    between atoms: C_14  and  C_17 
REMARK    3  A    between atoms: C_17  and  N_18 
REMARK    4  A    between atoms: C_20  and  C_23 
REMARK    5  A    between atoms: C_23  and  O_24 
REMARK    6  A    between atoms: O_24  and  C_26 
ROOT
HETATM    1  N   UNK     0       1.078  -0.643 -11.402  0.00  0.00    -0.205 NA
HETATM    2  C   UNK     0       1.626  -1.657 -10.667  0.00  0.00     0.281 C 
HETATM    3  O   UNK     0       0.933  -2.365  -9.897  0.00  0.00    -0.268 OA
ENDROOT
BRANCH   1   4
HETATM    4  C   UNK     0      -0.228  -0.344 -11.455  0.00  0.00     0.146 C 
HETATM    5  C   UNK     0      -1.010  -0.915 -12.402  0.00  0.00     0.162 C 
HETATM    6  C   UNK     0      -2.364  -0.566 -12.527  0.00  0.00     0.217 C 
HETATM    7  N   UNK     0      -0.496  -1.799 -13.248  0.00  0.00    -0.143 N 
HETATM    8  C   UNK     0      -2.914   0.478 -11.719  0.00  0.00     0.044 A 
HETATM    9  O   UNK     0      -3.088  -1.164 -13.360  0.00  0.00    -0.285 OA
HETATM   10  C   UNK     0      -4.233   0.961 -11.900  0.00  0.00     0.003 A 
HETATM   11  C   UNK     0      -2.101   1.050 -10.700  0.00  0.00     0.044 A 
HETATM   12  C   UNK     0      -4.731   2.003 -11.098  0.00  0.00     0.000 A 
HETATM   13  C   UNK     0      -3.925   2.569 -10.099  0.00  0.00     0.000 A 
HETATM   14  C   UNK     0      -2.621   2.092  -9.896  0.00  0.00     0.003 A 
HETATM   15  C   UNK     0      -0.781   0.547 -10.523  0.00  0.00     0.215 C 
HETATM   16  O   UNK     0      -0.118   0.875  -9.507  0.00  0.00    -0.285 OA
ENDBRANCH   1   4
BRANCH   2  17
HETATM   17  C   UNK     0       3.071  -1.930 -10.788  0.00  0.00     0.219 C 
BRANCH  17  18
HETATM   18  N   UNK     0       3.352  -3.326 -10.677  0.00  0.00    -0.221 N 
HETATM   19  C   UNK     0       3.893  -3.958  -9.623  0.00  0.00     0.124 A 
HETATM   20  C   UNK     0       3.999  -5.294  -9.984  0.00  0.00     0.186 A 
HETATM   21  N   UNK     0       3.509  -5.380 -11.230  0.00  0.00    -0.123 NA
HETATM   22  N   UNK     0       3.131  -4.200 -11.610  0.00  0.00    -0.063 NA
BRANCH  20  23
HETATM   23  C   UNK     0       4.500  -6.368  -9.232  0.00  0.00     0.317 C 
HETATM   24  O   UNK     0       4.015  -6.593  -8.099  0.00  0.00    -0.257 OA
BRANCH  23  25
HETATM   25  O   UNK     0       5.506  -7.147  -9.725  0.00  0.00    -0.297 OA
BRANCH  25  26
HETATM   26  C   UNK     0       6.259  -8.113  -8.980  0.00  0.00     0.152 C 
HETATM   27  C   UNK     0       7.475  -7.436  -8.326  0.00  0.00     0.035 C 
ENDBRANCH  25  26
ENDBRANCH  23  25
ENDBRANCH  20  23
ENDBRANCH  17  18
ENDBRANCH   2  17
TORSDOF 6
ENDMDL
MODEL 3
REMARK VINA RESULT:      -7.2      5.071      7.913
REMARK  6 active torsions:
REMARK  status: ('A' for Active; 'I' for Inactive)
REMARK    1  A    between atoms: C_9  and  N_13 
REMARK       I    between atoms: N_13  and  C_14 
REMARK    2  A    between atoms: C_14  and  C_17 
REMARK    3  A    between atoms: C_17  and  N_18 
REMARK    4  A    between atoms: C_20  and  C_23 
REMARK    5  A    between atoms: C_23  and  O_24 
REMARK    6  A    between atoms: O_24  and  C_26 
ROOT
HETATM    1  N   UNK     0      -1.938   2.114 -11.472  0.00  0.00    -0.205 NA
HETATM    2  C   UNK     0      -2.645   2.430 -10.344  0.00  0.00     0.281 C 
HETATM    3  O   UNK     0      -2.832   1.595  -9.426  0.00  0.00    -0.268 OA
ENDROOT
BRANCH   1   4
HETATM    4  C   UNK     0      -1.312   0.950 -11.691  0.00  0.00     0.146 C 
HETATM    5  C   UNK     0      -1.863   0.036 -12.525  0.00  0.00     0.162 C 
HETATM    6  C   UNK     0      -1.267  -1.220 -12.716  0.00  0.00     0.217 C 
HETATM    7  N   UNK     0      -2.999   0.309 -13.155  0.00  0.00    -0.143 N 
HETATM    8  C   UNK     0      -0.117  -1.593 -11.951  0.00  0.00     0.044 A 
HETATM    9  O   UNK     0      -1.753  -2.020 -13.551  0.00  0.00    -0.285 OA
HETATM   10  C   UNK     0       0.439  -2.894 -12.005  0.00  0.00     0.003 A 
HETATM   11  C   UNK     0       0.482  -0.619 -11.104  0.00  0.00     0.044 A 
HETATM   12  C   UNK     0       1.558  -3.229 -11.223  0.00  0.00     0.000 A 
HETATM   13  C   UNK     0       2.143  -2.268 -10.384  0.00  0.00     0.000 A 
HETATM   14  C   UNK     0       1.613  -0.969 -10.329  0.00  0.00     0.003 A 
HETATM   15  C   UNK     0      -0.082   0.688 -11.067  0.00  0.00     0.215 C 
HETATM   16  O   UNK     0       0.541   1.622 -10.503  0.00  0.00    -0.285 OA
ENDBRANCH   1   4
BRANCH   2  17
HETATM   17  C   UNK     0      -3.196   3.792 -10.200  0.00  0.00     0.219 C 
BRANCH  17  18
HETATM   18  N   UNK     0      -2.491   4.540  -9.208  0.00  0.00    -0.221 N 
HETATM   19  C   UNK     0      -3.027   5.233  -8.191  0.00  0.00     0.124 A 
HETATM   20  C   UNK     0      -1.962   5.813  -7.515  0.00  0.00     0.186 A 
HETATM   21  N   UNK     0      -0.855   5.425  -8.165  0.00  0.00    -0.123 NA
HETATM   22  N   UNK     0      -1.201   4.670  -9.160  0.00  0.00    -0.063 NA
BRANCH  20  23
HETATM   23  C   UNK     0      -1.990   6.634  -6.376  0.00  0.00     0.317 C 
HETATM   24  O   UNK     0      -1.878   7.873  -6.520  0.00  0.00    -0.257 OA
BRANCH  23  25
HETATM   25  O   UNK     0      -2.127   6.087  -5.133  0.00  0.00    -0.297 OA
BRANCH  25  26
HETATM   26  C   UNK     0      -3.044   6.527  -4.122  0.00  0.00     0.152 C 
HETATM   27  C   UNK     0      -4.486   6.210  -4.550  0.00  0.00     0.035 C 
ENDBRANCH  25  26
ENDBRANCH  23  25
ENDBRANCH  20  23
ENDBRANCH  17  18
ENDBRANCH   2  17
TORSDOF 6
ENDMDL
MODEL 4
REMARK VINA RESULT:      -7.1      2.551      9.934
REMARK  6 active torsions:
REMARK  status: ('A' for Active; 'I' for Inactive)
REMARK    1  A    between atoms: C_9  and  N_13 
REMARK       I    between atoms: N_13  and  C_14 
REMARK    2  A    between atoms: C_14  and  C_17 
REMARK    3  A    between atoms: C_17  and  N_18 
REMARK    4  A    between atoms: C_20  and  C_23 
REMARK    5  A    between atoms: C_23  and  O_24 
REMARK    6  A    between atoms: O_24  and  C_26 
ROOT
HETATM    1  N   UNK     0      -2.410  -0.535 -11.383  0.00  0.00    -0.205 NA
HETATM    2  C   UNK     0      -1.367  -0.626 -12.263  0.00  0.00     0.281 C 
HETATM    3  O   UNK     0      -0.943   0.375 -12.891  0.00  0.00    -0.268 OA
ENDROOT
BRANCH   1   4
HETATM    4  C   UNK     0      -3.029   0.600 -11.032  0.00  0.00     0.146 C 
HETATM    5  C   UNK     0      -4.271   0.864 -11.504  0.00  0.00     0.162 C 
HETATM    6  C   UNK     0      -4.912   2.078 -11.212  0.00  0.00     0.217 C 
HETATM    7  N   UNK     0      -4.890  -0.018 -12.279  0.00  0.00    -0.143 N 
HETATM    8  C   UNK     0      -4.219   3.102 -10.492  0.00  0.00     0.044 A 
HETATM    9  O   UNK     0      -6.092   2.267 -11.596  0.00  0.00    -0.285 OA
HETATM   10  C   UNK     0      -4.770   4.391 -10.291  0.00  0.00     0.003 A 
HETATM   11  C   UNK     0      -2.931   2.809  -9.966  0.00  0.00     0.044 A 
HETATM   12  C   UNK     0      -4.049   5.377  -9.595  0.00  0.00     0.000 A 
HETATM   13  C   UNK     0      -2.775   5.088  -9.083  0.00  0.00     0.000 A 
HETATM   14  C   UNK     0      -2.221   3.810  -9.260  0.00  0.00     0.003 A 
HETATM   15  C   UNK     0      -2.394   1.505 -10.167  0.00  0.00     0.215 C 
HETATM   16  O   UNK     0      -1.366   1.148  -9.539  0.00  0.00    -0.285 OA
ENDBRANCH   1   4
BRANCH   2  17
HETATM   17  C   UNK     0      -0.719  -1.935 -12.474  0.00  0.00     0.219 C 
BRANCH  17  18
HETATM   18  N   UNK     0       0.356  -2.142 -11.557  0.00  0.00    -0.221 N 
HETATM   19  C   UNK     0       1.496  -2.811 -11.790  0.00  0.00     0.124 A 
HETATM   20  C   UNK     0       2.218  -2.770 -10.605  0.00  0.00     0.186 A 
HETATM   21  N   UNK     0       1.468  -2.073  -9.738  0.00  0.00    -0.123 NA
HETATM   22  N   UNK     0       0.374  -1.712 -10.332  0.00  0.00    -0.063 NA
BRANCH  20  23
HETATM   23  C   UNK     0       3.479  -3.321 -10.328  0.00  0.00     0.317 C 
HETATM   24  O   UNK     0       4.497  -2.788 -10.827  0.00  0.00    -0.257 OA
BRANCH  23  25
HETATM   25  O   UNK     0       3.591  -4.427  -9.535  0.00  0.00    -0.297 OA
BRANCH  25  26
HETATM   26  C   UNK     0       4.254  -5.647  -9.890  0.00  0.00     0.152 C 
HETATM   27  C   UNK     0       4.621  -6.431  -8.618  0.00  0.00     0.035 C 
ENDBRANCH  25  26
ENDBRANCH  23  25
ENDBRANCH  20  23
ENDBRANCH  17  18
ENDBRANCH   2  17
TORSDOF 6
ENDMDL
MODEL 5
REMARK VINA RESULT:      -7.1      4.395     11.715
REMARK  6 active torsions:
REMARK  status: ('A' for Active; 'I' for Inactive)
REMARK    1  A    between atoms: C_9  and  N_13 
REMARK       I    between atoms: N_13  and  C_14 
REMARK    2  A    between atoms: C_14  and  C_17 
REMARK    3  A    between atoms: C_17  and  N_18 
REMARK    4  A    between atoms: C_20  and  C_23 
REMARK    5  A    between atoms: C_23  and  O_24 
REMARK    6  A    between atoms: O_24  and  C_26 
ROOT
HETATM    1  N   UNK     0      -2.651   3.650 -10.330  0.00  0.00    -0.205 NA
HETATM    2  C   UNK     0      -2.245   2.349 -10.217  0.00  0.00     0.281 C 
HETATM    3  O   UNK     0      -2.421   1.691  -9.162  0.00  0.00    -0.268 OA
ENDROOT
BRANCH   1   4
HETATM    4  C   UNK     0      -3.335   4.330  -9.400  0.00  0.00     0.146 C 
HETATM    5  C   UNK     0      -4.685   4.231  -9.351  0.00  0.00     0.162 C 
HETATM    6  C   UNK     0      -5.433   4.988  -8.436  0.00  0.00     0.217 C 
HETATM    7  N   UNK     0      -5.325   3.432 -10.195  0.00  0.00    -0.143 N 
HETATM    8  C   UNK     0      -4.785   5.956  -7.606  0.00  0.00     0.044 A 
HETATM    9  O   UNK     0      -6.675   4.823  -8.357  0.00  0.00    -0.285 OA
HETATM   10  C   UNK     0      -5.507   6.839  -6.767  0.00  0.00     0.003 A 
HETATM   11  C   UNK     0      -3.364   6.032  -7.631  0.00  0.00     0.044 A 
HETATM   12  C   UNK     0      -4.835   7.791  -5.980  0.00  0.00     0.000 A 
HETATM   13  C   UNK     0      -3.434   7.868  -6.012  0.00  0.00     0.000 A 
HETATM   14  C   UNK     0      -2.702   6.990  -6.826  0.00  0.00     0.003 A 
HETATM   15  C   UNK     0      -2.651   5.131  -8.472  0.00  0.00     0.215 C 
HETATM   16  O   UNK     0      -1.404   5.025  -8.360  0.00  0.00    -0.285 OA
ENDBRANCH   1   4
BRANCH   2  17
HETATM   17  C   UNK     0      -1.586   1.701 -11.367  0.00  0.00     0.219 C 
BRANCH  17  18
HETATM   18  N   UNK     0      -0.619   0.740 -10.944  0.00  0.00    -0.221 N 
HETATM   19  C   UNK     0      -0.581  -0.562 -11.269  0.00  0.00     0.124 A 
HETATM   20  C   UNK     0       0.515  -1.096 -10.604  0.00  0.00     0.186 A 
HETATM   21  N   UNK     0       1.069  -0.078  -9.928  0.00  0.00    -0.123 NA
HETATM   22  N   UNK     0       0.378   0.995 -10.152  0.00  0.00    -0.063 NA
BRANCH  20  23
HETATM   23  C   UNK     0       0.988  -2.417 -10.615  0.00  0.00     0.317 C 
HETATM   24  O   UNK     0       0.446  -3.249 -11.379  0.00  0.00    -0.257 OA
BRANCH  23  25
HETATM   25  O   UNK     0       2.016  -2.790  -9.798  0.00  0.00    -0.297 OA
BRANCH  25  26
HETATM   26  C   UNK     0       3.317  -3.210 -10.229  0.00  0.00     0.152 C 
HETATM   27  C   UNK     0       3.385  -4.746 -10.264  0.00  0.00     0.035 C 
ENDBRANCH  25  26
ENDBRANCH  23  25
ENDBRANCH  20  23
ENDBRANCH  17  18
ENDBRANCH   2  17
TORSDOF 6
ENDMDL
MODEL 6
REMARK VINA RESULT:      -7.1      2.065      9.326
REMARK  6 active torsions:
REMARK  status: ('A' for Active; 'I' for Inactive)
REMARK    1  A    between atoms: C_9  and  N_13 
REMARK       I    between atoms: N_13  and  C_14 
REMARK    2  A    between atoms: C_14  and  C_17 
REMARK    3  A    between atoms: C_17  and  N_18 
REMARK    4  A    between atoms: C_20  and  C_23 
REMARK    5  A    between atoms: C_23  and  O_24 
REMARK    6  A    between atoms: O_24  and  C_26 
ROOT
HETATM    1  N   UNK     0      -0.298  -1.102 -12.019  0.00  0.00    -0.205 NA
HETATM    2  C   UNK     0      -0.022  -2.131 -11.161  0.00  0.00     0.281 C 
HETATM    3  O   UNK     0      -0.299  -2.065  -9.939  0.00  0.00    -0.268 OA
ENDROOT
BRANCH   1   4
HETATM    4  C   UNK     0      -0.949   0.023 -11.693  0.00  0.00     0.146 C 
HETATM    5  C   UNK     0      -0.282   1.036 -11.090  0.00  0.00     0.162 C 
HETATM    6  C   UNK     0      -0.954   2.195 -10.672  0.00  0.00     0.217 C 
HETATM    7  N   UNK     0       1.020   0.932 -10.861  0.00  0.00    -0.143 N 
HETATM    8  C   UNK     0      -2.378   2.281 -10.784  0.00  0.00     0.044 A 
HETATM    9  O   UNK     0      -0.303   3.152 -10.186  0.00  0.00    -0.285 OA
HETATM   10  C   UNK     0      -3.115   3.367 -10.253  0.00  0.00     0.003 A 
HETATM   11  C   UNK     0      -3.071   1.232 -11.451  0.00  0.00     0.044 A 
HETATM   12  C   UNK     0      -4.516   3.405 -10.366  0.00  0.00     0.000 A 
HETATM   13  C   UNK     0      -5.198   2.367 -11.018  0.00  0.00     0.000 A 
HETATM   14  C   UNK     0      -4.481   1.290 -11.564  0.00  0.00     0.003 A 
HETATM   15  C   UNK     0      -2.316   0.151 -11.988  0.00  0.00     0.215 C 
HETATM   16  O   UNK     0      -2.866  -0.672 -12.761  0.00  0.00    -0.285 OA
ENDBRANCH   1   4
BRANCH   2  17
HETATM   17  C   UNK     0       0.614  -3.353 -11.689  0.00  0.00     0.219 C 
BRANCH  17  18
HETATM   18  N   UNK     0       1.824  -3.657 -10.993  0.00  0.00    -0.221 N 
HETATM   19  C   UNK     0       2.652  -4.687 -11.228  0.00  0.00     0.124 A 
HETATM   20  C   UNK     0       3.671  -4.586 -10.290  0.00  0.00     0.186 A 
HETATM   21  N   UNK     0       3.393  -3.498  -9.557  0.00  0.00    -0.123 NA
HETATM   22  N   UNK     0       2.296  -2.967  -9.999  0.00  0.00    -0.063 NA
BRANCH  20  23
HETATM   23  C   UNK     0       4.785  -5.421 -10.114  0.00  0.00     0.317 C 
HETATM   24  O   UNK     0       5.404  -5.827 -11.125  0.00  0.00    -0.257 OA
BRANCH  23  25
HETATM   25  O   UNK     0       5.181  -5.791  -8.862  0.00  0.00    -0.297 OA
BRANCH  25  26
HETATM   26  C   UNK     0       4.709  -6.936  -8.139  0.00  0.00     0.152 C 
HETATM   27  C   UNK     0       5.804  -8.014  -8.094  0.00  0.00     0.035 C 
ENDBRANCH  25  26
ENDBRANCH  23  25
ENDBRANCH  20  23
ENDBRANCH  17  18
ENDBRANCH   2  17
TORSDOF 6
ENDMDL
MODEL 7
REMARK VINA RESULT:      -7.1      2.324      3.498
REMARK  6 active torsions:
REMARK  status: ('A' for Active; 'I' for Inactive)
REMARK    1  A    between atoms: C_9  and  N_13 
REMARK       I    between atoms: N_13  and  C_14 
REMARK    2  A    between atoms: C_14  and  C_17 
REMARK    3  A    between atoms: C_17  and  N_18 
REMARK    4  A    between atoms: C_20  and  C_23 
REMARK    5  A    between atoms: C_23  and  O_24 
REMARK    6  A    between atoms: O_24  and  C_26 
ROOT
HETATM    1  N   UNK     0       0.180  -2.938 -11.737  0.00  0.00    -0.205 NA
HETATM    2  C   UNK     0       0.029  -1.680 -12.252  0.00  0.00     0.281 C 
HETATM    3  O   UNK     0       0.997  -1.043 -12.734  0.00  0.00    -0.268 OA
ENDROOT
BRANCH   1   4
HETATM    4  C   UNK     0       1.314  -3.652 -11.759  0.00  0.00     0.146 C 
HETATM    5  C   UNK     0       1.605  -4.418 -12.838  0.00  0.00     0.162 C 
HETATM    6  C   UNK     0       2.748  -5.232 -12.858  0.00  0.00     0.217 C 
HETATM    7  N   UNK     0       0.792  -4.429 -13.887  0.00  0.00    -0.143 N 
HETATM    8  C   UNK     0       3.572  -5.343 -11.694  0.00  0.00     0.044 A 
HETATM    9  O   UNK     0       3.039  -5.873 -13.897  0.00  0.00    -0.285 OA
HETATM   10  C   UNK     0       4.654  -6.253 -11.616  0.00  0.00     0.003 A 
HETATM   11  C   UNK     0       3.285  -4.511 -10.576  0.00  0.00     0.044 A 
HETATM   12  C   UNK     0       5.428  -6.347 -10.446  0.00  0.00     0.000 A 
HETATM   13  C   UNK     0       5.139  -5.529  -9.343  0.00  0.00     0.000 A 
HETATM   14  C   UNK     0       4.079  -4.612  -9.409  0.00  0.00     0.003 A 
HETATM   15  C   UNK     0       2.199  -3.594 -10.672  0.00  0.00     0.215 C 
HETATM   16  O   UNK     0       2.054  -2.704  -9.798  0.00  0.00    -0.285 OA
ENDBRANCH   1   4
BRANCH   2  17
HETATM   17  C   UNK     0      -1.309  -1.058 -12.245  0.00  0.00     0.219 C 
BRANCH  17  18
HETATM   18  N   UNK     0      -1.373   0.036 -11.328  0.00  0.00    -0.221 N 
HETATM   19  C   UNK     0      -2.102   1.155 -11.459  0.00  0.00     0.124 A 
HETATM   20  C   UNK     0      -1.823   1.932 -10.343  0.00  0.00     0.186 A 
HETATM   21  N   UNK     0      -0.950   1.226  -9.609  0.00  0.00    -0.123 NA
HETATM   22  N   UNK     0      -0.706   0.107 -10.217  0.00  0.00    -0.063 NA
BRANCH  20  23
HETATM   23  C   UNK     0      -2.332   3.195 -10.005  0.00  0.00     0.317 C 
HETATM   24  O   UNK     0      -3.530   3.455 -10.263  0.00  0.00    -0.257 OA
BRANCH  23  25
HETATM   25  O   UNK     0      -1.531   4.128  -9.413  0.00  0.00    -0.297 OA
BRANCH  25  26
HETATM   26  C   UNK     0      -1.959   5.396  -8.901  0.00  0.00     0.152 C 
HETATM   27  C   UNK     0      -0.805   6.070  -8.140  0.00  0.00     0.035 C 
ENDBRANCH  25  26
ENDBRANCH  23  25
ENDBRANCH  20  23
ENDBRANCH  17  18
ENDBRANCH   2  17
TORSDOF 6
ENDMDL
MODEL 8
REMARK VINA RESULT:      -7.0      5.319      8.313
REMARK  6 active torsions:
REMARK  status: ('A' for Active; 'I' for Inactive)
REMARK    1  A    between atoms: C_9  and  N_13 
REMARK       I    between atoms: N_13  and  C_14 
REMARK    2  A    between atoms: C_14  and  C_17 
REMARK    3  A    between atoms: C_17  and  N_18 
REMARK    4  A    between atoms: C_20  and  C_23 
REMARK    5  A    between atoms: C_23  and  O_24 
REMARK    6  A    between atoms: O_24  and  C_26 
ROOT
HETATM    1  N   UNK     0      -1.952   2.490 -11.312  0.00  0.00    -0.205 NA
HETATM    2  C   UNK     0      -2.567   2.838 -10.141  0.00  0.00     0.281 C 
HETATM    3  O   UNK     0      -2.714   2.017  -9.202  0.00  0.00    -0.268 OA
ENDROOT
BRANCH   1   4
HETATM    4  C   UNK     0      -1.377   1.306 -11.562  0.00  0.00     0.146 C 
HETATM    5  C   UNK     0      -2.013   0.402 -12.345  0.00  0.00     0.162 C 
HETATM    6  C   UNK     0      -1.469  -0.873 -12.563  0.00  0.00     0.217 C 
HETATM    7  N   UNK     0      -3.181   0.703 -12.897  0.00  0.00    -0.143 N 
HETATM    8  C   UNK     0      -0.280  -1.275 -11.877  0.00  0.00     0.044 A 
HETATM    9  O   UNK     0      -2.036  -1.666 -13.354  0.00  0.00    -0.285 OA
HETATM   10  C   UNK     0       0.232  -2.593 -11.956  0.00  0.00     0.003 A 
HETATM   11  C   UNK     0       0.406  -0.312 -11.085  0.00  0.00     0.044 A 
HETATM   12  C   UNK     0       1.393  -2.954 -11.250  0.00  0.00     0.000 A 
HETATM   13  C   UNK     0       2.063  -2.004 -10.464  0.00  0.00     0.000 A 
HETATM   14  C   UNK     0       1.578  -0.689 -10.387  0.00  0.00     0.003 A 
HETATM   15  C   UNK     0      -0.115   1.012 -11.022  0.00  0.00     0.215 C 
HETATM   16  O   UNK     0       0.573   1.932 -10.514  0.00  0.00    -0.285 OA
ENDBRANCH   1   4
BRANCH   2  17
HETATM   17  C   UNK     0      -3.066   4.217  -9.974  0.00  0.00     0.219 C 
BRANCH  17  18
HETATM   18  N   UNK     0      -2.400   4.889  -8.904  0.00  0.00    -0.221 N 
HETATM   19  C   UNK     0      -2.973   5.490  -7.850  0.00  0.00     0.124 A 
HETATM   20  C   UNK     0      -1.936   6.024  -7.097  0.00  0.00     0.186 A 
HETATM   21  N   UNK     0      -0.806   5.704  -7.745  0.00  0.00    -0.123 NA
HETATM   22  N   UNK     0      -1.113   5.029  -8.808  0.00  0.00    -0.063 NA
BRANCH  20  23
HETATM   23  C   UNK     0      -2.007   6.748  -5.897  0.00  0.00     0.317 C 
HETATM   24  O   UNK     0      -2.306   6.144  -4.841  0.00  0.00    -0.257 OA
BRANCH  23  25
HETATM   25  O   UNK     0      -1.764   8.091  -5.884  0.00  0.00    -0.297 OA
BRANCH  25  26
HETATM   26  C   UNK     0      -2.431   9.071  -6.690  0.00  0.00     0.152 C 
HETATM   27  C   UNK     0      -1.461   9.630  -7.744  0.00  0.00     0.035 C 
ENDBRANCH  25  26
ENDBRANCH  23  25
ENDBRANCH  20  23
ENDBRANCH  17  18
ENDBRANCH   2  17
TORSDOF 6
ENDMDL
MODEL 9
REMARK VINA RESULT:      -7.0      2.096      3.232
REMARK  6 active torsions:
REMARK  status: ('A' for Active; 'I' for Inactive)
REMARK    1  A    between atoms: C_9  and  N_13 
REMARK       I    between atoms: N_13  and  C_14 
REMARK    2  A    between atoms: C_14  and  C_17 
REMARK    3  A    between atoms: C_17  and  N_18 
REMARK    4  A    between atoms: C_20  and  C_23 
REMARK    5  A    between atoms: C_23  and  O_24 
REMARK    6  A    between atoms: O_24  and  C_26 
ROOT
HETATM    1  N   UNK     0       2.332  -2.586 -12.305  0.00  0.00    -0.205 NA
HETATM    2  C   UNK     0       1.031  -2.204 -12.128  0.00  0.00     0.281 C 
HETATM    3  O   UNK     0       0.192  -2.953 -11.571  0.00  0.00    -0.268 OA
ENDROOT
BRANCH   1   4
HETATM    4  C   UNK     0       2.872  -3.725 -11.849  0.00  0.00     0.146 C 
HETATM    5  C   UNK     0       3.340  -3.786 -10.580  0.00  0.00     0.162 C 
HETATM    6  C   UNK     0       3.977  -4.941 -10.100  0.00  0.00     0.217 C 
HETATM    7  N   UNK     0       3.227  -2.736  -9.776  0.00  0.00    -0.143 N 
HETATM    8  C   UNK     0       4.233  -6.040 -10.980  0.00  0.00     0.044 A 
HETATM    9  O   UNK     0       4.333  -5.003  -8.898  0.00  0.00    -0.285 OA
HETATM   10  C   UNK     0       4.990  -7.168 -10.583  0.00  0.00     0.003 A 
HETATM   11  C   UNK     0       3.708  -5.988 -12.302  0.00  0.00     0.044 A 
HETATM   12  C   UNK     0       5.237  -8.218 -11.484  0.00  0.00     0.000 A 
HETATM   13  C   UNK     0       4.723  -8.162 -12.789  0.00  0.00     0.000 A 
HETATM   14  C   UNK     0       3.958  -7.058 -13.194  0.00  0.00     0.003 A 
HETATM   15  C   UNK     0       2.939  -4.851 -12.684  0.00  0.00     0.215 C 
HETATM   16  O   UNK     0       2.287  -4.870 -13.758  0.00  0.00    -0.285 OA
ENDBRANCH   1   4
BRANCH   2  17
HETATM   17  C   UNK     0       0.604  -0.872 -12.600  0.00  0.00     0.219 C 
BRANCH  17  18
HETATM   18  N   UNK     0       0.001  -0.113 -11.551  0.00  0.00    -0.221 N 
HETATM   19  C   UNK     0      -1.219   0.446 -11.560  0.00  0.00     0.124 A 
HETATM   20  C   UNK     0      -1.355   1.099 -10.343  0.00  0.00     0.186 A 
HETATM   21  N   UNK     0      -0.210   0.885  -9.678  0.00  0.00    -0.123 NA
HETATM   22  N   UNK     0       0.571   0.162 -10.417  0.00  0.00    -0.063 NA
BRANCH  20  23
HETATM   23  C   UNK     0      -2.448   1.836  -9.861  0.00  0.00     0.317 C 
HETATM   24  O   UNK     0      -3.606   1.402 -10.061  0.00  0.00    -0.257 OA
BRANCH  23  25
HETATM   25  O   UNK     0      -2.251   3.010  -9.195  0.00  0.00    -0.297 OA
BRANCH  25  26
HETATM   26  C   UNK     0      -2.932   4.245  -9.453  0.00  0.00     0.152 C 
HETATM   27  C   UNK     0      -2.423   5.334  -8.495  0.00  0.00     0.035 C 
ENDBRANCH  25  26
ENDBRANCH  23  25
ENDBRANCH  20  23
ENDBRANCH  17  18
ENDBRANCH   2  17
TORSDOF 6
ENDMDL
