MODEL 1
REMARK VINA RESULT:      -6.0      0.000      0.000
REMARK  6 active torsions:
REMARK  status: ('A' for Active; 'I' for Inactive)
REMARK    1  A    between atoms: C_9  and  N_13 
REMARK       I    between atoms: N_13  and  C_14 
REMARK    2  A    between atoms: C_14  and  C_17 
REMARK    3  A    between atoms: C_17  and  N_18 
REMARK    4  A    between atoms: C_20  and  C_23 
REMARK    5  A    between atoms: C_23  and  C_25 
REMARK    6  A    between atoms: C_25  and  C_26 
ROOT
HETATM    1  N   UNK     0       5.992  -6.884  -2.538  0.00  0.00    -0.205 NA
HETATM    2  C   UNK     0       5.487  -8.033  -2.000  0.00  0.00     0.281 C 
HETATM    3  O   UNK     0       5.437  -8.077  -0.750  0.00  0.00    -0.268 OA
ENDROOT
BRANCH   1   4
HETATM    4  C   UNK     0       6.136  -6.633  -3.843  0.00  0.00     0.146 C 
HETATM    5  C   UNK     0       5.301  -5.755  -4.448  0.00  0.00     0.162 C 
HETATM    6  C   UNK     0       5.350  -5.574  -5.841  0.00  0.00     0.217 C 
HETATM    7  N   UNK     0       4.398  -5.086  -3.732  0.00  0.00    -0.143 N 
HETATM    8  C   UNK     0       6.145  -6.452  -6.649  0.00  0.00     0.044 A 
HETATM    9  O   UNK     0       4.654  -4.680  -6.381  0.00  0.00    -0.285 OA
HETATM   10  C   UNK     0       6.046  -6.482  -8.063  0.00  0.00     0.003 A 
HETATM   11  C   UNK     0       7.041  -7.348  -5.998  0.00  0.00     0.044 A 
HETATM   12  C   UNK     0       6.787  -7.413  -8.811  0.00  0.00     0.000 A 
HETATM   13  C   UNK     0       7.650  -8.313  -8.163  0.00  0.00     0.000 A 
HETATM   14  C   UNK     0       7.786  -8.276  -6.764  0.00  0.00     0.003 A 
HETATM   15  C   UNK     0       7.127  -7.302  -4.577  0.00  0.00     0.215 C 
HETATM   16  O   UNK     0       8.070  -7.871  -3.975  0.00  0.00    -0.285 OA
ENDBRANCH   1   4
BRANCH   2  17
HETATM   17  C   UNK     0       4.968  -9.209  -2.747  0.00  0.00     0.219 C 
BRANCH  17  18
HETATM   18  N   UNK     0       3.850  -8.860  -3.563  0.00  0.00    -0.221 N 
HETATM   19  C   UNK     0       3.685  -9.153  -4.864  0.00  0.00     0.114 A 
HETATM   20  C   UNK     0       2.464  -8.609  -5.235  0.00  0.00     0.101 A 
HETATM   21  N   UNK     0       1.964  -8.039  -4.126  0.00  0.00    -0.133 NA
HETATM   22  N   UNK     0       2.806  -8.208  -3.154  0.00  0.00    -0.064 NA
BRANCH  20  23
HETATM   23  C   UNK     0       1.839  -8.609  -6.584  0.00  0.00     0.044 C 
HETATM   24  C   UNK     0       0.359  -8.148  -6.494  0.00  0.00     0.006 C 
BRANCH  23  25
HETATM   25  C   UNK     0       2.643  -7.735  -7.598  0.00  0.00     0.006 C 
BRANCH  25  26
HETATM   26  C   UNK     0       3.082  -8.510  -8.873  0.00  0.00     0.000 C 
HETATM   27  C   UNK     0       3.960  -9.742  -8.568  0.00  0.00     0.000 C 
ENDBRANCH  25  26
ENDBRANCH  23  25
ENDBRANCH  20  23
ENDBRANCH  17  18
ENDBRANCH   2  17
TORSDOF 6
ENDMDL
MODEL 2
REMARK VINA RESULT:      -5.9      2.772      5.216
REMARK  6 active torsions:
REMARK  status: ('A' for Active; 'I' for Inactive)
REMARK    1  A    between atoms: C_9  and  N_13 
REMARK       I    between atoms: N_13  and  C_14 
REMARK    2  A    between atoms: C_14  and  C_17 
REMARK    3  A    between atoms: C_17  and  N_18 
REMARK    4  A    between atoms: C_20  and  C_23 
REMARK    5  A    between atoms: C_23  and  C_25 
REMARK    6  A    between atoms: C_25  and  C_26 
ROOT
HETATM    1  N   UNK     0       4.108  -7.565  -3.317  0.00  0.00    -0.205 NA
HETATM    2  C   UNK     0       3.779  -6.240  -3.305  0.00  0.00     0.281 C 
HETATM    3  O   UNK     0       2.560  -5.979  -3.180  0.00  0.00    -0.268 OA
ENDROOT
BRANCH   1   4
HETATM    4  C   UNK     0       5.344  -8.059  -3.444  0.00  0.00     0.146 C 
HETATM    5  C   UNK     0       6.102  -8.248  -2.337  0.00  0.00     0.162 C 
HETATM    6  C   UNK     0       7.445  -8.642  -2.457  0.00  0.00     0.217 C 
HETATM    7  N   UNK     0       5.590  -8.023  -1.128  0.00  0.00    -0.143 N 
HETATM    8  C   UNK     0       8.074  -8.659  -3.746  0.00  0.00     0.044 A 
HETATM    9  O   UNK     0       8.108  -8.925  -1.429  0.00  0.00    -0.285 OA
HETATM   10  C   UNK     0       9.475  -8.805  -3.906  0.00  0.00     0.003 A 
HETATM   11  C   UNK     0       7.259  -8.488  -4.901  0.00  0.00     0.044 A 
HETATM   12  C   UNK     0      10.059  -8.737  -5.183  0.00  0.00     0.000 A 
HETATM   13  C   UNK     0       9.254  -8.542  -6.318  0.00  0.00     0.000 A 
HETATM   14  C   UNK     0       7.859  -8.428  -6.181  0.00  0.00     0.003 A 
HETATM   15  C   UNK     0       5.853  -8.345  -4.719  0.00  0.00     0.215 C 
HETATM   16  O   UNK     0       5.069  -8.453  -5.693  0.00  0.00    -0.285 OA
ENDBRANCH   1   4
BRANCH   2  17
HETATM   17  C   UNK     0       4.717  -5.091  -3.394  0.00  0.00     0.219 C 
BRANCH  17  18
HETATM   18  N   UNK     0       5.320  -5.007  -4.686  0.00  0.00    -0.221 N 
HETATM   19  C   UNK     0       6.630  -4.870  -4.952  0.00  0.00     0.114 A 
HETATM   20  C   UNK     0       6.746  -4.824  -6.334  0.00  0.00     0.101 A 
HETATM   21  N   UNK     0       5.497  -4.957  -6.811  0.00  0.00    -0.133 NA
HETATM   22  N   UNK     0       4.677  -5.066  -5.812  0.00  0.00    -0.064 NA
BRANCH  20  23
HETATM   23  C   UNK     0       7.980  -4.630  -7.138  0.00  0.00     0.044 C 
HETATM   24  C   UNK     0       7.963  -3.237  -7.826  0.00  0.00     0.006 C 
BRANCH  23  25
HETATM   25  C   UNK     0       9.271  -4.819  -6.279  0.00  0.00     0.006 C 
BRANCH  25  26
HETATM   26  C   UNK     0      10.542  -5.110  -7.126  0.00  0.00     0.000 C 
HETATM   27  C   UNK     0      11.754  -5.551  -6.278  0.00  0.00     0.000 C 
ENDBRANCH  25  26
ENDBRANCH  23  25
ENDBRANCH  20  23
ENDBRANCH  17  18
ENDBRANCH   2  17
TORSDOF 6
ENDMDL
MODEL 3
REMARK VINA RESULT:      -5.8     10.980     13.325
REMARK  6 active torsions:
REMARK  status: ('A' for Active; 'I' for Inactive)
REMARK    1  A    between atoms: C_9  and  N_13 
REMARK       I    between atoms: N_13  and  C_14 
REMARK    2  A    between atoms: C_14  and  C_17 
REMARK    3  A    between atoms: C_17  and  N_18 
REMARK    4  A    between atoms: C_20  and  C_23 
REMARK    5  A    between atoms: C_23  and  C_25 
REMARK    6  A    between atoms: C_25  and  C_26 
ROOT
HETATM    1  N   UNK     0      -5.451   0.094 -10.600  0.00  0.00    -0.205 NA
HETATM    2  C   UNK     0      -4.634  -0.173 -11.661  0.00  0.00     0.281 C 
HETATM    3  O   UNK     0      -4.856   0.485 -12.703  0.00  0.00    -0.268 OA
ENDROOT
BRANCH   1   4
HETATM    4  C   UNK     0      -5.388  -0.495  -9.402  0.00  0.00     0.146 C 
HETATM    5  C   UNK     0      -6.128  -1.604  -9.164  0.00  0.00     0.162 C 
HETATM    6  C   UNK     0      -6.176  -2.162  -7.876  0.00  0.00     0.217 C 
HETATM    7  N   UNK     0      -6.849  -2.151 -10.143  0.00  0.00    -0.143 N 
HETATM    8  C   UNK     0      -5.601  -1.455  -6.768  0.00  0.00     0.044 A 
HETATM    9  O   UNK     0      -6.771  -3.251  -7.688  0.00  0.00    -0.285 OA
HETATM   10  C   UNK     0      -5.830  -1.838  -5.422  0.00  0.00     0.003 A 
HETATM   11  C   UNK     0      -4.801  -0.309  -7.036  0.00  0.00     0.044 A 
HETATM   12  C   UNK     0      -5.312  -1.071  -4.364  0.00  0.00     0.000 A 
HETATM   13  C   UNK     0      -4.544   0.075  -4.633  0.00  0.00     0.000 A 
HETATM   14  C   UNK     0      -4.280   0.451  -5.962  0.00  0.00     0.003 A 
HETATM   15  C   UNK     0      -4.581   0.058  -8.395  0.00  0.00     0.215 C 
HETATM   16  O   UNK     0      -3.688   0.886  -8.698  0.00  0.00    -0.285 OA
ENDBRANCH   1   4
BRANCH   2  17
HETATM   17  C   UNK     0      -3.501  -1.135 -11.690  0.00  0.00     0.219 C 
BRANCH  17  18
HETATM   18  N   UNK     0      -2.248  -0.474 -11.517  0.00  0.00    -0.221 N 
HETATM   19  C   UNK     0      -1.060  -1.056 -11.277  0.00  0.00     0.114 A 
HETATM   20  C   UNK     0      -0.135  -0.027 -11.174  0.00  0.00     0.101 A 
HETATM   21  N   UNK     0      -0.824   1.108 -11.378  0.00  0.00    -0.133 NA
HETATM   22  N   UNK     0      -2.070   0.810 -11.581  0.00  0.00    -0.064 NA
BRANCH  20  23
HETATM   23  C   UNK     0       1.314  -0.135 -10.862  0.00  0.00     0.044 C 
HETATM   24  C   UNK     0       2.161   0.122 -12.139  0.00  0.00     0.006 C 
BRANCH  23  25
HETATM   25  C   UNK     0       1.734   0.824  -9.704  0.00  0.00     0.006 C 
BRANCH  25  26
HETATM   26  C   UNK     0       2.246   2.207 -10.199  0.00  0.00     0.000 C 
HETATM   27  C   UNK     0       2.534   3.199  -9.052  0.00  0.00     0.000 C 
ENDBRANCH  25  26
ENDBRANCH  23  25
ENDBRANCH  20  23
ENDBRANCH  17  18
ENDBRANCH   2  17
TORSDOF 6
ENDMDL
MODEL 4
REMARK VINA RESULT:      -5.8      1.791      2.306
REMARK  6 active torsions:
REMARK  status: ('A' for Active; 'I' for Inactive)
REMARK    1  A    between atoms: C_9  and  N_13 
REMARK       I    between atoms: N_13  and  C_14 
REMARK    2  A    between atoms: C_14  and  C_17 
REMARK    3  A    between atoms: C_17  and  N_18 
REMARK    4  A    between atoms: C_20  and  C_23 
REMARK    5  A    between atoms: C_23  and  C_25 
REMARK    6  A    between atoms: C_25  and  C_26 
ROOT
HETATM    1  N   UNK     0       6.692  -5.961  -3.730  0.00  0.00    -0.205 NA
HETATM    2  C   UNK     0       5.560  -5.352  -3.268  0.00  0.00     0.281 C 
HETATM    3  O   UNK     0       5.601  -4.945  -2.085  0.00  0.00    -0.268 OA
ENDROOT
BRANCH   1   4
HETATM    4  C   UNK     0       6.858  -6.467  -4.956  0.00  0.00     0.146 C 
HETATM    5  C   UNK     0       7.246  -5.653  -5.967  0.00  0.00     0.162 C 
HETATM    6  C   UNK     0       7.300  -6.136  -7.285  0.00  0.00     0.217 C 
HETATM    7  N   UNK     0       7.538  -4.376  -5.724  0.00  0.00    -0.143 N 
HETATM    8  C   UNK     0       6.766  -7.430  -7.596  0.00  0.00     0.044 A 
HETATM    9  O   UNK     0       7.767  -5.411  -8.198  0.00  0.00    -0.285 OA
HETATM   10  C   UNK     0       6.567  -7.869  -8.930  0.00  0.00     0.003 A 
HETATM   11  C   UNK     0       6.392  -8.286  -6.522  0.00  0.00     0.044 A 
HETATM   12  C   UNK     0       5.967  -9.113  -9.190  0.00  0.00     0.000 A 
HETATM   13  C   UNK     0       5.576  -9.944  -8.126  0.00  0.00     0.000 A 
HETATM   14  C   UNK     0       5.795  -9.539  -6.797  0.00  0.00     0.003 A 
HETATM   15  C   UNK     0       6.601  -7.827  -5.189  0.00  0.00     0.215 C 
HETATM   16  O   UNK     0       6.538  -8.623  -4.222  0.00  0.00    -0.285 OA
ENDBRANCH   1   4
BRANCH   2  17
HETATM   17  C   UNK     0       4.311  -5.102  -4.034  0.00  0.00     0.219 C 
BRANCH  17  18
HETATM   18  N   UNK     0       3.522  -6.287  -4.150  0.00  0.00    -0.221 N 
HETATM   19  C   UNK     0       3.321  -7.011  -5.264  0.00  0.00     0.114 A 
HETATM   20  C   UNK     0       2.487  -8.059  -4.903  0.00  0.00     0.101 A 
HETATM   21  N   UNK     0       2.255  -7.908  -3.589  0.00  0.00    -0.133 NA
HETATM   22  N   UNK     0       2.884  -6.853  -3.172  0.00  0.00    -0.064 NA
BRANCH  20  23
HETATM   23  C   UNK     0       1.923  -9.117  -5.782  0.00  0.00     0.044 C 
HETATM   24  C   UNK     0       0.933 -10.010  -4.985  0.00  0.00     0.006 C 
BRANCH  23  25
HETATM   25  C   UNK     0       1.243  -8.516  -7.054  0.00  0.00     0.006 C 
BRANCH  25  26
HETATM   26  C   UNK     0       2.081  -8.701  -8.350  0.00  0.00     0.000 C 
HETATM   27  C   UNK     0       2.802  -7.414  -8.803  0.00  0.00     0.000 C 
ENDBRANCH  25  26
ENDBRANCH  23  25
ENDBRANCH  20  23
ENDBRANCH  17  18
ENDBRANCH   2  17
TORSDOF 6
ENDMDL
MODEL 5
REMARK VINA RESULT:      -5.7      3.771      7.419
REMARK  6 active torsions:
REMARK  status: ('A' for Active; 'I' for Inactive)
REMARK    1  A    between atoms: C_9  and  N_13 
REMARK       I    between atoms: N_13  and  C_14 
REMARK    2  A    between atoms: C_14  and  C_17 
REMARK    3  A    between atoms: C_17  and  N_18 
REMARK    4  A    between atoms: C_20  and  C_23 
REMARK    5  A    between atoms: C_23  and  C_25 
REMARK    6  A    between atoms: C_25  and  C_26 
ROOT
HETATM    1  N   UNK     0       1.506 -10.323  -7.017  0.00  0.00    -0.205 NA
HETATM    2  C   UNK     0       2.567 -10.587  -6.199  0.00  0.00     0.281 C 
HETATM    3  O   UNK     0       3.685 -10.659  -6.757  0.00  0.00    -0.268 OA
ENDROOT
BRANCH   1   4
HETATM    4  C   UNK     0       0.233 -10.208  -6.628  0.00  0.00     0.146 C 
HETATM    5  C   UNK     0      -0.276  -8.980  -6.366  0.00  0.00     0.162 C 
HETATM    6  C   UNK     0      -1.569  -8.847  -5.833  0.00  0.00     0.217 C 
HETATM    7  N   UNK     0       0.463  -7.891  -6.574  0.00  0.00    -0.143 N 
HETATM    8  C   UNK     0      -2.281 -10.008  -5.384  0.00  0.00     0.044 A 
HETATM    9  O   UNK     0      -2.076  -7.706  -5.698  0.00  0.00    -0.285 OA
HETATM   10  C   UNK     0      -3.471  -9.921  -4.619  0.00  0.00     0.003 A 
HETATM   11  C   UNK     0      -1.749 -11.292  -5.695  0.00  0.00     0.044 A 
HETATM   12  C   UNK     0      -4.095 -11.083  -4.133  0.00  0.00     0.000 A 
HETATM   13  C   UNK     0      -3.552 -12.348  -4.419  0.00  0.00     0.000 A 
HETATM   14  C   UNK     0      -2.390 -12.455  -5.204  0.00  0.00     0.003 A 
HETATM   15  C   UNK     0      -0.554 -11.359  -6.466  0.00  0.00     0.215 C 
HETATM   16  O   UNK     0      -0.187 -12.441  -6.985  0.00  0.00    -0.285 OA
ENDBRANCH   1   4
BRANCH   2  17
HETATM   17  C   UNK     0       2.527 -10.764  -4.723  0.00  0.00     0.219 C 
BRANCH  17  18
HETATM   18  N   UNK     0       2.819  -9.544  -4.041  0.00  0.00    -0.221 N 
HETATM   19  C   UNK     0       4.030  -9.121  -3.639  0.00  0.00     0.114 A 
HETATM   20  C   UNK     0       3.828  -7.897  -3.018  0.00  0.00     0.101 A 
HETATM   21  N   UNK     0       2.510  -7.653  -3.104  0.00  0.00    -0.133 NA
HETATM   22  N   UNK     0       1.942  -8.645  -3.718  0.00  0.00    -0.064 NA
BRANCH  20  23
HETATM   23  C   UNK     0       4.842  -7.036  -2.353  0.00  0.00     0.044 C 
HETATM   24  C   UNK     0       5.746  -7.889  -1.420  0.00  0.00     0.006 C 
BRANCH  23  25
HETATM   25  C   UNK     0       5.694  -6.235  -3.388  0.00  0.00     0.006 C 
BRANCH  25  26
HETATM   26  C   UNK     0       4.926  -5.047  -4.035  0.00  0.00     0.000 C 
HETATM   27  C   UNK     0       4.617  -5.262  -5.532  0.00  0.00     0.000 C 
ENDBRANCH  25  26
ENDBRANCH  23  25
ENDBRANCH  20  23
ENDBRANCH  17  18
ENDBRANCH   2  17
TORSDOF 6
ENDMDL
MODEL 6
REMARK VINA RESULT:      -5.7      2.285      4.781
REMARK  6 active torsions:
REMARK  status: ('A' for Active; 'I' for Inactive)
REMARK    1  A    between atoms: C_9  and  N_13 
REMARK       I    between atoms: N_13  and  C_14 
REMARK    2  A    between atoms: C_14  and  C_17 
REMARK    3  A    between atoms: C_17  and  N_18 
REMARK    4  A    between atoms: C_20  and  C_23 
REMARK    5  A    between atoms: C_23  and  C_25 
REMARK    6  A    between atoms: C_25  and  C_26 
ROOT
HETATM    1  N   UNK     0       4.621  -5.240  -3.572  0.00  0.00    -0.205 NA
HETATM    2  C   UNK     0       5.722  -5.618  -2.860  0.00  0.00     0.281 C 
HETATM    3  O   UNK     0       6.160  -4.778  -2.041  0.00  0.00    -0.268 OA
ENDROOT
BRANCH   1   4
HETATM    4  C   UNK     0       3.999  -5.981  -4.495  0.00  0.00     0.146 C 
HETATM    5  C   UNK     0       3.093  -6.909  -4.105  0.00  0.00     0.162 C 
HETATM    6  C   UNK     0       2.526  -7.785  -5.045  0.00  0.00     0.217 C 
HETATM    7  N   UNK     0       2.764  -7.025  -2.819  0.00  0.00    -0.143 N 
HETATM    8  C   UNK     0       3.041  -7.831  -6.383  0.00  0.00     0.044 A 
HETATM    9  O   UNK     0       1.605  -8.565  -4.698  0.00  0.00    -0.285 OA
HETATM   10  C   UNK     0       2.685  -8.852  -7.300  0.00  0.00     0.003 A 
HETATM   11  C   UNK     0       3.969  -6.830  -6.787  0.00  0.00     0.044 A 
HETATM   12  C   UNK     0       3.274  -8.904  -8.575  0.00  0.00     0.000 A 
HETATM   13  C   UNK     0       4.210  -7.929  -8.961  0.00  0.00     0.000 A 
HETATM   14  C   UNK     0       4.550  -6.890  -8.076  0.00  0.00     0.003 A 
HETATM   15  C   UNK     0       4.313  -5.811  -5.852  0.00  0.00     0.215 C 
HETATM   16  O   UNK     0       4.911  -4.774  -6.228  0.00  0.00    -0.285 OA
ENDBRANCH   1   4
BRANCH   2  17
HETATM   17  C   UNK     0       6.427  -6.925  -2.940  0.00  0.00     0.219 C 
BRANCH  17  18
HETATM   18  N   UNK     0       6.926  -7.171  -4.255  0.00  0.00    -0.221 N 
HETATM   19  C   UNK     0       7.645  -6.323  -5.011  0.00  0.00     0.114 A 
HETATM   20  C   UNK     0       7.896  -6.983  -6.205  0.00  0.00     0.101 A 
HETATM   21  N   UNK     0       7.328  -8.194  -6.082  0.00  0.00    -0.133 NA
HETATM   22  N   UNK     0       6.765  -8.275  -4.917  0.00  0.00    -0.064 NA
BRANCH  20  23
HETATM   23  C   UNK     0       8.609  -6.461  -7.400  0.00  0.00     0.044 C 
HETATM   24  C   UNK     0       8.720  -7.564  -8.488  0.00  0.00     0.006 C 
BRANCH  23  25
HETATM   25  C   UNK     0       7.930  -5.174  -7.968  0.00  0.00     0.006 C 
BRANCH  25  26
HETATM   26  C   UNK     0       8.694  -3.865  -7.620  0.00  0.00     0.000 C 
HETATM   27  C   UNK     0      10.126  -4.112  -7.100  0.00  0.00     0.000 C 
ENDBRANCH  25  26
ENDBRANCH  23  25
ENDBRANCH  20  23
ENDBRANCH  17  18
ENDBRANCH   2  17
TORSDOF 6
ENDMDL
MODEL 7
REMARK VINA RESULT:      -5.6      2.130      3.067
REMARK  6 active torsions:
REMARK  status: ('A' for Active; 'I' for Inactive)
REMARK    1  A    between atoms: C_9  and  N_13 
REMARK       I    between atoms: N_13  and  C_14 
REMARK    2  A    between atoms: C_14  and  C_17 
REMARK    3  A    between atoms: C_17  and  N_18 
REMARK    4  A    between atoms: C_20  and  C_23 
REMARK    5  A    between atoms: C_23  and  C_25 
REMARK    6  A    between atoms: C_25  and  C_26 
ROOT
HETATM    1  N   UNK     0       6.539  -6.857  -3.639  0.00  0.00    -0.205 NA
HETATM    2  C   UNK     0       5.396  -6.632  -2.927  0.00  0.00     0.281 C 
HETATM    3  O   UNK     0       5.421  -6.986  -1.726  0.00  0.00    -0.268 OA
ENDROOT
BRANCH   1   4
HETATM    4  C   UNK     0       6.723  -6.560  -4.930  0.00  0.00     0.146 C 
HETATM    5  C   UNK     0       6.578  -7.529  -5.864  0.00  0.00     0.162 C 
HETATM    6  C   UNK     0       6.892  -7.271  -7.209  0.00  0.00     0.217 C 
HETATM    7  N   UNK     0       6.174  -8.748  -5.508  0.00  0.00    -0.143 N 
HETATM    8  C   UNK     0       7.548  -6.047  -7.568  0.00  0.00     0.044 A 
HETATM    9  O   UNK     0       6.649  -8.136  -8.086  0.00  0.00    -0.285 OA
HETATM   10  C   UNK     0       8.109  -5.834  -8.853  0.00  0.00     0.003 A 
HETATM   11  C   UNK     0       7.666  -5.026  -6.583  0.00  0.00     0.044 A 
HETATM   12  C   UNK     0       8.812  -4.651  -9.138  0.00  0.00     0.000 A 
HETATM   13  C   UNK     0       8.949  -3.656  -8.155  0.00  0.00     0.000 A 
HETATM   14  C   UNK     0       8.371  -3.836  -6.885  0.00  0.00     0.003 A 
HETATM   15  C   UNK     0       7.094  -5.258  -5.299  0.00  0.00     0.215 C 
HETATM   16  O   UNK     0       6.938  -4.313  -4.489  0.00  0.00    -0.285 OA
ENDBRANCH   1   4
BRANCH   2  17
HETATM   17  C   UNK     0       4.152  -5.989  -3.424  0.00  0.00     0.219 C 
BRANCH  17  18
HETATM   18  N   UNK     0       3.226  -6.957  -3.923  0.00  0.00    -0.221 N 
HETATM   19  C   UNK     0       3.029  -7.288  -5.210  0.00  0.00     0.114 A 
HETATM   20  C   UNK     0       2.036  -8.257  -5.216  0.00  0.00     0.101 A 
HETATM   21  N   UNK     0       1.714  -8.460  -3.927  0.00  0.00    -0.133 NA
HETATM   22  N   UNK     0       2.438  -7.678  -3.188  0.00  0.00    -0.064 NA
BRANCH  20  23
HETATM   23  C   UNK     0       1.415  -8.917  -6.394  0.00  0.00     0.044 C 
HETATM   24  C   UNK     0       1.222 -10.435  -6.123  0.00  0.00     0.006 C 
BRANCH  23  25
HETATM   25  C   UNK     0       0.068  -8.239  -6.799  0.00  0.00     0.006 C 
BRANCH  25  26
HETATM   26  C   UNK     0      -1.164  -9.178  -6.662  0.00  0.00     0.000 C 
HETATM   27  C   UNK     0      -2.085  -8.813  -5.479  0.00  0.00     0.000 C 
ENDBRANCH  25  26
ENDBRANCH  23  25
ENDBRANCH  20  23
ENDBRANCH  17  18
ENDBRANCH   2  17
TORSDOF 6
ENDMDL
MODEL 8
REMARK VINA RESULT:      -5.6     12.255     15.315
REMARK  6 active torsions:
REMARK  status: ('A' for Active; 'I' for Inactive)
REMARK    1  A    between atoms: C_9  and  N_13 
REMARK       I    between atoms: N_13  and  C_14 
REMARK    2  A    between atoms: C_14  and  C_17 
REMARK    3  A    between atoms: C_17  and  N_18 
REMARK    4  A    between atoms: C_20  and  C_23 
REMARK    5  A    between atoms: C_23  and  C_25 
REMARK    6  A    between atoms: C_25  and  C_26 
ROOT
HETATM    1  N   UNK     0      -0.347  -8.615   5.812  0.00  0.00    -0.205 NA
HETATM    2  C   UNK     0      -0.761  -7.315   5.771  0.00  0.00     0.281 C 
HETATM    3  O   UNK     0       0.124  -6.451   5.968  0.00  0.00    -0.268 OA
ENDROOT
BRANCH   1   4
HETATM    4  C   UNK     0      -1.127  -9.686   5.633  0.00  0.00     0.146 C 
HETATM    5  C   UNK     0      -1.059 -10.373   4.467  0.00  0.00     0.162 C 
HETATM    6  C   UNK     0      -1.959 -11.419   4.207  0.00  0.00     0.217 C 
HETATM    7  N   UNK     0      -0.164 -10.032   3.541  0.00  0.00    -0.143 N 
HETATM    8  C   UNK     0      -3.072 -11.641   5.084  0.00  0.00     0.044 A 
HETATM    9  O   UNK     0      -1.819 -12.124   3.177  0.00  0.00    -0.285 OA
HETATM   10  C   UNK     0      -4.142 -12.509   4.750  0.00  0.00     0.003 A 
HETATM   11  C   UNK     0      -3.113 -10.935   6.320  0.00  0.00     0.044 A 
HETATM   12  C   UNK     0      -5.251 -12.637   5.603  0.00  0.00     0.000 A 
HETATM   13  C   UNK     0      -5.300 -11.918   6.810  0.00  0.00     0.000 A 
HETATM   14  C   UNK     0      -4.233 -11.078   7.173  0.00  0.00     0.003 A 
HETATM   15  C   UNK     0      -2.028 -10.069   6.638  0.00  0.00     0.215 C 
HETATM   16  O   UNK     0      -1.882  -9.630   7.805  0.00  0.00    -0.285 OA
ENDBRANCH   1   4
BRANCH   2  17
HETATM   17  C   UNK     0      -2.138  -6.829   5.490  0.00  0.00     0.219 C 
BRANCH  17  18
HETATM   18  N   UNK     0      -2.531  -5.809   6.409  0.00  0.00    -0.221 N 
HETATM   19  C   UNK     0      -2.959  -5.988   7.670  0.00  0.00     0.114 A 
HETATM   20  C   UNK     0      -3.233  -4.724   8.172  0.00  0.00     0.101 A 
HETATM   21  N   UNK     0      -2.933  -3.864   7.185  0.00  0.00    -0.133 NA
HETATM   22  N   UNK     0      -2.517  -4.536   6.157  0.00  0.00    -0.064 NA
BRANCH  20  23
HETATM   23  C   UNK     0      -3.784  -4.375   9.508  0.00  0.00     0.044 C 
HETATM   24  C   UNK     0      -4.829  -5.435   9.954  0.00  0.00     0.006 C 
BRANCH  23  25
HETATM   25  C   UNK     0      -2.657  -4.208  10.576  0.00  0.00     0.006 C 
BRANCH  25  26
HETATM   26  C   UNK     0      -2.377  -5.504  11.389  0.00  0.00     0.000 C 
HETATM   27  C   UNK     0      -1.043  -6.185  11.014  0.00  0.00     0.000 C 
ENDBRANCH  25  26
ENDBRANCH  23  25
ENDBRANCH  20  23
ENDBRANCH  17  18
ENDBRANCH   2  17
TORSDOF 6
ENDMDL
MODEL 9
REMARK VINA RESULT:      -5.5      2.051      4.083
REMARK  6 active torsions:
REMARK  status: ('A' for Active; 'I' for Inactive)
REMARK    1  A    between atoms: C_9  and  N_13 
REMARK       I    between atoms: N_13  and  C_14 
REMARK    2  A    between atoms: C_14  and  C_17 
REMARK    3  A    between atoms: C_17  and  N_18 
REMARK    4  A    between atoms: C_20  and  C_23 
REMARK    5  A    between atoms: C_23  and  C_25 
REMARK    6  A    between atoms: C_25  and  C_26 
ROOT
HETATM    1  N   UNK     0       4.715  -5.163  -3.613  0.00  0.00    -0.205 NA
HETATM    2  C   UNK     0       5.718  -5.595  -2.792  0.00  0.00     0.281 C 
HETATM    3  O   UNK     0       6.187  -4.742  -2.005  0.00  0.00    -0.268 OA
ENDROOT
BRANCH   1   4
HETATM    4  C   UNK     0       4.081  -5.907  -4.525  0.00  0.00     0.146 C 
HETATM    5  C   UNK     0       3.135  -6.789  -4.124  0.00  0.00     0.162 C 
HETATM    6  C   UNK     0       2.550  -7.670  -5.049  0.00  0.00     0.217 C 
HETATM    7  N   UNK     0       2.781  -6.856  -2.841  0.00  0.00    -0.143 N 
HETATM    8  C   UNK     0       3.085  -7.774  -6.375  0.00  0.00     0.044 A 
HETATM    9  O   UNK     0       1.596  -8.406  -4.695  0.00  0.00    -0.285 OA
HETATM   10  C   UNK     0       2.706  -8.808  -7.269  0.00  0.00     0.003 A 
HETATM   11  C   UNK     0       4.056  -6.820  -6.792  0.00  0.00     0.044 A 
HETATM   12  C   UNK     0       3.313  -8.919  -8.532  0.00  0.00     0.000 A 
HETATM   13  C   UNK     0       4.291  -7.991  -8.929  0.00  0.00     0.000 A 
HETATM   14  C   UNK     0       4.656  -6.940  -8.068  0.00  0.00     0.003 A 
HETATM   15  C   UNK     0       4.423  -5.788  -5.880  0.00  0.00     0.215 C 
HETATM   16  O   UNK     0       5.065  -4.786  -6.275  0.00  0.00    -0.285 OA
ENDBRANCH   1   4
BRANCH   2  17
HETATM   17  C   UNK     0       6.278  -6.970  -2.723  0.00  0.00     0.219 C 
BRANCH  17  18
HETATM   18  N   UNK     0       6.815  -7.380  -3.982  0.00  0.00    -0.221 N 
HETATM   19  C   UNK     0       6.596  -8.551  -4.604  0.00  0.00     0.114 A 
HETATM   20  C   UNK     0       7.325  -8.508  -5.784  0.00  0.00     0.101 A 
HETATM   21  N   UNK     0       7.920  -7.305  -5.804  0.00  0.00    -0.133 NA
HETATM   22  N   UNK     0       7.597  -6.660  -4.726  0.00  0.00    -0.064 NA
BRANCH  20  23
HETATM   23  C   UNK     0       7.463  -9.578  -6.806  0.00  0.00     0.044 C 
HETATM   24  C   UNK     0       6.188 -10.466  -6.835  0.00  0.00     0.006 C 
BRANCH  23  25
HETATM   25  C   UNK     0       7.776  -8.994  -8.221  0.00  0.00     0.006 C 
BRANCH  25  26
HETATM   26  C   UNK     0       7.401  -9.955  -9.385  0.00  0.00     0.000 C 
HETATM   27  C   UNK     0       7.277  -9.244 -10.749  0.00  0.00     0.000 C 
ENDBRANCH  25  26
ENDBRANCH  23  25
ENDBRANCH  20  23
ENDBRANCH  17  18
ENDBRANCH   2  17
TORSDOF 6
ENDMDL
