MODEL 1
REMARK VINA RESULT:      -6.6      0.000      0.000
REMARK  6 active torsions:
REMARK  status: ('A' for Active; 'I' for Inactive)
REMARK    1  A    between atoms: C_9  and  N_13 
REMARK       I    between atoms: N_13  and  C_14 
REMARK    2  A    between atoms: C_14  and  C_17 
REMARK    3  A    between atoms: C_17  and  N_18 
REMARK    4  A    between atoms: C_20  and  C_23 
REMARK    5  A    between atoms: C_23  and  O_24 
REMARK    6  A    between atoms: O_24  and  C_26 
ROOT
HETATM    1  N   UNK     0       2.485  -8.496  -6.804  0.00  0.00    -0.205 NA
HETATM    2  C   UNK     0       2.617  -9.836  -6.560  0.00  0.00     0.281 C 
HETATM    3  O   UNK     0       3.648 -10.311  -6.024  0.00  0.00    -0.268 OA
ENDROOT
BRANCH   1   4
HETATM    4  C   UNK     0       3.364  -7.553  -6.440  0.00  0.00     0.146 C 
HETATM    5  C   UNK     0       4.260  -7.085  -7.341  0.00  0.00     0.162 C 
HETATM    6  C   UNK     0       5.239  -6.151  -6.968  0.00  0.00     0.217 C 
HETATM    7  N   UNK     0       4.241  -7.528  -8.592  0.00  0.00    -0.143 N 
HETATM    8  C   UNK     0       5.370  -5.755  -5.599  0.00  0.00     0.044 A 
HETATM    9  O   UNK     0       6.009  -5.673  -7.836  0.00  0.00    -0.285 OA
HETATM   10  C   UNK     0       6.425  -4.925  -5.149  0.00  0.00     0.003 A 
HETATM   11  C   UNK     0       4.406  -6.219  -4.662  0.00  0.00     0.044 A 
HETATM   12  C   UNK     0       6.531  -4.574  -3.791  0.00  0.00     0.000 A 
HETATM   13  C   UNK     0       5.582  -5.039  -2.868  0.00  0.00     0.000 A 
HETATM   14  C   UNK     0       4.521  -5.850  -3.300  0.00  0.00     0.003 A 
HETATM   15  C   UNK     0       3.345  -7.046  -5.131  0.00  0.00     0.215 C 
HETATM   16  O   UNK     0       2.367  -7.294  -4.382  0.00  0.00    -0.285 OA
ENDBRANCH   1   4
BRANCH   2  17
HETATM   17  C   UNK     0       1.516 -10.745  -6.932  0.00  0.00     0.219 C 
BRANCH  17  18
HETATM   18  N   UNK     0       0.241 -10.157  -6.671  0.00  0.00    -0.221 N 
HETATM   19  C   UNK     0      -0.327  -9.965  -5.470  0.00  0.00     0.124 A 
HETATM   20  C   UNK     0      -1.568  -9.392  -5.715  0.00  0.00     0.186 A 
HETATM   21  N   UNK     0      -1.663  -9.271  -7.048  0.00  0.00    -0.123 NA
HETATM   22  N   UNK     0      -0.575  -9.729  -7.585  0.00  0.00    -0.063 NA
BRANCH  20  23
HETATM   23  C   UNK     0      -2.548  -8.997  -4.792  0.00  0.00     0.317 C 
HETATM   24  O   UNK     0      -2.682  -7.778  -4.535  0.00  0.00    -0.257 OA
BRANCH  23  25
HETATM   25  O   UNK     0      -3.336  -9.928  -4.179  0.00  0.00    -0.297 OA
BRANCH  25  26
HETATM   26  C   UNK     0      -3.993 -11.026  -4.825  0.00  0.00     0.152 C 
HETATM   27  C   UNK     0      -5.074 -10.498  -5.783  0.00  0.00     0.035 C 
ENDBRANCH  25  26
ENDBRANCH  23  25
ENDBRANCH  20  23
ENDBRANCH  17  18
ENDBRANCH   2  17
TORSDOF 6
ENDMDL
MODEL 2
REMARK VINA RESULT:      -6.4     12.696     14.179
REMARK  6 active torsions:
REMARK  status: ('A' for Active; 'I' for Inactive)
REMARK    1  A    between atoms: C_9  and  N_13 
REMARK       I    between atoms: N_13  and  C_14 
REMARK    2  A    between atoms: C_14  and  C_17 
REMARK    3  A    between atoms: C_17  and  N_18 
REMARK    4  A    between atoms: C_20  and  C_23 
REMARK    5  A    between atoms: C_23  and  O_24 
REMARK    6  A    between atoms: O_24  and  C_26 
ROOT
HETATM    1  N   UNK     0      -0.428  -7.540   5.373  0.00  0.00    -0.205 NA
HETATM    2  C   UNK     0      -1.711  -7.698   5.818  0.00  0.00     0.281 C 
HETATM    3  O   UNK     0      -2.051  -8.684   6.517  0.00  0.00    -0.268 OA
ENDROOT
BRANCH   1   4
HETATM    4  C   UNK     0       0.603  -8.337   5.685  0.00  0.00     0.146 C 
HETATM    5  C   UNK     0       0.870  -9.422   4.919  0.00  0.00     0.162 C 
HETATM    6  C   UNK     0       1.897 -10.314   5.264  0.00  0.00     0.217 C 
HETATM    7  N   UNK     0       0.140  -9.671   3.839  0.00  0.00    -0.143 N 
HETATM    8  C   UNK     0       2.613 -10.147   6.491  0.00  0.00     0.044 A 
HETATM    9  O   UNK     0       2.177 -11.269   4.498  0.00  0.00    -0.285 OA
HETATM   10  C   UNK     0       3.561 -11.093   6.950  0.00  0.00     0.003 A 
HETATM   11  C   UNK     0       2.357  -8.987   7.274  0.00  0.00     0.044 A 
HETATM   12  C   UNK     0       4.230 -10.903   8.172  0.00  0.00     0.000 A 
HETATM   13  C   UNK     0       3.970  -9.761   8.946  0.00  0.00     0.000 A 
HETATM   14  C   UNK     0       3.045  -8.805   8.498  0.00  0.00     0.003 A 
HETATM   15  C   UNK     0       1.408  -8.039   6.795  0.00  0.00     0.215 C 
HETATM   16  O   UNK     0       1.316  -6.914   7.346  0.00  0.00    -0.285 OA
ENDBRANCH   1   4
BRANCH   2  17
HETATM   17  C   UNK     0      -2.721  -6.680   5.471  0.00  0.00     0.219 C 
BRANCH  17  18
HETATM   18  N   UNK     0      -2.794  -5.655   6.464  0.00  0.00    -0.221 N 
HETATM   19  C   UNK     0      -3.036  -5.819   7.774  0.00  0.00     0.124 A 
HETATM   20  C   UNK     0      -3.038  -4.547   8.329  0.00  0.00     0.186 A 
HETATM   21  N   UNK     0      -2.790  -3.701   7.318  0.00  0.00    -0.123 NA
HETATM   22  N   UNK     0      -2.647  -4.387   6.228  0.00  0.00    -0.063 NA
BRANCH  20  23
HETATM   23  C   UNK     0      -3.243  -4.175   9.667  0.00  0.00     0.317 C 
HETATM   24  O   UNK     0      -4.330  -3.641   9.988  0.00  0.00    -0.257 OA
BRANCH  23  25
HETATM   25  O   UNK     0      -2.269  -4.384  10.600  0.00  0.00    -0.297 OA
BRANCH  25  26
HETATM   26  C   UNK     0      -2.175  -3.732  11.873  0.00  0.00     0.152 C 
HETATM   27  C   UNK     0      -0.700  -3.609  12.290  0.00  0.00     0.035 C 
ENDBRANCH  25  26
ENDBRANCH  23  25
ENDBRANCH  20  23
ENDBRANCH  17  18
ENDBRANCH   2  17
TORSDOF 6
ENDMDL
MODEL 3
REMARK VINA RESULT:      -6.4     11.402     12.753
REMARK  6 active torsions:
REMARK  status: ('A' for Active; 'I' for Inactive)
REMARK    1  A    between atoms: C_9  and  N_13 
REMARK       I    between atoms: N_13  and  C_14 
REMARK    2  A    between atoms: C_14  and  C_17 
REMARK    3  A    between atoms: C_17  and  N_18 
REMARK    4  A    between atoms: C_20  and  C_23 
REMARK    5  A    between atoms: C_23  and  O_24 
REMARK    6  A    between atoms: O_24  and  C_26 
ROOT
HETATM    1  N   UNK     0      -0.370 -10.118   4.284  0.00  0.00    -0.205 NA
HETATM    2  C   UNK     0      -1.356 -10.084   5.231  0.00  0.00     0.281 C 
HETATM    3  O   UNK     0      -1.293 -10.776   6.276  0.00  0.00    -0.268 OA
ENDROOT
BRANCH   1   4
HETATM    4  C   UNK     0       0.779 -10.800   4.388  0.00  0.00     0.146 C 
HETATM    5  C   UNK     0       0.928 -11.972   3.726  0.00  0.00     0.162 C 
HETATM    6  C   UNK     0       2.091 -12.743   3.874  0.00  0.00     0.217 C 
HETATM    7  N   UNK     0      -0.045 -12.423   2.944  0.00  0.00    -0.143 N 
HETATM    8  C   UNK     0       3.099 -12.351   4.811  0.00  0.00     0.044 A 
HETATM    9  O   UNK     0       2.239 -13.786   3.192  0.00  0.00    -0.285 OA
HETATM   10  C   UNK     0       4.223 -13.163   5.098  0.00  0.00     0.003 A 
HETATM   11  C   UNK     0       2.958 -11.102   5.477  0.00  0.00     0.044 A 
HETATM   12  C   UNK     0       5.182 -12.751   6.040  0.00  0.00     0.000 A 
HETATM   13  C   UNK     0       5.037 -11.522   6.701  0.00  0.00     0.000 A 
HETATM   14  C   UNK     0       3.936 -10.698   6.417  0.00  0.00     0.003 A 
HETATM   15  C   UNK     0       1.827 -10.292   5.172  0.00  0.00     0.215 C 
HETATM   16  O   UNK     0       1.783  -9.102   5.574  0.00  0.00    -0.285 OA
ENDBRANCH   1   4
BRANCH   2  17
HETATM   17  C   UNK     0      -2.522  -9.205   5.021  0.00  0.00     0.219 C 
BRANCH  17  18
HETATM   18  N   UNK     0      -2.285  -7.890   5.527  0.00  0.00    -0.221 N 
HETATM   19  C   UNK     0      -3.195  -7.051   6.048  0.00  0.00     0.124 A 
HETATM   20  C   UNK     0      -2.508  -5.890   6.374  0.00  0.00     0.186 A 
HETATM   21  N   UNK     0      -1.229  -6.108   6.034  0.00  0.00    -0.123 NA
HETATM   22  N   UNK     0      -1.128  -7.301   5.539  0.00  0.00    -0.063 NA
BRANCH  20  23
HETATM   23  C   UNK     0      -3.006  -4.711   6.950  0.00  0.00     0.317 C 
HETATM   24  O   UNK     0      -2.636  -3.607   6.487  0.00  0.00    -0.257 OA
BRANCH  23  25
HETATM   25  O   UNK     0      -3.871  -4.768   8.004  0.00  0.00    -0.297 OA
BRANCH  25  26
HETATM   26  C   UNK     0      -3.620  -5.413   9.259  0.00  0.00     0.152 C 
HETATM   27  C   UNK     0      -2.630  -4.578  10.089  0.00  0.00     0.035 C 
ENDBRANCH  25  26
ENDBRANCH  23  25
ENDBRANCH  20  23
ENDBRANCH  17  18
ENDBRANCH   2  17
TORSDOF 6
ENDMDL
MODEL 4
REMARK VINA RESULT:      -6.4      2.220      8.182
REMARK  6 active torsions:
REMARK  status: ('A' for Active; 'I' for Inactive)
REMARK    1  A    between atoms: C_9  and  N_13 
REMARK       I    between atoms: N_13  and  C_14 
REMARK    2  A    between atoms: C_14  and  C_17 
REMARK    3  A    between atoms: C_17  and  N_18 
REMARK    4  A    between atoms: C_20  and  C_23 
REMARK    5  A    between atoms: C_23  and  O_24 
REMARK    6  A    between atoms: O_24  and  C_26 
ROOT
HETATM    1  N   UNK     0       0.041  -8.885  -6.789  0.00  0.00    -0.205 NA
HETATM    2  C   UNK     0       1.305  -9.315  -6.491  0.00  0.00     0.281 C 
HETATM    3  O   UNK     0       1.521 -10.462  -6.029  0.00  0.00    -0.268 OA
ENDROOT
BRANCH   1   4
HETATM    4  C   UNK     0      -1.069  -9.631  -6.710  0.00  0.00     0.146 C 
HETATM    5  C   UNK     0      -1.432 -10.411  -7.756  0.00  0.00     0.162 C 
HETATM    6  C   UNK     0      -2.627 -11.146  -7.729  0.00  0.00     0.217 C 
HETATM    7  N   UNK     0      -0.669 -10.467  -8.841  0.00  0.00    -0.143 N 
HETATM    8  C   UNK     0      -3.534 -11.003  -6.632  0.00  0.00     0.044 A 
HETATM    9  O   UNK     0      -2.904 -11.920  -8.677  0.00  0.00    -0.285 OA
HETATM   10  C   UNK     0      -4.811 -11.614  -6.620  0.00  0.00     0.003 A 
HETATM   11  C   UNK     0      -3.134 -10.213  -5.517  0.00  0.00     0.044 A 
HETATM   12  C   UNK     0      -5.682 -11.433  -5.532  0.00  0.00     0.000 A 
HETATM   13  C   UNK     0      -5.287 -10.649  -4.437  0.00  0.00     0.000 A 
HETATM   14  C   UNK     0      -4.019 -10.048  -4.426  0.00  0.00     0.003 A 
HETATM   15  C   UNK     0      -1.843  -9.613  -5.539  0.00  0.00     0.215 C 
HETATM   16  O   UNK     0      -1.377  -9.094  -4.493  0.00  0.00    -0.285 OA
ENDBRANCH   1   4
BRANCH   2  17
HETATM   17  C   UNK     0       2.445  -8.408  -6.725  0.00  0.00     0.219 C 
BRANCH  17  18
HETATM   18  N   UNK     0       2.785  -7.679  -5.544  0.00  0.00    -0.221 N 
HETATM   19  C   UNK     0       3.847  -6.877  -5.370  0.00  0.00     0.124 A 
HETATM   20  C   UNK     0       3.773  -6.414  -4.064  0.00  0.00     0.186 A 
HETATM   21  N   UNK     0       2.667  -6.962  -3.539  0.00  0.00    -0.123 NA
HETATM   22  N   UNK     0       2.102  -7.702  -4.441  0.00  0.00    -0.063 NA
BRANCH  20  23
HETATM   23  C   UNK     0       4.646  -5.545  -3.391  0.00  0.00     0.317 C 
HETATM   24  O   UNK     0       4.283  -4.365  -3.181  0.00  0.00    -0.257 OA
BRANCH  23  25
HETATM   25  O   UNK     0       5.874  -5.978  -2.983  0.00  0.00    -0.297 OA
BRANCH  25  26
HETATM   26  C   UNK     0       6.214  -7.326  -2.636  0.00  0.00     0.152 C 
HETATM   27  C   UNK     0       5.600  -7.686  -1.273  0.00  0.00     0.035 C 
ENDBRANCH  25  26
ENDBRANCH  23  25
ENDBRANCH  20  23
ENDBRANCH  17  18
ENDBRANCH   2  17
TORSDOF 6
ENDMDL
MODEL 5
REMARK VINA RESULT:      -6.2      2.825      7.832
REMARK  6 active torsions:
REMARK  status: ('A' for Active; 'I' for Inactive)
REMARK    1  A    between atoms: C_9  and  N_13 
REMARK       I    between atoms: N_13  and  C_14 
REMARK    2  A    between atoms: C_14  and  C_17 
REMARK    3  A    between atoms: C_17  and  N_18 
REMARK    4  A    between atoms: C_20  and  C_23 
REMARK    5  A    between atoms: C_23  and  O_24 
REMARK    6  A    between atoms: O_24  and  C_26 
ROOT
HETATM    1  N   UNK     0       1.633  -8.179  -4.943  0.00  0.00    -0.205 NA
HETATM    2  C   UNK     0       2.508  -8.718  -4.040  0.00  0.00     0.281 C 
HETATM    3  O   UNK     0       2.975  -9.874  -4.181  0.00  0.00    -0.268 OA
ENDROOT
BRANCH   1   4
HETATM    4  C   UNK     0       1.247  -8.761  -6.088  0.00  0.00     0.146 C 
HETATM    5  C   UNK     0       0.093  -9.468  -6.128  0.00  0.00     0.162 C 
HETATM    6  C   UNK     0      -0.298 -10.148  -7.291  0.00  0.00     0.217 C 
HETATM    7  N   UNK     0      -0.676  -9.550  -5.049  0.00  0.00    -0.143 N 
HETATM    8  C   UNK     0       0.572 -10.188  -8.427  0.00  0.00     0.044 A 
HETATM    9  O   UNK     0      -1.408 -10.731  -7.330  0.00  0.00    -0.285 OA
HETATM   10  C   UNK     0       0.287 -10.971  -9.572  0.00  0.00     0.003 A 
HETATM   11  C   UNK     0       1.766  -9.415  -8.396  0.00  0.00     0.044 A 
HETATM   12  C   UNK     0       1.177 -11.000 -10.659  0.00  0.00     0.000 A 
HETATM   13  C   UNK     0       2.357 -10.242 -10.624  0.00  0.00     0.000 A 
HETATM   14  C   UNK     0       2.647  -9.448  -9.503  0.00  0.00     0.003 A 
HETATM   15  C   UNK     0       2.034  -8.624  -7.242  0.00  0.00     0.215 C 
HETATM   16  O   UNK     0       2.958  -7.773  -7.268  0.00  0.00    -0.285 OA
ENDBRANCH   1   4
BRANCH   2  17
HETATM   17  C   UNK     0       2.917  -7.914  -2.872  0.00  0.00     0.219 C 
BRANCH  17  18
HETATM   18  N   UNK     0       3.675  -6.769  -3.264  0.00  0.00    -0.221 N 
HETATM   19  C   UNK     0       4.938  -6.755  -3.718  0.00  0.00     0.124 A 
HETATM   20  C   UNK     0       5.255  -5.422  -3.941  0.00  0.00     0.186 A 
HETATM   21  N   UNK     0       4.159  -4.721  -3.613  0.00  0.00    -0.123 NA
HETATM   22  N   UNK     0       3.240  -5.546  -3.219  0.00  0.00    -0.063 NA
BRANCH  20  23
HETATM   23  C   UNK     0       6.456  -4.875  -4.419  0.00  0.00     0.317 C 
HETATM   24  O   UNK     0       7.012  -3.966  -3.760  0.00  0.00    -0.257 OA
BRANCH  23  25
HETATM   25  O   UNK     0       7.002  -5.321  -5.587  0.00  0.00    -0.297 OA
BRANCH  25  26
HETATM   26  C   UNK     0       6.549  -4.987  -6.905  0.00  0.00     0.152 C 
HETATM   27  C   UNK     0       7.500  -3.959  -7.540  0.00  0.00     0.035 C 
ENDBRANCH  25  26
ENDBRANCH  23  25
ENDBRANCH  20  23
ENDBRANCH  17  18
ENDBRANCH   2  17
TORSDOF 6
ENDMDL
MODEL 6
REMARK VINA RESULT:      -6.2      2.666      8.041
REMARK  6 active torsions:
REMARK  status: ('A' for Active; 'I' for Inactive)
REMARK    1  A    between atoms: C_9  and  N_13 
REMARK       I    between atoms: N_13  and  C_14 
REMARK    2  A    between atoms: C_14  and  C_17 
REMARK    3  A    between atoms: C_17  and  N_18 
REMARK    4  A    between atoms: C_20  and  C_23 
REMARK    5  A    between atoms: C_23  and  O_24 
REMARK    6  A    between atoms: O_24  and  C_26 
ROOT
HETATM    1  N   UNK     0       1.712  -7.885  -4.913  0.00  0.00    -0.205 NA
HETATM    2  C   UNK     0       2.504  -8.313  -3.883  0.00  0.00     0.281 C 
HETATM    3  O   UNK     0       2.782  -9.526  -3.723  0.00  0.00    -0.268 OA
ENDROOT
BRANCH   1   4
HETATM    4  C   UNK     0       1.225  -8.664  -5.889  0.00  0.00     0.146 C 
HETATM    5  C   UNK     0       1.976  -8.915  -6.987  0.00  0.00     0.162 C 
HETATM    6  C   UNK     0       1.464  -9.666  -8.056  0.00  0.00     0.217 C 
HETATM    7  N   UNK     0       3.206  -8.425  -7.080  0.00  0.00    -0.143 N 
HETATM    8  C   UNK     0       0.099 -10.094  -8.045  0.00  0.00     0.044 A 
HETATM    9  O   UNK     0       2.204  -9.951  -9.029  0.00  0.00    -0.285 OA
HETATM   10  C   UNK     0      -0.504 -10.734  -9.156  0.00  0.00     0.003 A 
HETATM   11  C   UNK     0      -0.677  -9.862  -6.875  0.00  0.00     0.044 A 
HETATM   12  C   UNK     0      -1.854 -11.122  -9.113  0.00  0.00     0.000 A 
HETATM   13  C   UNK     0      -2.618 -10.886  -7.960  0.00  0.00     0.000 A 
HETATM   14  C   UNK     0      -2.033 -10.266  -6.845  0.00  0.00     0.003 A 
HETATM   15  C   UNK     0      -0.055  -9.226  -5.762  0.00  0.00     0.215 C 
HETATM   16  O   UNK     0      -0.639  -9.200  -4.650  0.00  0.00    -0.285 OA
ENDBRANCH   1   4
BRANCH   2  17
HETATM   17  C   UNK     0       3.050  -7.319  -2.938  0.00  0.00     0.219 C 
BRANCH  17  18
HETATM   18  N   UNK     0       3.998  -6.460  -3.571  0.00  0.00    -0.221 N 
HETATM   19  C   UNK     0       5.113  -6.831  -4.221  0.00  0.00     0.124 A 
HETATM   20  C   UNK     0       5.725  -5.657  -4.640  0.00  0.00     0.186 A 
HETATM   21  N   UNK     0       4.936  -4.657  -4.220  0.00  0.00    -0.123 NA
HETATM   22  N   UNK     0       3.920  -5.164  -3.594  0.00  0.00    -0.063 NA
BRANCH  20  23
HETATM   23  C   UNK     0       6.918  -5.501  -5.362  0.00  0.00     0.317 C 
HETATM   24  O   UNK     0       7.765  -6.424  -5.341  0.00  0.00    -0.257 OA
BRANCH  23  25
HETATM   25  O   UNK     0       7.154  -4.357  -6.068  0.00  0.00    -0.297 OA
BRANCH  25  26
HETATM   26  C   UNK     0       7.178  -4.245  -7.497  0.00  0.00     0.152 C 
HETATM   27  C   UNK     0       8.143  -3.123  -7.918  0.00  0.00     0.035 C 
ENDBRANCH  25  26
ENDBRANCH  23  25
ENDBRANCH  20  23
ENDBRANCH  17  18
ENDBRANCH   2  17
TORSDOF 6
ENDMDL
MODEL 7
REMARK VINA RESULT:      -6.2      3.542      5.673
REMARK  6 active torsions:
REMARK  status: ('A' for Active; 'I' for Inactive)
REMARK    1  A    between atoms: C_9  and  N_13 
REMARK       I    between atoms: N_13  and  C_14 
REMARK    2  A    between atoms: C_14  and  C_17 
REMARK    3  A    between atoms: C_17  and  N_18 
REMARK    4  A    between atoms: C_20  and  C_23 
REMARK    5  A    between atoms: C_23  and  O_24 
REMARK    6  A    between atoms: O_24  and  C_26 
ROOT
HETATM    1  N   UNK     0       5.992  -5.675  -5.273  0.00  0.00    -0.205 NA
HETATM    2  C   UNK     0       5.680  -5.002  -4.124  0.00  0.00     0.281 C 
HETATM    3  O   UNK     0       6.529  -4.309  -3.512  0.00  0.00    -0.268 OA
ENDROOT
BRANCH   1   4
HETATM    4  C   UNK     0       7.169  -5.613  -5.910  0.00  0.00     0.146 C 
HETATM    5  C   UNK     0       8.148  -6.496  -5.601  0.00  0.00     0.162 C 
HETATM    6  C   UNK     0       9.415  -6.409  -6.199  0.00  0.00     0.217 C 
HETATM    7  N   UNK     0       7.929  -7.445  -4.700  0.00  0.00    -0.143 N 
HETATM    8  C   UNK     0       9.724  -5.319  -7.073  0.00  0.00     0.044 A 
HETATM    9  O   UNK     0      10.281  -7.284  -5.955  0.00  0.00    -0.285 OA
HETATM   10  C   UNK     0      11.024  -5.109  -7.592  0.00  0.00     0.003 A 
HETATM   11  C   UNK     0       8.683  -4.414  -7.425  0.00  0.00     0.044 A 
HETATM   12  C   UNK     0      11.293  -4.015  -8.432  0.00  0.00     0.000 A 
HETATM   13  C   UNK     0      10.266  -3.120  -8.772  0.00  0.00     0.000 A 
HETATM   14  C   UNK     0       8.968  -3.322  -8.279  0.00  0.00     0.003 A 
HETATM   15  C   UNK     0       7.378  -4.643  -6.903  0.00  0.00     0.215 C 
HETATM   16  O   UNK     0       6.401  -3.999  -7.359  0.00  0.00    -0.285 OA
ENDBRANCH   1   4
BRANCH   2  17
HETATM   17  C   UNK     0       4.306  -5.088  -3.592  0.00  0.00     0.219 C 
BRANCH  17  18
HETATM   18  N   UNK     0       3.851  -6.441  -3.534  0.00  0.00    -0.221 N 
HETATM   19  C   UNK     0       2.875  -6.995  -4.270  0.00  0.00     0.124 A 
HETATM   20  C   UNK     0       2.771  -8.313  -3.846  0.00  0.00     0.186 A 
HETATM   21  N   UNK     0       3.696  -8.468  -2.887  0.00  0.00    -0.123 NA
HETATM   22  N   UNK     0       4.321  -7.343  -2.728  0.00  0.00    -0.063 NA
BRANCH  20  23
HETATM   23  C   UNK     0       1.900  -9.314  -4.303  0.00  0.00     0.317 C 
HETATM   24  O   UNK     0       2.364 -10.448  -4.566  0.00  0.00    -0.257 OA
BRANCH  23  25
HETATM   25  O   UNK     0       0.571  -9.052  -4.468  0.00  0.00    -0.297 OA
BRANCH  25  26
HETATM   26  C   UNK     0      -0.176  -9.239  -5.677  0.00  0.00     0.152 C 
HETATM   27  C   UNK     0       0.329  -8.270  -6.759  0.00  0.00     0.035 C 
ENDBRANCH  25  26
ENDBRANCH  23  25
ENDBRANCH  20  23
ENDBRANCH  17  18
ENDBRANCH   2  17
TORSDOF 6
ENDMDL
MODEL 8
REMARK VINA RESULT:      -6.2      2.855      7.721
REMARK  6 active torsions:
REMARK  status: ('A' for Active; 'I' for Inactive)
REMARK    1  A    between atoms: C_9  and  N_13 
REMARK       I    between atoms: N_13  and  C_14 
REMARK    2  A    between atoms: C_14  and  C_17 
REMARK    3  A    between atoms: C_17  and  N_18 
REMARK    4  A    between atoms: C_20  and  C_23 
REMARK    5  A    between atoms: C_23  and  O_24 
REMARK    6  A    between atoms: O_24  and  C_26 
ROOT
HETATM    1  N   UNK     0       2.534  -7.996  -5.718  0.00  0.00    -0.205 NA
HETATM    2  C   UNK     0       3.389  -7.802  -6.767  0.00  0.00     0.281 C 
HETATM    3  O   UNK     0       3.481  -8.629  -7.707  0.00  0.00    -0.268 OA
ENDROOT
BRANCH   1   4
HETATM    4  C   UNK     0       1.662  -9.008  -5.608  0.00  0.00     0.146 C 
HETATM    5  C   UNK     0       2.058 -10.182  -5.062  0.00  0.00     0.162 C 
HETATM    6  C   UNK     0       1.188 -11.281  -5.002  0.00  0.00     0.217 C 
HETATM    7  N   UNK     0       3.295 -10.317  -4.599  0.00  0.00    -0.143 N 
HETATM    8  C   UNK     0      -0.104 -11.209  -5.611  0.00  0.00     0.044 A 
HETATM    9  O   UNK     0       1.552 -12.333  -4.422  0.00  0.00    -0.285 OA
HETATM   10  C   UNK     0      -0.964 -12.331  -5.697  0.00  0.00     0.003 A 
HETATM   11  C   UNK     0      -0.533  -9.964  -6.150  0.00  0.00     0.044 A 
HETATM   12  C   UNK     0      -2.219 -12.224  -6.322  0.00  0.00     0.000 A 
HETATM   13  C   UNK     0      -2.637 -10.997  -6.859  0.00  0.00     0.000 A 
HETATM   14  C   UNK     0      -1.803  -9.872  -6.768  0.00  0.00     0.003 A 
HETATM   15  C   UNK     0       0.339  -8.842  -6.047  0.00  0.00     0.215 C 
HETATM   16  O   UNK     0      -0.088  -7.692  -6.316  0.00  0.00    -0.285 OA
ENDBRANCH   1   4
BRANCH   2  17
HETATM   17  C   UNK     0       4.222  -6.584  -6.798  0.00  0.00     0.219 C 
BRANCH  17  18
HETATM   18  N   UNK     0       4.562  -6.149  -5.481  0.00  0.00    -0.221 N 
HETATM   19  C   UNK     0       5.324  -6.801  -4.588  0.00  0.00     0.124 A 
HETATM   20  C   UNK     0       5.350  -6.009  -3.449  0.00  0.00     0.186 A 
HETATM   21  N   UNK     0       4.608  -4.928  -3.732  0.00  0.00    -0.123 NA
HETATM   22  N   UNK     0       4.158  -5.038  -4.943  0.00  0.00    -0.063 NA
BRANCH  20  23
HETATM   23  C   UNK     0       6.010  -6.244  -2.233  0.00  0.00     0.317 C 
HETATM   24  O   UNK     0       6.113  -5.307  -1.408  0.00  0.00    -0.257 OA
BRANCH  23  25
HETATM   25  O   UNK     0       6.537  -7.473  -1.959  0.00  0.00    -0.297 OA
BRANCH  25  26
HETATM   26  C   UNK     0       5.905  -8.503  -1.189  0.00  0.00     0.152 C 
HETATM   27  C   UNK     0       6.915  -9.621  -0.882  0.00  0.00     0.035 C 
ENDBRANCH  25  26
ENDBRANCH  23  25
ENDBRANCH  20  23
ENDBRANCH  17  18
ENDBRANCH   2  17
TORSDOF 6
ENDMDL
MODEL 9
REMARK VINA RESULT:      -6.2      1.766      2.115
REMARK  6 active torsions:
REMARK  status: ('A' for Active; 'I' for Inactive)
REMARK    1  A    between atoms: C_9  and  N_13 
REMARK       I    between atoms: N_13  and  C_14 
REMARK    2  A    between atoms: C_14  and  C_17 
REMARK    3  A    between atoms: C_17  and  N_18 
REMARK    4  A    between atoms: C_20  and  C_23 
REMARK    5  A    between atoms: C_23  and  O_24 
REMARK    6  A    between atoms: O_24  and  C_26 
ROOT
HETATM    1  N   UNK     0       1.911  -7.916  -6.402  0.00  0.00    -0.205 NA
HETATM    2  C   UNK     0       1.332  -9.134  -6.630  0.00  0.00     0.281 C 
HETATM    3  O   UNK     0       1.907 -10.207  -6.323  0.00  0.00    -0.268 OA
ENDROOT
BRANCH   1   4
HETATM    4  C   UNK     0       3.078  -7.720  -5.773  0.00  0.00     0.146 C 
HETATM    5  C   UNK     0       4.190  -7.431  -6.491  0.00  0.00     0.162 C 
HETATM    6  C   UNK     0       5.438  -7.294  -5.865  0.00  0.00     0.217 C 
HETATM    7  N   UNK     0       4.116  -7.302  -7.809  0.00  0.00    -0.143 N 
HETATM    8  C   UNK     0       5.574  -7.558  -4.465  0.00  0.00     0.044 A 
HETATM    9  O   UNK     0       6.439  -6.950  -6.539  0.00  0.00    -0.285 OA
HETATM   10  C   UNK     0       6.831  -7.567  -3.815  0.00  0.00     0.003 A 
HETATM   11  C   UNK     0       4.399  -7.824  -3.707  0.00  0.00     0.044 A 
HETATM   12  C   UNK     0       6.925  -7.851  -2.441  0.00  0.00     0.000 A 
HETATM   13  C   UNK     0       5.766  -8.120  -1.697  0.00  0.00     0.000 A 
HETATM   14  C   UNK     0       4.510  -8.100  -2.323  0.00  0.00     0.003 A 
HETATM   15  C   UNK     0       3.141  -7.802  -4.373  0.00  0.00     0.215 C 
HETATM   16  O   UNK     0       2.078  -7.819  -3.703  0.00  0.00    -0.285 OA
ENDBRANCH   1   4
BRANCH   2  17
HETATM   17  C   UNK     0      -0.008  -9.187  -7.247  0.00  0.00     0.219 C 
BRANCH  17  18
HETATM   18  N   UNK     0      -1.034  -9.315  -6.261  0.00  0.00    -0.221 N 
HETATM   19  C   UNK     0      -1.838 -10.372  -6.069  0.00  0.00     0.124 A 
HETATM   20  C   UNK     0      -2.687 -10.029  -5.026  0.00  0.00     0.186 A 
HETATM   21  N   UNK     0      -2.333  -8.789  -4.653  0.00  0.00    -0.123 NA
HETATM   22  N   UNK     0      -1.349  -8.396  -5.401  0.00  0.00    -0.063 NA
BRANCH  20  23
HETATM   23  C   UNK     0      -3.711 -10.790  -4.442  0.00  0.00     0.317 C 
HETATM   24  O   UNK     0      -3.491 -11.993  -4.169  0.00  0.00    -0.257 OA
BRANCH  23  25
HETATM   25  O   UNK     0      -4.928 -10.230  -4.185  0.00  0.00    -0.297 OA
BRANCH  25  26
HETATM   26  C   UNK     0      -6.178 -10.649  -4.748  0.00  0.00     0.152 C 
HETATM   27  C   UNK     0      -6.070 -10.700  -6.282  0.00  0.00     0.035 C 
ENDBRANCH  25  26
ENDBRANCH  23  25
ENDBRANCH  20  23
ENDBRANCH  17  18
ENDBRANCH   2  17
TORSDOF 6
ENDMDL
