MODEL 1
REMARK VINA RESULT:      -6.3      0.000      0.000
REMARK  5 active torsions:
REMARK  status: ('A' for Active; 'I' for Inactive)
REMARK    1  A    between atoms: C_9  and  N_13 
REMARK       I    between atoms: N_13  and  C_14 
REMARK    2  A    between atoms: C_14  and  C_17 
REMARK    3  A    between atoms: C_17  and  N_18 
REMARK    4  A    between atoms: C_20  and  C_23 
REMARK    5  A    between atoms: C_23  and  C_24 
ROOT
HETATM    1  N   UNK     0       6.060  -6.882  -2.434  0.00  0.00    -0.205 NA
HETATM    2  C   UNK     0       5.529  -7.995  -1.851  0.00  0.00     0.281 C 
HETATM    3  O   UNK     0       5.488  -7.986  -0.599  0.00  0.00    -0.268 OA
ENDROOT
BRANCH   2   4
HETATM    4  C   UNK     0       4.963  -9.178  -2.550  0.00  0.00     0.219 C 
BRANCH   4   5
HETATM    5  N   UNK     0       3.924  -8.797  -3.457  0.00  0.00    -0.221 N 
HETATM    6  C   UNK     0       3.890  -8.999  -4.786  0.00  0.00     0.114 A 
HETATM    7  C   UNK     0       2.674  -8.493  -5.225  0.00  0.00     0.101 A 
HETATM    8  N   UNK     0       2.063  -7.998  -4.138  0.00  0.00    -0.133 NA
HETATM    9  N   UNK     0       2.826  -8.198  -3.107  0.00  0.00    -0.064 NA
BRANCH   7  10
HETATM   10  C   UNK     0       2.119  -8.491  -6.599  0.00  0.00     0.049 C 
BRANCH  10  11
HETATM   11  C   UNK     0       3.195  -8.469  -7.737  0.00  0.00     0.006 C 
HETATM   12  C   UNK     0       2.669  -7.692  -8.989  0.00  0.00     0.000 C 
HETATM   13  C   UNK     0       3.678  -7.687 -10.172  0.00  0.00     0.000 C 
HETATM   14  C   UNK     0       4.117  -9.122 -10.559  0.00  0.00     0.000 C 
HETATM   15  C   UNK     0       4.667  -9.895  -9.334  0.00  0.00     0.000 C 
HETATM   16  C   UNK     0       3.652  -9.905  -8.159  0.00  0.00     0.000 C 
ENDBRANCH  10  11
ENDBRANCH   7  10
ENDBRANCH   4   5
ENDBRANCH   2   4
BRANCH   1  17
HETATM   17  C   UNK     0       6.179  -6.646  -3.746  0.00  0.00     0.146 C 
HETATM   18  C   UNK     0       5.333  -5.764  -4.334  0.00  0.00     0.162 C 
HETATM   19  C   UNK     0       5.394  -5.512  -5.710  0.00  0.00     0.217 C 
HETATM   20  N   UNK     0       4.401  -5.135  -3.629  0.00  0.00    -0.143 N 
HETATM   21  C   UNK     0       6.226  -6.316  -6.545  0.00  0.00     0.044 A 
HETATM   22  O   UNK     0       4.708  -4.587  -6.210  0.00  0.00    -0.285 OA
HETATM   23  C   UNK     0       6.139  -6.265  -7.958  0.00  0.00     0.003 A 
HETATM   24  C   UNK     0       7.151  -7.207  -5.930  0.00  0.00     0.044 A 
HETATM   25  C   UNK     0       6.969  -7.075  -8.751  0.00  0.00     0.000 A 
HETATM   26  C   UNK     0       7.905  -7.930  -8.145  0.00  0.00     0.000 A 
HETATM   27  C   UNK     0       8.003  -7.992  -6.744  0.00  0.00     0.003 A 
HETATM   28  C   UNK     0       7.169  -7.296  -4.503  0.00  0.00     0.215 C 
HETATM   29  O   UNK     0       8.057  -7.965  -3.920  0.00  0.00    -0.285 OA
ENDBRANCH   1  17
TORSDOF 5
ENDMDL
MODEL 2
REMARK VINA RESULT:      -6.3     10.716     13.176
REMARK  5 active torsions:
REMARK  status: ('A' for Active; 'I' for Inactive)
REMARK    1  A    between atoms: C_9  and  N_13 
REMARK       I    between atoms: N_13  and  C_14 
REMARK    2  A    between atoms: C_14  and  C_17 
REMARK    3  A    between atoms: C_17  and  N_18 
REMARK    4  A    between atoms: C_20  and  C_23 
REMARK    5  A    between atoms: C_23  and  C_24 
ROOT
HETATM    1  N   UNK     0      -4.638  -0.147 -10.709  0.00  0.00    -0.205 NA
HETATM    2  C   UNK     0      -3.658  -0.602 -11.543  0.00  0.00     0.281 C 
HETATM    3  O   UNK     0      -3.574  -0.022 -12.649  0.00  0.00    -0.268 OA
ENDROOT
BRANCH   2   4
HETATM    4  C   UNK     0      -2.670  -1.672 -11.249  0.00  0.00     0.219 C 
BRANCH   4   5
HETATM    5  N   UNK     0      -1.331  -1.166 -11.289  0.00  0.00    -0.221 N 
HETATM    6  C   UNK     0      -0.707  -0.442 -10.342  0.00  0.00     0.114 A 
HETATM    7  C   UNK     0       0.581  -0.219 -10.811  0.00  0.00     0.101 A 
HETATM    8  N   UNK     0       0.644  -0.802 -12.018  0.00  0.00    -0.133 NA
HETATM    9  N   UNK     0      -0.502  -1.358 -12.269  0.00  0.00    -0.064 NA
BRANCH   7  10
HETATM   10  C   UNK     0       1.692   0.498 -10.143  0.00  0.00     0.049 C 
BRANCH  10  11
HETATM   11  C   UNK     0       1.904   1.971 -10.631  0.00  0.00     0.006 C 
HETATM   12  C   UNK     0       2.911   2.024 -11.829  0.00  0.00     0.000 C 
HETATM   13  C   UNK     0       3.201   3.471 -12.317  0.00  0.00     0.000 C 
HETATM   14  C   UNK     0       3.675   4.385 -11.159  0.00  0.00     0.000 C 
HETATM   15  C   UNK     0       2.674   4.364  -9.977  0.00  0.00     0.000 C 
HETATM   16  C   UNK     0       2.395   2.918  -9.487  0.00  0.00     0.000 C 
ENDBRANCH  10  11
ENDBRANCH   7  10
ENDBRANCH   4   5
ENDBRANCH   2   4
BRANCH   1  17
HETATM   17  C   UNK     0      -4.899  -0.582  -9.470  0.00  0.00     0.146 C 
HETATM   18  C   UNK     0      -5.762  -1.616  -9.307  0.00  0.00     0.162 C 
HETATM   19  C   UNK     0      -6.096  -2.083  -8.030  0.00  0.00     0.217 C 
HETATM   20  N   UNK     0      -6.338  -2.198 -10.351  0.00  0.00    -0.143 N 
HETATM   21  C   UNK     0      -5.676  -1.359  -6.875  0.00  0.00     0.044 A 
HETATM   22  O   UNK     0      -6.775  -3.132  -7.903  0.00  0.00    -0.285 OA
HETATM   23  C   UNK     0      -6.187  -1.647  -5.586  0.00  0.00     0.003 A 
HETATM   24  C   UNK     0      -4.732  -0.305  -7.037  0.00  0.00     0.044 A 
HETATM   25  C   UNK     0      -5.758  -0.910  -4.469  0.00  0.00     0.000 A 
HETATM   26  C   UNK     0      -4.802   0.108  -4.624  0.00  0.00     0.000 A 
HETATM   27  C   UNK     0      -4.285   0.405  -5.897  0.00  0.00     0.003 A 
HETATM   28  C   UNK     0      -4.286   0.016  -8.357  0.00  0.00     0.215 C 
HETATM   29  O   UNK     0      -3.358   0.845  -8.529  0.00  0.00    -0.285 OA
ENDBRANCH   1  17
TORSDOF 5
ENDMDL
MODEL 3
REMARK VINA RESULT:      -6.2     10.236     12.252
REMARK  5 active torsions:
REMARK  status: ('A' for Active; 'I' for Inactive)
REMARK    1  A    between atoms: C_9  and  N_13 
REMARK       I    between atoms: N_13  and  C_14 
REMARK    2  A    between atoms: C_14  and  C_17 
REMARK    3  A    between atoms: C_17  and  N_18 
REMARK    4  A    between atoms: C_20  and  C_23 
REMARK    5  A    between atoms: C_23  and  C_24 
ROOT
HETATM    1  N   UNK     0       1.381  -0.508 -11.730  0.00  0.00    -0.205 NA
HETATM    2  C   UNK     0       0.157  -0.658 -12.315  0.00  0.00     0.281 C 
HETATM    3  O   UNK     0      -0.079  -1.787 -12.801  0.00  0.00    -0.268 OA
ENDROOT
BRANCH   2   4
HETATM    4  C   UNK     0      -0.921   0.363 -12.389  0.00  0.00     0.219 C 
BRANCH   4   5
HETATM    5  N   UNK     0      -1.947   0.103 -11.426  0.00  0.00    -0.221 N 
HETATM    6  C   UNK     0      -2.504   0.984 -10.574  0.00  0.00     0.114 A 
HETATM    7  C   UNK     0      -3.472   0.283  -9.868  0.00  0.00     0.101 A 
HETATM    8  N   UNK     0      -3.422  -0.980 -10.322  0.00  0.00    -0.133 NA
HETATM    9  N   UNK     0      -2.513  -1.051 -11.247  0.00  0.00    -0.064 NA
BRANCH   7  10
HETATM   10  C   UNK     0      -4.400   0.786  -8.829  0.00  0.00     0.049 C 
BRANCH  10  11
HETATM   11  C   UNK     0      -4.852  -0.288  -7.783  0.00  0.00     0.006 C 
HETATM   12  C   UNK     0      -6.378  -0.604  -7.930  0.00  0.00     0.000 C 
HETATM   13  C   UNK     0      -6.893  -1.626  -6.878  0.00  0.00     0.000 C 
HETATM   14  C   UNK     0      -6.561  -1.178  -5.431  0.00  0.00     0.000 C 
HETATM   15  C   UNK     0      -5.048  -0.888  -5.263  0.00  0.00     0.000 C 
HETATM   16  C   UNK     0      -4.541   0.139  -6.311  0.00  0.00     0.000 C 
ENDBRANCH  10  11
ENDBRANCH   7  10
ENDBRANCH   4   5
ENDBRANCH   2   4
BRANCH   1  17
HETATM   17  C   UNK     0       1.846   0.588 -11.119  0.00  0.00     0.146 C 
HETATM   18  C   UNK     0       1.612   0.749  -9.793  0.00  0.00     0.162 C 
HETATM   19  C   UNK     0       2.047   1.896  -9.117  0.00  0.00     0.217 C 
HETATM   20  N   UNK     0       0.938  -0.161  -9.101  0.00  0.00    -0.143 N 
HETATM   21  C   UNK     0       2.581   2.996  -9.851  0.00  0.00     0.044 A 
HETATM   22  O   UNK     0       1.954   1.960  -7.866  0.00  0.00    -0.285 OA
HETATM   23  C   UNK     0       2.804   4.259  -9.249  0.00  0.00     0.003 A 
HETATM   24  C   UNK     0       2.874   2.814 -11.233  0.00  0.00     0.044 A 
HETATM   25  C   UNK     0       3.325   5.324 -10.003  0.00  0.00     0.000 A 
HETATM   26  C   UNK     0       3.647   5.135 -11.358  0.00  0.00     0.000 A 
HETATM   27  C   UNK     0       3.431   3.888 -11.969  0.00  0.00     0.003 A 
HETATM   28  C   UNK     0       2.572   1.554 -11.836  0.00  0.00     0.215 C 
HETATM   29  O   UNK     0       2.937   1.309 -13.012  0.00  0.00    -0.285 OA
ENDBRANCH   1  17
TORSDOF 5
ENDMDL
MODEL 4
REMARK VINA RESULT:      -6.2     10.597     12.294
REMARK  5 active torsions:
REMARK  status: ('A' for Active; 'I' for Inactive)
REMARK    1  A    between atoms: C_9  and  N_13 
REMARK       I    between atoms: N_13  and  C_14 
REMARK    2  A    between atoms: C_14  and  C_17 
REMARK    3  A    between atoms: C_17  and  N_18 
REMARK    4  A    between atoms: C_20  and  C_23 
REMARK    5  A    between atoms: C_23  and  C_24 
ROOT
HETATM    1  N   UNK     0       1.108  -0.779 -12.275  0.00  0.00    -0.205 NA
HETATM    2  C   UNK     0      -0.112  -1.073 -12.810  0.00  0.00     0.281 C 
HETATM    3  O   UNK     0      -0.258  -2.248 -13.218  0.00  0.00    -0.268 OA
ENDROOT
BRANCH   2   4
HETATM    4  C   UNK     0      -1.280  -0.159 -12.911  0.00  0.00     0.219 C 
BRANCH   4   5
HETATM    5  N   UNK     0      -2.135  -0.283 -11.770  0.00  0.00    -0.221 N 
HETATM    6  C   UNK     0      -2.458   0.681 -10.888  0.00  0.00     0.114 A 
HETATM    7  C   UNK     0      -3.338   0.101  -9.985  0.00  0.00     0.101 A 
HETATM    8  N   UNK     0      -3.472  -1.179 -10.365  0.00  0.00    -0.133 NA
HETATM    9  N   UNK     0      -2.752  -1.372 -11.428  0.00  0.00    -0.064 NA
BRANCH   7  10
HETATM   10  C   UNK     0      -4.023   0.731  -8.832  0.00  0.00     0.049 C 
BRANCH  10  11
HETATM   11  C   UNK     0      -4.744  -0.275  -7.873  0.00  0.00     0.006 C 
HETATM   12  C   UNK     0      -6.284  -0.309  -8.153  0.00  0.00     0.000 C 
HETATM   13  C   UNK     0      -7.058  -1.252  -7.190  0.00  0.00     0.000 C 
HETATM   14  C   UNK     0      -6.776  -0.914  -5.704  0.00  0.00     0.000 C 
HETATM   15  C   UNK     0      -5.256  -0.904  -5.405  0.00  0.00     0.000 C 
HETATM   16  C   UNK     0      -4.489   0.047  -6.363  0.00  0.00     0.000 C 
ENDBRANCH  10  11
ENDBRANCH   7  10
ENDBRANCH   4   5
ENDBRANCH   2   4
BRANCH   1  17
HETATM   17  C   UNK     0       1.489   0.391 -11.747  0.00  0.00     0.146 C 
HETATM   18  C   UNK     0       2.003   1.343 -12.563  0.00  0.00     0.162 C 
HETATM   19  C   UNK     0       2.449   2.569 -12.053  0.00  0.00     0.217 C 
HETATM   20  N   UNK     0       2.126   1.132 -13.868  0.00  0.00    -0.143 N 
HETATM   21  C   UNK     0       2.538   2.762 -10.643  0.00  0.00     0.044 A 
HETATM   22  O   UNK     0       2.781   3.492 -12.837  0.00  0.00    -0.285 OA
HETATM   23  C   UNK     0       3.207   3.878 -10.082  0.00  0.00     0.003 A 
HETATM   24  C   UNK     0       1.956   1.787  -9.783  0.00  0.00     0.044 A 
HETATM   25  C   UNK     0       3.284   4.035  -8.688  0.00  0.00     0.000 A 
HETATM   26  C   UNK     0       2.679   3.092  -7.840  0.00  0.00     0.000 A 
HETATM   27  C   UNK     0       2.012   1.979  -8.381  0.00  0.00     0.003 A 
HETATM   28  C   UNK     0       1.352   0.632 -10.369  0.00  0.00     0.215 C 
HETATM   29  O   UNK     0       0.711  -0.180  -9.657  0.00  0.00    -0.285 OA
ENDBRANCH   1  17
TORSDOF 5
ENDMDL
MODEL 5
REMARK VINA RESULT:      -6.2      2.518      4.362
REMARK  5 active torsions:
REMARK  status: ('A' for Active; 'I' for Inactive)
REMARK    1  A    between atoms: C_9  and  N_13 
REMARK       I    between atoms: N_13  and  C_14 
REMARK    2  A    between atoms: C_14  and  C_17 
REMARK    3  A    between atoms: C_17  and  N_18 
REMARK    4  A    between atoms: C_20  and  C_23 
REMARK    5  A    between atoms: C_23  and  C_24 
ROOT
HETATM    1  N   UNK     0       4.282  -5.492  -3.705  0.00  0.00    -0.205 NA
HETATM    2  C   UNK     0       5.493  -5.568  -3.079  0.00  0.00     0.281 C 
HETATM    3  O   UNK     0       5.695  -4.719  -2.181  0.00  0.00    -0.268 OA
ENDROOT
BRANCH   2   4
HETATM    4  C   UNK     0       6.558  -6.574  -3.328  0.00  0.00     0.219 C 
BRANCH   4   5
HETATM    5  N   UNK     0       6.074  -7.904  -3.118  0.00  0.00    -0.221 N 
HETATM    6  C   UNK     0       5.975  -8.886  -4.033  0.00  0.00     0.114 A 
HETATM    7  C   UNK     0       5.491  -9.998  -3.357  0.00  0.00     0.101 A 
HETATM    8  N   UNK     0       5.307  -9.610  -2.085  0.00  0.00    -0.133 NA
HETATM    9  N   UNK     0       5.667  -8.368  -1.976  0.00  0.00    -0.064 NA
BRANCH   7  10
HETATM   10  C   UNK     0       5.228 -11.356  -3.886  0.00  0.00     0.049 C 
BRANCH  10  11
HETATM   11  C   UNK     0       4.176 -11.412  -5.045  0.00  0.00     0.006 C 
HETATM   12  C   UNK     0       3.188 -12.610  -4.847  0.00  0.00     0.000 C 
HETATM   13  C   UNK     0       2.155 -12.746  -6.000  0.00  0.00     0.000 C 
HETATM   14  C   UNK     0       2.846 -12.826  -7.385  0.00  0.00     0.000 C 
HETATM   15  C   UNK     0       3.806 -11.630  -7.607  0.00  0.00     0.000 C 
HETATM   16  C   UNK     0       4.842 -11.505  -6.458  0.00  0.00     0.000 C 
ENDBRANCH  10  11
ENDBRANCH   7  10
ENDBRANCH   4   5
ENDBRANCH   2   4
BRANCH   1  17
HETATM   17  C   UNK     0       3.827  -6.305  -4.667  0.00  0.00     0.146 C 
HETATM   18  C   UNK     0       4.282  -6.141  -5.933  0.00  0.00     0.162 C 
HETATM   19  C   UNK     0       3.808  -6.941  -6.980  0.00  0.00     0.217 C 
HETATM   20  N   UNK     0       5.168  -5.197  -6.225  0.00  0.00    -0.143 N 
HETATM   21  C   UNK     0       2.705  -7.819  -6.762  0.00  0.00     0.044 A 
HETATM   22  O   UNK     0       4.348  -6.877  -8.112  0.00  0.00    -0.285 OA
HETATM   23  C   UNK     0       2.037  -8.460  -7.834  0.00  0.00     0.003 A 
HETATM   24  C   UNK     0       2.256  -8.031  -5.427  0.00  0.00     0.044 A 
HETATM   25  C   UNK     0       0.948  -9.313  -7.586  0.00  0.00     0.000 A 
HETATM   26  C   UNK     0       0.528  -9.549  -6.266  0.00  0.00     0.000 A 
HETATM   27  C   UNK     0       1.180  -8.920  -5.192  0.00  0.00     0.003 A 
HETATM   28  C   UNK     0       2.898  -7.316  -4.369  0.00  0.00     0.215 C 
HETATM   29  O   UNK     0       2.625  -7.575  -3.171  0.00  0.00    -0.285 OA
ENDBRANCH   1  17
TORSDOF 5
ENDMDL
MODEL 6
REMARK VINA RESULT:      -6.2      3.203      5.999
REMARK  5 active torsions:
REMARK  status: ('A' for Active; 'I' for Inactive)
REMARK    1  A    between atoms: C_9  and  N_13 
REMARK       I    between atoms: N_13  and  C_14 
REMARK    2  A    between atoms: C_14  and  C_17 
REMARK    3  A    between atoms: C_17  and  N_18 
REMARK    4  A    between atoms: C_20  and  C_23 
REMARK    5  A    between atoms: C_23  and  C_24 
ROOT
HETATM    1  N   UNK     0       3.873  -7.612  -3.189  0.00  0.00    -0.205 NA
HETATM    2  C   UNK     0       3.704  -6.259  -3.233  0.00  0.00     0.281 C 
HETATM    3  O   UNK     0       2.519  -5.857  -3.179  0.00  0.00    -0.268 OA
ENDROOT
BRANCH   2   4
HETATM    4  C   UNK     0       4.777  -5.232  -3.293  0.00  0.00     0.219 C 
BRANCH   4   5
HETATM    5  N   UNK     0       5.357  -5.165  -4.600  0.00  0.00    -0.221 N 
HETATM    6  C   UNK     0       6.663  -5.246  -4.915  0.00  0.00     0.114 A 
HETATM    7  C   UNK     0       6.734  -5.167  -6.299  0.00  0.00     0.101 A 
HETATM    8  N   UNK     0       5.471  -5.020  -6.729  0.00  0.00    -0.133 NA
HETATM    9  N   UNK     0       4.680  -5.028  -5.699  0.00  0.00    -0.064 NA
BRANCH   7  10
HETATM   10  C   UNK     0       7.933  -5.239  -7.165  0.00  0.00     0.049 C 
BRANCH  10  11
HETATM   11  C   UNK     0       8.920  -4.033  -7.015  0.00  0.00     0.006 C 
HETATM   12  C   UNK     0       8.981  -3.192  -8.334  0.00  0.00     0.000 C 
HETATM   13  C   UNK     0       9.990  -2.012  -8.258  0.00  0.00     0.000 C 
HETATM   14  C   UNK     0      11.405  -2.490  -7.844  0.00  0.00     0.000 C 
HETATM   15  C   UNK     0      11.363  -3.300  -6.524  0.00  0.00     0.000 C 
HETATM   16  C   UNK     0      10.362  -4.483  -6.608  0.00  0.00     0.000 C 
ENDBRANCH  10  11
ENDBRANCH   7  10
ENDBRANCH   4   5
ENDBRANCH   2   4
BRANCH   1  17
HETATM   17  C   UNK     0       5.037  -8.273  -3.199  0.00  0.00     0.146 C 
HETATM   18  C   UNK     0       5.515  -8.743  -4.378  0.00  0.00     0.162 C 
HETATM   19  C   UNK     0       6.709  -9.471  -4.434  0.00  0.00     0.217 C 
HETATM   20  N   UNK     0       4.850  -8.550  -5.511  0.00  0.00    -0.143 N 
HETATM   21  C   UNK     0       7.346  -9.889  -3.228  0.00  0.00     0.044 A 
HETATM   22  O   UNK     0       7.211  -9.767  -5.547  0.00  0.00    -0.285 OA
HETATM   23  C   UNK     0       8.408 -10.827  -3.230  0.00  0.00     0.003 A 
HETATM   24  C   UNK     0       6.878  -9.360  -1.992  0.00  0.00     0.044 A 
HETATM   25  C   UNK     0       9.009 -11.222  -2.023  0.00  0.00     0.000 A 
HETATM   26  C   UNK     0       8.570 -10.674  -0.806  0.00  0.00     0.000 A 
HETATM   27  C   UNK     0       7.517  -9.743  -0.788  0.00  0.00     0.003 A 
HETATM   28  C   UNK     0       5.757  -8.473  -2.009  0.00  0.00     0.215 C 
HETATM   29  O   UNK     0       5.399  -7.881  -0.960  0.00  0.00    -0.285 OA
ENDBRANCH   1  17
TORSDOF 5
ENDMDL
MODEL 7
REMARK VINA RESULT:      -6.1      3.055      5.604
REMARK  5 active torsions:
REMARK  status: ('A' for Active; 'I' for Inactive)
REMARK    1  A    between atoms: C_9  and  N_13 
REMARK       I    between atoms: N_13  and  C_14 
REMARK    2  A    between atoms: C_14  and  C_17 
REMARK    3  A    between atoms: C_17  and  N_18 
REMARK    4  A    between atoms: C_20  and  C_23 
REMARK    5  A    between atoms: C_23  and  C_24 
ROOT
HETATM    1  N   UNK     0       3.972  -7.482  -3.230  0.00  0.00    -0.205 NA
HETATM    2  C   UNK     0       3.675  -6.151  -3.260  0.00  0.00     0.281 C 
HETATM    3  O   UNK     0       2.465  -5.860  -3.120  0.00  0.00    -0.268 OA
ENDROOT
BRANCH   2   4
HETATM    4  C   UNK     0       4.641  -5.030  -3.396  0.00  0.00     0.219 C 
BRANCH   4   5
HETATM    5  N   UNK     0       5.299  -5.063  -4.667  0.00  0.00    -0.221 N 
HETATM    6  C   UNK     0       6.624  -5.118  -4.895  0.00  0.00     0.114 A 
HETATM    7  C   UNK     0       6.778  -5.170  -6.274  0.00  0.00     0.101 A 
HETATM    8  N   UNK     0       5.539  -5.119  -6.789  0.00  0.00    -0.133 NA
HETATM    9  N   UNK     0       4.687  -5.063  -5.812  0.00  0.00    -0.064 NA
BRANCH   7  10
HETATM   10  C   UNK     0       8.031  -5.273  -7.057  0.00  0.00     0.049 C 
BRANCH  10  11
HETATM   11  C   UNK     0       8.972  -4.026  -6.949  0.00  0.00     0.006 C 
HETATM   12  C   UNK     0       8.975  -3.209  -8.285  0.00  0.00     0.000 C 
HETATM   13  C   UNK     0       9.937  -1.989  -8.251  0.00  0.00     0.000 C 
HETATM   14  C   UNK     0      11.378  -2.403  -7.857  0.00  0.00     0.000 C 
HETATM   15  C   UNK     0      11.394  -3.189  -6.521  0.00  0.00     0.000 C 
HETATM   16  C   UNK     0      10.438  -4.412  -6.563  0.00  0.00     0.000 C 
ENDBRANCH  10  11
ENDBRANCH   7  10
ENDBRANCH   4   5
ENDBRANCH   2   4
BRANCH   1  17
HETATM   17  C   UNK     0       5.189  -8.033  -3.325  0.00  0.00     0.146 C 
HETATM   18  C   UNK     0       5.916  -8.216  -2.196  0.00  0.00     0.162 C 
HETATM   19  C   UNK     0       7.208  -8.753  -2.248  0.00  0.00     0.217 C 
HETATM   20  N   UNK     0       5.437  -7.864  -1.009  0.00  0.00    -0.143 N 
HETATM   21  C   UNK     0       7.849  -8.946  -3.507  0.00  0.00     0.044 A 
HETATM   22  O   UNK     0       7.806  -9.054  -1.185  0.00  0.00    -0.285 OA
HETATM   23  C   UNK     0       9.229  -9.251  -3.605  0.00  0.00     0.003 A 
HETATM   24  C   UNK     0       7.075  -8.803  -4.695  0.00  0.00     0.044 A 
HETATM   25  C   UNK     0       9.831  -9.427  -4.862  0.00  0.00     0.000 A 
HETATM   26  C   UNK     0       9.061  -9.320  -6.032  0.00  0.00     0.000 A 
HETATM   27  C   UNK     0       7.690  -9.018  -5.952  0.00  0.00     0.003 A 
HETATM   28  C   UNK     0       5.703  -8.422  -4.574  0.00  0.00     0.215 C 
HETATM   29  O   UNK     0       4.955  -8.416  -5.582  0.00  0.00    -0.285 OA
ENDBRANCH   1  17
TORSDOF 5
ENDMDL
MODEL 8
REMARK VINA RESULT:      -6.1      4.024      7.198
REMARK  5 active torsions:
REMARK  status: ('A' for Active; 'I' for Inactive)
REMARK    1  A    between atoms: C_9  and  N_13 
REMARK       I    between atoms: N_13  and  C_14 
REMARK    2  A    between atoms: C_14  and  C_17 
REMARK    3  A    between atoms: C_17  and  N_18 
REMARK    4  A    between atoms: C_20  and  C_23 
REMARK    5  A    between atoms: C_23  and  C_24 
ROOT
HETATM    1  N   UNK     0       1.863 -10.577  -6.744  0.00  0.00    -0.205 NA
HETATM    2  C   UNK     0       2.946 -10.613  -5.914  0.00  0.00     0.281 C 
HETATM    3  O   UNK     0       4.055 -10.766  -6.474  0.00  0.00    -0.268 OA
ENDROOT
BRANCH   2   4
HETATM    4  C   UNK     0       2.937 -10.446  -4.437  0.00  0.00     0.219 C 
BRANCH   4   5
HETATM    5  N   UNK     0       3.052  -9.067  -4.071  0.00  0.00    -0.221 N 
HETATM    6  C   UNK     0       4.040  -8.217  -4.406  0.00  0.00     0.114 A 
HETATM    7  C   UNK     0       3.699  -6.989  -3.854  0.00  0.00     0.101 A 
HETATM    8  N   UNK     0       2.541  -7.183  -3.204  0.00  0.00    -0.133 NA
HETATM    9  N   UNK     0       2.183  -8.421  -3.356  0.00  0.00    -0.064 NA
BRANCH   7  10
HETATM   10  C   UNK     0       4.426  -5.702  -3.950  0.00  0.00     0.049 C 
BRANCH  10  11
HETATM   11  C   UNK     0       5.566  -5.676  -5.024  0.00  0.00     0.006 C 
HETATM   12  C   UNK     0       6.709  -4.694  -4.602  0.00  0.00     0.000 C 
HETATM   13  C   UNK     0       7.842  -4.587  -5.661  0.00  0.00     0.000 C 
HETATM   14  C   UNK     0       7.288  -4.218  -7.061  0.00  0.00     0.000 C 
HETATM   15  C   UNK     0       6.174  -5.199  -7.504  0.00  0.00     0.000 C 
HETATM   16  C   UNK     0       5.041  -5.295  -6.448  0.00  0.00     0.000 C 
ENDBRANCH  10  11
ENDBRANCH   7  10
ENDBRANCH   4   5
ENDBRANCH   2   4
BRANCH   1  17
HETATM   17  C   UNK     0       0.586 -10.391  -6.385  0.00  0.00     0.146 C 
HETATM   18  C   UNK     0       0.109  -9.125  -6.288  0.00  0.00     0.162 C 
HETATM   19  C   UNK     0      -1.208  -8.879  -5.882  0.00  0.00     0.217 C 
HETATM   20  N   UNK     0       0.885  -8.080  -6.548  0.00  0.00    -0.143 N 
HETATM   21  C   UNK     0      -2.011  -9.948  -5.387  0.00  0.00     0.044 A 
HETATM   22  O   UNK     0      -1.676  -7.715  -5.942  0.00  0.00    -0.285 OA
HETATM   23  C   UNK     0      -3.250  -9.714  -4.740  0.00  0.00     0.003 A 
HETATM   24  C   UNK     0      -1.535 -11.283  -5.531  0.00  0.00     0.044 A 
HETATM   25  C   UNK     0      -4.015 -10.790  -4.257  0.00  0.00     0.000 A 
HETATM   26  C   UNK     0      -3.561 -12.108  -4.430  0.00  0.00     0.000 A 
HETATM   27  C   UNK     0      -2.334 -12.356  -5.069  0.00  0.00     0.003 A 
HETATM   28  C   UNK     0      -0.249 -11.489  -6.120  0.00  0.00     0.215 C 
HETATM   29  O   UNK     0       0.147 -12.650  -6.387  0.00  0.00    -0.285 OA
ENDBRANCH   1  17
TORSDOF 5
ENDMDL
MODEL 9
REMARK VINA RESULT:      -6.1      2.658      5.158
REMARK  5 active torsions:
REMARK  status: ('A' for Active; 'I' for Inactive)
REMARK    1  A    between atoms: C_9  and  N_13 
REMARK       I    between atoms: N_13  and  C_14 
REMARK    2  A    between atoms: C_14  and  C_17 
REMARK    3  A    between atoms: C_17  and  N_18 
REMARK    4  A    between atoms: C_20  and  C_23 
REMARK    5  A    between atoms: C_23  and  C_24 
ROOT
HETATM    1  N   UNK     0       4.589  -5.509  -3.631  0.00  0.00    -0.205 NA
HETATM    2  C   UNK     0       5.676  -5.898  -2.904  0.00  0.00     0.281 C 
HETATM    3  O   UNK     0       6.079  -5.077  -2.048  0.00  0.00    -0.268 OA
ENDROOT
BRANCH   2   4
HETATM    4  C   UNK     0       6.388  -7.199  -2.998  0.00  0.00     0.219 C 
BRANCH   4   5
HETATM    5  N   UNK     0       6.953  -7.387  -4.299  0.00  0.00    -0.221 N 
HETATM    6  C   UNK     0       7.757  -6.540  -4.967  0.00  0.00     0.114 A 
HETATM    7  C   UNK     0       8.077  -7.169  -6.163  0.00  0.00     0.101 A 
HETATM    8  N   UNK     0       7.427  -8.344  -6.150  0.00  0.00    -0.133 NA
HETATM    9  N   UNK     0       6.777  -8.444  -5.032  0.00  0.00    -0.064 NA
BRANCH   7  10
HETATM   10  C   UNK     0       8.958  -6.686  -7.251  0.00  0.00     0.049 C 
BRANCH  10  11
HETATM   11  C   UNK     0       9.181  -5.136  -7.270  0.00  0.00     0.006 C 
HETATM   12  C   UNK     0       7.993  -4.409  -7.984  0.00  0.00     0.000 C 
HETATM   13  C   UNK     0       8.190  -2.870  -8.080  0.00  0.00     0.000 C 
HETATM   14  C   UNK     0       9.540  -2.503  -8.747  0.00  0.00     0.000 C 
HETATM   15  C   UNK     0      10.729  -3.194  -8.033  0.00  0.00     0.000 C 
HETATM   16  C   UNK     0      10.532  -4.732  -7.947  0.00  0.00     0.000 C 
ENDBRANCH  10  11
ENDBRANCH   7  10
ENDBRANCH   4   5
ENDBRANCH   2   4
BRANCH   1  17
HETATM   17  C   UNK     0       3.961  -6.223  -4.574  0.00  0.00     0.146 C 
HETATM   18  C   UNK     0       3.021  -7.124  -4.198  0.00  0.00     0.162 C 
HETATM   19  C   UNK     0       2.363  -7.920  -5.143  0.00  0.00     0.217 C 
HETATM   20  N   UNK     0       2.715  -7.300  -2.918  0.00  0.00    -0.143 N 
HETATM   21  C   UNK     0       2.805  -7.925  -6.500  0.00  0.00     0.044 A 
HETATM   22  O   UNK     0       1.394  -8.638  -4.794  0.00  0.00    -0.285 OA
HETATM   23  C   UNK     0       2.340  -8.884  -7.433  0.00  0.00     0.003 A 
HETATM   24  C   UNK     0       3.756  -6.948  -6.911  0.00  0.00     0.044 A 
HETATM   25  C   UNK     0       2.801  -8.866  -8.761  0.00  0.00     0.000 A 
HETATM   26  C   UNK     0       3.713  -7.881  -9.175  0.00  0.00     0.000 A 
HETATM   27  C   UNK     0       4.184  -6.922  -8.260  0.00  0.00     0.003 A 
HETATM   28  C   UNK     0       4.266  -6.038  -5.933  0.00  0.00     0.215 C 
HETATM   29  O   UNK     0       5.001  -5.080  -6.280  0.00  0.00    -0.285 OA
ENDBRANCH   1  17
TORSDOF 5
ENDMDL
