MODEL 1
REMARK VINA RESULT:      -7.6      0.000      0.000
REMARK  3 active torsions:
REMARK  status: ('A' for Active; 'I' for Inactive)
REMARK    1  A    between atoms: C_9  and  N_13 
REMARK       I    between atoms: N_13  and  C_14 
REMARK    2  A    between atoms: C_14  and  C_17 
REMARK    3  A    between atoms: C_17  and  N_18 
ROOT
HETATM    1  N   UNK     0       2.506  -8.179  -6.698  0.00  0.00    -0.205 NA
HETATM    2  C   UNK     0       2.437  -9.506  -6.383  0.00  0.00     0.281 C 
HETATM    3  O   UNK     0       3.311 -10.064  -5.676  0.00  0.00    -0.268 OA
ENDROOT
BRANCH   1   4
HETATM    4  C   UNK     0       3.447  -7.314  -6.283  0.00  0.00     0.146 A 
HETATM    5  C   UNK     0       4.375  -6.874  -7.168  0.00  0.00     0.162 A 
HETATM    6  C   UNK     0       5.387  -5.984  -6.781  0.00  0.00     0.217 A 
HETATM    7  N   UNK     0       4.358  -7.294  -8.428  0.00  0.00    -0.143 N 
HETATM    8  C   UNK     0       5.510  -5.584  -5.418  0.00  0.00     0.044 A 
HETATM    9  O   UNK     0       6.188  -5.538  -7.639  0.00  0.00    -0.285 OA
HETATM   10  C   UNK     0       6.589  -4.783  -4.967  0.00  0.00     0.003 A 
HETATM   11  C   UNK     0       4.520  -6.008  -4.489  0.00  0.00     0.044 A 
HETATM   12  C   UNK     0       6.680  -4.400  -3.618  0.00  0.00     0.000 A 
HETATM   13  C   UNK     0       5.691  -4.800  -2.705  0.00  0.00     0.000 A 
HETATM   14  C   UNK     0       4.615  -5.594  -3.137  0.00  0.00     0.003 A 
HETATM   15  C   UNK     0       3.457  -6.842  -4.956  0.00  0.00     0.215 A 
HETATM   16  O   UNK     0       2.508  -7.128  -4.185  0.00  0.00    -0.285 OA
ENDBRANCH   1   4
BRANCH   2  17
HETATM   17  C   UNK     0       1.303 -10.318  -6.870  0.00  0.00     0.219 C 
BRANCH  17  18
HETATM   18  N   UNK     0       0.042  -9.982  -6.282  0.00  0.00    -0.221 N 
HETATM   19  C   UNK     0      -1.176 -10.409  -6.658  0.00  0.00     0.118 A 
HETATM   20  C   UNK     0      -2.070  -9.931  -5.707  0.00  0.00     0.123 A 
HETATM   21  N   UNK     0      -1.334  -9.209  -4.845  0.00  0.00    -0.129 NA
HETATM   22  C   UNK     0      -3.462 -10.169  -5.606  0.00  0.00     0.021 A 
HETATM   23  N   UNK     0      -0.094  -9.254  -5.216  0.00  0.00    -0.063 NA
HETATM   24  C   UNK     0      -4.076 -10.285  -4.335  0.00  0.00     0.002 A 
HETATM   25  C   UNK     0      -4.270 -10.305  -6.761  0.00  0.00     0.002 A 
HETATM   26  C   UNK     0      -5.456 -10.536  -4.220  0.00  0.00     0.000 A 
HETATM   27  C   UNK     0      -6.247 -10.659  -5.376  0.00  0.00     0.000 A 
HETATM   28  C   UNK     0      -5.653 -10.544  -6.646  0.00  0.00     0.000 A 
ENDBRANCH  17  18
ENDBRANCH   2  17
TORSDOF 3
ENDMDL
MODEL 2
REMARK VINA RESULT:      -7.6      1.537      2.406
REMARK  3 active torsions:
REMARK  status: ('A' for Active; 'I' for Inactive)
REMARK    1  A    between atoms: C_9  and  N_13 
REMARK       I    between atoms: N_13  and  C_14 
REMARK    2  A    between atoms: C_14  and  C_17 
REMARK    3  A    between atoms: C_17  and  N_18 
ROOT
HETATM    1  N   UNK     0       3.228  -8.774  -5.192  0.00  0.00    -0.205 NA
HETATM    2  C   UNK     0       2.212  -8.884  -6.098  0.00  0.00     0.281 C 
HETATM    3  O   UNK     0       2.004  -8.004  -6.968  0.00  0.00    -0.268 OA
ENDROOT
BRANCH   1   4
HETATM    4  C   UNK     0       4.131  -7.781  -5.131  0.00  0.00     0.146 A 
HETATM    5  C   UNK     0       3.932  -6.760  -4.262  0.00  0.00     0.162 A 
HETATM    6  C   UNK     0       4.836  -5.692  -4.171  0.00  0.00     0.217 A 
HETATM    7  N   UNK     0       2.858  -6.738  -3.482  0.00  0.00    -0.143 N 
HETATM    8  C   UNK     0       5.951  -5.617  -5.058  0.00  0.00     0.044 A 
HETATM    9  O   UNK     0       4.663  -4.799  -3.306  0.00  0.00    -0.285 OA
HETATM   10  C   UNK     0       6.817  -4.495  -5.079  0.00  0.00     0.003 A 
HETATM   11  C   UNK     0       6.191  -6.701  -5.947  0.00  0.00     0.044 A 
HETATM   12  C   UNK     0       7.911  -4.453  -5.960  0.00  0.00     0.000 A 
HETATM   13  C   UNK     0       8.161  -5.531  -6.822  0.00  0.00     0.000 A 
HETATM   14  C   UNK     0       7.311  -6.650  -6.814  0.00  0.00     0.003 A 
HETATM   15  C   UNK     0       5.288  -7.808  -5.935  0.00  0.00     0.215 A 
HETATM   16  O   UNK     0       5.546  -8.827  -6.622  0.00  0.00    -0.285 OA
ENDBRANCH   1   4
BRANCH   2  17
HETATM   17  C   UNK     0       1.333 -10.070  -6.074  0.00  0.00     0.219 C 
BRANCH  17  18
HETATM   18  N   UNK     0      -0.023  -9.793  -5.706  0.00  0.00    -0.221 N 
HETATM   19  C   UNK     0      -1.141 -10.285  -6.268  0.00  0.00     0.118 A 
HETATM   20  C   UNK     0      -2.200  -9.842  -5.485  0.00  0.00     0.123 A 
HETATM   21  N   UNK     0      -1.652  -9.074  -4.529  0.00  0.00    -0.129 NA
HETATM   22  C   UNK     0      -3.577 -10.149  -5.609  0.00  0.00     0.021 A 
HETATM   23  N   UNK     0      -0.367  -9.061  -4.691  0.00  0.00    -0.063 NA
HETATM   24  C   UNK     0      -4.385 -10.282  -4.453  0.00  0.00     0.002 A 
HETATM   25  C   UNK     0      -4.177 -10.339  -6.878  0.00  0.00     0.002 A 
HETATM   26  C   UNK     0      -5.752 -10.601  -4.561  0.00  0.00     0.000 A 
HETATM   27  C   UNK     0      -6.335 -10.777  -5.828  0.00  0.00     0.000 A 
HETATM   28  C   UNK     0      -5.546 -10.646  -6.986  0.00  0.00     0.000 A 
ENDBRANCH  17  18
ENDBRANCH   2  17
TORSDOF 3
ENDMDL
MODEL 3
REMARK VINA RESULT:      -7.5      9.884     10.696
REMARK  3 active torsions:
REMARK  status: ('A' for Active; 'I' for Inactive)
REMARK    1  A    between atoms: C_9  and  N_13 
REMARK       I    between atoms: N_13  and  C_14 
REMARK    2  A    between atoms: C_14  and  C_17 
REMARK    3  A    between atoms: C_17  and  N_18 
ROOT
HETATM    1  N   UNK     0      -1.439  -1.679 -11.545  0.00  0.00    -0.205 NA
HETATM    2  C   UNK     0      -2.675  -1.183 -11.848  0.00  0.00     0.281 C 
HETATM    3  O   UNK     0      -2.845  -0.352 -12.773  0.00  0.00    -0.268 OA
ENDROOT
BRANCH   1   4
HETATM    4  C   UNK     0      -0.293  -1.398 -12.188  0.00  0.00     0.146 A 
HETATM    5  C   UNK     0       0.559  -0.490 -11.652  0.00  0.00     0.162 A 
HETATM    6  C   UNK     0       1.760  -0.150 -12.291  0.00  0.00     0.217 A 
HETATM    7  N   UNK     0       0.265   0.117 -10.508  0.00  0.00    -0.143 N 
HETATM    8  C   UNK     0       2.073  -0.696 -13.571  0.00  0.00     0.044 A 
HETATM    9  O   UNK     0       2.562   0.640 -11.734  0.00  0.00    -0.285 OA
HETATM   10  C   UNK     0       3.215  -0.286 -14.302  0.00  0.00     0.003 A 
HETATM   11  C   UNK     0       1.206  -1.679 -14.125  0.00  0.00     0.044 A 
HETATM   12  C   UNK     0       3.501  -0.847 -15.558  0.00  0.00     0.000 A 
HETATM   13  C   UNK     0       2.658  -1.832 -16.095  0.00  0.00     0.000 A 
HETATM   14  C   UNK     0       1.520  -2.250 -15.384  0.00  0.00     0.003 A 
HETATM   15  C   UNK     0       0.041  -2.056 -13.388  0.00  0.00     0.215 A 
HETATM   16  O   UNK     0      -0.672  -3.005 -13.798  0.00  0.00    -0.285 OA
ENDBRANCH   1   4
BRANCH   2  17
HETATM   17  C   UNK     0      -3.854  -1.635 -11.082  0.00  0.00     0.219 C 
BRANCH  17  18
HETATM   18  N   UNK     0      -4.108  -0.882  -9.891  0.00  0.00    -0.221 N 
HETATM   19  C   UNK     0      -4.894  -1.228  -8.856  0.00  0.00     0.118 A 
HETATM   20  C   UNK     0      -4.711  -0.252  -7.883  0.00  0.00     0.123 A 
HETATM   21  N   UNK     0      -3.861   0.640  -8.416  0.00  0.00    -0.129 NA
HETATM   22  C   UNK     0      -5.255  -0.198  -6.576  0.00  0.00     0.021 A 
HETATM   23  N   UNK     0      -3.528   0.243  -9.603  0.00  0.00    -0.063 NA
HETATM   24  C   UNK     0      -4.494   0.341  -5.510  0.00  0.00     0.002 A 
HETATM   25  C   UNK     0      -6.556  -0.683  -6.300  0.00  0.00     0.002 A 
HETATM   26  C   UNK     0      -5.016   0.388  -4.203  0.00  0.00     0.000 A 
HETATM   27  C   UNK     0      -6.313  -0.089  -3.947  0.00  0.00     0.000 A 
HETATM   28  C   UNK     0      -7.082  -0.625  -4.996  0.00  0.00     0.000 A 
ENDBRANCH  17  18
ENDBRANCH   2  17
TORSDOF 3
ENDMDL
MODEL 4
REMARK VINA RESULT:      -7.3      2.545      8.864
REMARK  3 active torsions:
REMARK  status: ('A' for Active; 'I' for Inactive)
REMARK    1  A    between atoms: C_9  and  N_13 
REMARK       I    between atoms: N_13  and  C_14 
REMARK    2  A    between atoms: C_14  and  C_17 
REMARK    3  A    between atoms: C_17  and  N_18 
ROOT
HETATM    1  N   UNK     0       1.646  -7.947  -5.011  0.00  0.00    -0.205 NA
HETATM    2  C   UNK     0       2.443  -8.400  -3.999  0.00  0.00     0.281 C 
HETATM    3  O   UNK     0       2.682  -9.622  -3.843  0.00  0.00    -0.268 OA
ENDROOT
BRANCH   1   4
HETATM    4  C   UNK     0       1.066  -8.699  -5.962  0.00  0.00     0.146 A 
HETATM    5  C   UNK     0       1.753  -8.967  -7.100  0.00  0.00     0.162 A 
HETATM    6  C   UNK     0       1.187  -9.734  -8.129  0.00  0.00     0.217 A 
HETATM    7  N   UNK     0       2.980  -8.492  -7.275  0.00  0.00    -0.143 N 
HETATM    8  C   UNK     0      -0.164 -10.181  -8.033  0.00  0.00     0.044 A 
HETATM    9  O   UNK     0       1.874 -10.026  -9.139  0.00  0.00    -0.285 OA
HETATM   10  C   UNK     0      -0.808 -10.852  -9.102  0.00  0.00     0.003 A 
HETATM   11  C   UNK     0      -0.881  -9.938  -6.829  0.00  0.00     0.044 A 
HETATM   12  C   UNK     0      -2.139 -11.286  -8.976  0.00  0.00     0.000 A 
HETATM   13  C   UNK     0      -2.839 -11.066  -7.780  0.00  0.00     0.000 A 
HETATM   14  C   UNK     0      -2.215 -10.401  -6.710  0.00  0.00     0.003 A 
HETATM   15  C   UNK     0      -0.224  -9.230  -5.774  0.00  0.00     0.215 A 
HETATM   16  O   UNK     0      -0.792  -9.111  -4.661  0.00  0.00    -0.285 OA
ENDBRANCH   1   4
BRANCH   2  17
HETATM   17  C   UNK     0       3.058  -7.438  -3.062  0.00  0.00     0.219 C 
BRANCH  17  18
HETATM   18  N   UNK     0       4.020  -6.563  -3.662  0.00  0.00    -0.221 N 
HETATM   19  C   UNK     0       5.113  -6.907  -4.365  0.00  0.00     0.118 A 
HETATM   20  C   UNK     0       5.649  -5.724  -4.859  0.00  0.00     0.123 A 
HETATM   21  N   UNK     0       4.867  -4.741  -4.382  0.00  0.00    -0.129 NA
HETATM   22  C   UNK     0       6.758  -5.551  -5.723  0.00  0.00     0.021 A 
HETATM   23  N   UNK     0       3.918  -5.269  -3.675  0.00  0.00    -0.063 NA
HETATM   24  C   UNK     0       6.755  -4.513  -6.688  0.00  0.00     0.002 A 
HETATM   25  C   UNK     0       7.885  -6.405  -5.653  0.00  0.00     0.002 A 
HETATM   26  C   UNK     0       7.844  -4.339  -7.562  0.00  0.00     0.000 A 
HETATM   27  C   UNK     0       8.960  -5.189  -7.473  0.00  0.00     0.000 A 
HETATM   28  C   UNK     0       8.979  -6.223  -6.519  0.00  0.00     0.000 A 
ENDBRANCH  17  18
ENDBRANCH   2  17
TORSDOF 3
ENDMDL
MODEL 5
REMARK VINA RESULT:      -7.3     12.453     14.139
REMARK  3 active torsions:
REMARK  status: ('A' for Active; 'I' for Inactive)
REMARK    1  A    between atoms: C_9  and  N_13 
REMARK       I    between atoms: N_13  and  C_14 
REMARK    2  A    between atoms: C_14  and  C_17 
REMARK    3  A    between atoms: C_17  and  N_18 
ROOT
HETATM    1  N   UNK     0      -0.348  -7.917   5.235  0.00  0.00    -0.205 NA
HETATM    2  C   UNK     0      -1.625  -7.993   5.713  0.00  0.00     0.281 C 
HETATM    3  O   UNK     0      -2.002  -8.942   6.443  0.00  0.00    -0.268 OA
ENDROOT
BRANCH   1   4
HETATM    4  C   UNK     0       0.650  -8.779   5.497  0.00  0.00     0.146 A 
HETATM    5  C   UNK     0       1.491  -8.520   6.529  0.00  0.00     0.162 A 
HETATM    6  C   UNK     0       2.556  -9.379   6.834  0.00  0.00     0.217 A 
HETATM    7  N   UNK     0       1.334  -7.429   7.270  0.00  0.00    -0.143 N 
HETATM    8  C   UNK     0       2.829 -10.508   6.007  0.00  0.00     0.044 A 
HETATM    9  O   UNK     0       3.273  -9.151   7.840  0.00  0.00    -0.285 OA
HETATM   10  C   UNK     0       3.966 -11.329   6.211  0.00  0.00     0.003 A 
HETATM   11  C   UNK     0       1.932 -10.811   4.946  0.00  0.00     0.044 A 
HETATM   12  C   UNK     0       4.205 -12.438   5.383  0.00  0.00     0.000 A 
HETATM   13  C   UNK     0       3.308 -12.750   4.350  0.00  0.00     0.000 A 
HETATM   14  C   UNK     0       2.176 -11.946   4.134  0.00  0.00     0.003 A 
HETATM   15  C   UNK     0       0.808  -9.952   4.735  0.00  0.00     0.215 A 
HETATM   16  O   UNK     0      -0.061 -10.266   3.885  0.00  0.00    -0.285 OA
ENDBRANCH   1   4
BRANCH   2  17
HETATM   17  C   UNK     0      -2.596  -6.932   5.381  0.00  0.00     0.219 C 
BRANCH  17  18
HETATM   18  N   UNK     0      -2.822  -5.988   6.434  0.00  0.00    -0.221 N 
HETATM   19  C   UNK     0      -3.449  -6.201   7.604  0.00  0.00     0.118 A 
HETATM   20  C   UNK     0      -3.294  -5.037   8.348  0.00  0.00     0.123 A 
HETATM   21  N   UNK     0      -2.623  -4.184   7.557  0.00  0.00    -0.129 NA
HETATM   22  C   UNK     0      -3.705  -4.781   9.679  0.00  0.00     0.021 A 
HETATM   23  N   UNK     0      -2.364  -4.773   6.433  0.00  0.00    -0.063 NA
HETATM   24  C   UNK     0      -2.914  -3.963  10.524  0.00  0.00     0.002 A 
HETATM   25  C   UNK     0      -4.899  -5.336  10.200  0.00  0.00     0.002 A 
HETATM   26  C   UNK     0      -3.303  -3.712  11.853  0.00  0.00     0.000 A 
HETATM   27  C   UNK     0      -4.496  -4.262  12.353  0.00  0.00     0.000 A 
HETATM   28  C   UNK     0      -5.293  -5.075  11.526  0.00  0.00     0.000 A 
ENDBRANCH  17  18
ENDBRANCH   2  17
TORSDOF 3
ENDMDL
MODEL 6
REMARK VINA RESULT:      -7.3     12.621     14.255
REMARK  3 active torsions:
REMARK  status: ('A' for Active; 'I' for Inactive)
REMARK    1  A    between atoms: C_9  and  N_13 
REMARK       I    between atoms: N_13  and  C_14 
REMARK    2  A    between atoms: C_14  and  C_17 
REMARK    3  A    between atoms: C_17  and  N_18 
ROOT
HETATM    1  N   UNK     0      -0.282  -7.600   5.443  0.00  0.00    -0.205 NA
HETATM    2  C   UNK     0      -1.588  -7.783   5.798  0.00  0.00     0.281 C 
HETATM    3  O   UNK     0      -1.965  -8.797   6.434  0.00  0.00    -0.268 OA
ENDROOT
BRANCH   1   4
HETATM    4  C   UNK     0       0.743  -8.415   5.746  0.00  0.00     0.146 A 
HETATM    5  C   UNK     0       1.019  -9.460   4.927  0.00  0.00     0.162 A 
HETATM    6  C   UNK     0       2.067 -10.348   5.207  0.00  0.00     0.217 A 
HETATM    7  N   UNK     0       0.286  -9.679   3.841  0.00  0.00    -0.143 N 
HETATM    8  C   UNK     0       2.818 -10.218   6.412  0.00  0.00     0.044 A 
HETATM    9  O   UNK     0       2.345 -11.263   4.392  0.00  0.00    -0.285 OA
HETATM   10  C   UNK     0       3.802 -11.165   6.788  0.00  0.00     0.003 A 
HETATM   11  C   UNK     0       2.563  -9.104   7.260  0.00  0.00     0.044 A 
HETATM   12  C   UNK     0       4.530 -11.006   7.980  0.00  0.00     0.000 A 
HETATM   13  C   UNK     0       4.294  -9.896   8.804  0.00  0.00     0.000 A 
HETATM   14  C   UNK     0       3.321  -8.947   8.447  0.00  0.00     0.003 A 
HETATM   15  C   UNK     0       1.543  -8.176   6.880  0.00  0.00     0.215 A 
HETATM   16  O   UNK     0       1.383  -7.124   7.546  0.00  0.00    -0.285 OA
ENDBRANCH   1   4
BRANCH   2  17
HETATM   17  C   UNK     0      -2.595  -6.764   5.440  0.00  0.00     0.219 C 
BRANCH  17  18
HETATM   18  N   UNK     0      -2.889  -5.832   6.487  0.00  0.00    -0.221 N 
HETATM   19  C   UNK     0      -3.489  -6.085   7.663  0.00  0.00     0.118 A 
HETATM   20  C   UNK     0      -3.424  -4.906   8.397  0.00  0.00     0.123 A 
HETATM   21  N   UNK     0      -2.829  -4.008   7.594  0.00  0.00    -0.129 NA
HETATM   22  C   UNK     0      -3.845  -4.672   9.728  0.00  0.00     0.021 A 
HETATM   23  N   UNK     0      -2.531  -4.584   6.473  0.00  0.00    -0.063 NA
HETATM   24  C   UNK     0      -3.118  -3.786  10.561  0.00  0.00     0.002 A 
HETATM   25  C   UNK     0      -4.987  -5.317  10.263  0.00  0.00     0.002 A 
HETATM   26  C   UNK     0      -3.517  -3.555  11.891  0.00  0.00     0.000 A 
HETATM   27  C   UNK     0      -4.658  -4.195  12.404  0.00  0.00     0.000 A 
HETATM   28  C   UNK     0      -5.392  -5.077  11.589  0.00  0.00     0.000 A 
ENDBRANCH  17  18
ENDBRANCH   2  17
TORSDOF 3
ENDMDL
MODEL 7
REMARK VINA RESULT:      -7.2      2.476      9.595
REMARK  3 active torsions:
REMARK  status: ('A' for Active; 'I' for Inactive)
REMARK    1  A    between atoms: C_9  and  N_13 
REMARK       I    between atoms: N_13  and  C_14 
REMARK    2  A    between atoms: C_14  and  C_17 
REMARK    3  A    between atoms: C_17  and  N_18 
ROOT
HETATM    1  N   UNK     0      -1.318  -9.066  -7.102  0.00  0.00    -0.205 NA
HETATM    2  C   UNK     0      -0.133  -9.738  -7.208  0.00  0.00     0.281 C 
HETATM    3  O   UNK     0      -0.060 -10.979  -7.037  0.00  0.00    -0.268 OA
ENDROOT
BRANCH   1   4
HETATM    4  C   UNK     0      -2.520  -9.614  -6.855  0.00  0.00     0.146 A 
HETATM    5  C   UNK     0      -2.961  -9.687  -5.574  0.00  0.00     0.162 A 
HETATM    6  C   UNK     0      -4.200 -10.263  -5.262  0.00  0.00     0.217 A 
HETATM    7  N   UNK     0      -2.215  -9.227  -4.577  0.00  0.00    -0.143 N 
HETATM    8  C   UNK     0      -4.993 -10.863  -6.285  0.00  0.00     0.044 A 
HETATM    9  O   UNK     0      -4.614 -10.251  -4.076  0.00  0.00    -0.285 OA
HETATM   10  C   UNK     0      -6.191 -11.561  -5.992  0.00  0.00     0.003 A 
HETATM   11  C   UNK     0      -4.559 -10.758  -7.636  0.00  0.00     0.044 A 
HETATM   12  C   UNK     0      -6.954 -12.136  -7.023  0.00  0.00     0.000 A 
HETATM   13  C   UNK     0      -6.538 -12.014  -8.358  0.00  0.00     0.000 A 
HETATM   14  C   UNK     0      -5.351 -11.326  -8.665  0.00  0.00     0.003 A 
HETATM   15  C   UNK     0      -3.330 -10.080  -7.908  0.00  0.00     0.215 A 
HETATM   16  O   UNK     0      -2.989  -9.869  -9.098  0.00  0.00    -0.285 OA
ENDBRANCH   1   4
BRANCH   2  17
HETATM   17  C   UNK     0       1.100  -9.000  -7.544  0.00  0.00     0.219 C 
BRANCH  17  18
HETATM   18  N   UNK     0       1.776  -8.435  -6.415  0.00  0.00    -0.221 N 
HETATM   19  C   UNK     0       2.954  -7.787  -6.406  0.00  0.00     0.118 A 
HETATM   20  C   UNK     0       3.125  -7.304  -5.114  0.00  0.00     0.123 A 
HETATM   21  N   UNK     0       2.058  -7.733  -4.419  0.00  0.00    -0.129 NA
HETATM   22  C   UNK     0       4.168  -6.491  -4.607  0.00  0.00     0.021 A 
HETATM   23  N   UNK     0       1.284  -8.402  -5.214  0.00  0.00    -0.063 NA
HETATM   24  C   UNK     0       3.893  -5.514  -3.618  0.00  0.00     0.002 A 
HETATM   25  C   UNK     0       5.497  -6.623  -5.076  0.00  0.00     0.002 A 
HETATM   26  C   UNK     0       4.918  -4.689  -3.116  0.00  0.00     0.000 A 
HETATM   27  C   UNK     0       6.234  -4.839  -3.584  0.00  0.00     0.000 A 
HETATM   28  C   UNK     0       6.523  -5.806  -4.565  0.00  0.00     0.000 A 
ENDBRANCH  17  18
ENDBRANCH   2  17
TORSDOF 3
ENDMDL
MODEL 8
REMARK VINA RESULT:      -7.2      1.891      1.985
REMARK  3 active torsions:
REMARK  status: ('A' for Active; 'I' for Inactive)
REMARK    1  A    between atoms: C_9  and  N_13 
REMARK       I    between atoms: N_13  and  C_14 
REMARK    2  A    between atoms: C_14  and  C_17 
REMARK    3  A    between atoms: C_17  and  N_18 
ROOT
HETATM    1  N   UNK     0       2.239  -7.644  -6.055  0.00  0.00    -0.205 NA
HETATM    2  C   UNK     0       1.508  -8.706  -6.507  0.00  0.00     0.281 C 
HETATM    3  O   UNK     0       1.910  -9.888  -6.379  0.00  0.00    -0.268 OA
ENDROOT
BRANCH   1   4
HETATM    4  C   UNK     0       3.411  -7.710  -5.402  0.00  0.00     0.146 A 
HETATM    5  C   UNK     0       4.566  -7.605  -6.106  0.00  0.00     0.162 A 
HETATM    6  C   UNK     0       5.815  -7.683  -5.474  0.00  0.00     0.217 A 
HETATM    7  N   UNK     0       4.540  -7.442  -7.423  0.00  0.00    -0.143 N 
HETATM    8  C   UNK     0       5.898  -7.960  -4.077  0.00  0.00     0.044 A 
HETATM    9  O   UNK     0       6.864  -7.510  -6.141  0.00  0.00    -0.285 OA
HETATM   10  C   UNK     0       7.140  -8.166  -3.427  0.00  0.00     0.003 A 
HETATM   11  C   UNK     0       4.694  -8.034  -3.322  0.00  0.00     0.044 A 
HETATM   12  C   UNK     0       7.190  -8.431  -2.048  0.00  0.00     0.000 A 
HETATM   13  C   UNK     0       6.005  -8.482  -1.298  0.00  0.00     0.000 A 
HETATM   14  C   UNK     0       4.765  -8.280  -1.928  0.00  0.00     0.003 A 
HETATM   15  C   UNK     0       3.449  -7.855  -4.002  0.00  0.00     0.215 A 
HETATM   16  O   UNK     0       2.385  -7.795  -3.339  0.00  0.00    -0.285 OA
ENDBRANCH   1   4
BRANCH   2  17
HETATM   17  C   UNK     0       0.203  -8.474  -7.158  0.00  0.00     0.219 C 
BRANCH  17  18
HETATM   18  N   UNK     0      -0.928  -8.841  -6.359  0.00  0.00    -0.221 N 
HETATM   19  C   UNK     0      -2.068  -9.420  -6.773  0.00  0.00     0.118 A 
HETATM   20  C   UNK     0      -2.799  -9.709  -5.626  0.00  0.00     0.123 A 
HETATM   21  N   UNK     0      -2.068  -9.243  -4.600  0.00  0.00    -0.129 NA
HETATM   22  C   UNK     0      -4.035 -10.391  -5.517  0.00  0.00     0.021 A 
HETATM   23  N   UNK     0      -0.973  -8.731  -5.067  0.00  0.00    -0.063 NA
HETATM   24  C   UNK     0      -4.290 -11.233  -4.407  0.00  0.00     0.002 A 
HETATM   25  C   UNK     0      -5.038 -10.258  -6.508  0.00  0.00     0.002 A 
HETATM   26  C   UNK     0      -5.509 -11.927  -4.293  0.00  0.00     0.000 A 
HETATM   27  C   UNK     0      -6.499 -11.777  -5.279  0.00  0.00     0.000 A 
HETATM   28  C   UNK     0      -6.262 -10.943  -6.387  0.00  0.00     0.000 A 
ENDBRANCH  17  18
ENDBRANCH   2  17
TORSDOF 3
ENDMDL
MODEL 9
REMARK VINA RESULT:      -7.1      5.042     11.528
REMARK  3 active torsions:
REMARK  status: ('A' for Active; 'I' for Inactive)
REMARK    1  A    between atoms: C_9  and  N_13 
REMARK       I    between atoms: N_13  and  C_14 
REMARK    2  A    between atoms: C_14  and  C_17 
REMARK    3  A    between atoms: C_17  and  N_18 
ROOT
HETATM    1  N   UNK     0       6.766  -5.119  -7.213  0.00  0.00    -0.205 NA
HETATM    2  C   UNK     0       7.915  -5.730  -7.627  0.00  0.00     0.281 C 
HETATM    3  O   UNK     0       8.333  -6.784  -7.090  0.00  0.00    -0.268 OA
ENDROOT
BRANCH   1   4
HETATM    4  C   UNK     0       5.938  -5.557  -6.249  0.00  0.00     0.146 A 
HETATM    5  C   UNK     0       6.114  -5.117  -4.978  0.00  0.00     0.162 A 
HETATM    6  C   UNK     0       5.287  -5.557  -3.934  0.00  0.00     0.217 A 
HETATM    7  N   UNK     0       7.091  -4.267  -4.687  0.00  0.00    -0.143 N 
HETATM    8  C   UNK     0       4.289  -6.547  -4.175  0.00  0.00     0.044 A 
HETATM    9  O   UNK     0       5.427  -5.077  -2.782  0.00  0.00    -0.285 OA
HETATM   10  C   UNK     0       3.517  -7.104  -3.125  0.00  0.00     0.003 A 
HETATM   11  C   UNK     0       4.070  -6.987  -5.510  0.00  0.00     0.044 A 
HETATM   12  C   UNK     0       2.536  -8.073  -3.395  0.00  0.00     0.000 A 
HETATM   13  C   UNK     0       2.305  -8.491  -4.714  0.00  0.00     0.000 A 
HETATM   14  C   UNK     0       3.063  -7.950  -5.767  0.00  0.00     0.003 A 
HETATM   15  C   UNK     0       4.882  -6.438  -6.552  0.00  0.00     0.215 A 
HETATM   16  O   UNK     0       4.627  -6.718  -7.749  0.00  0.00    -0.285 OA
ENDBRANCH   1   4
BRANCH   2  17
HETATM   17  C   UNK     0       8.690  -5.154  -8.744  0.00  0.00     0.219 C 
BRANCH  17  18
HETATM   18  N   UNK     0       9.219  -3.850  -8.484  0.00  0.00    -0.221 N 
HETATM   19  C   UNK     0      10.294  -3.536  -7.739  0.00  0.00     0.118 A 
HETATM   20  C   UNK     0      10.495  -2.170  -7.899  0.00  0.00     0.123 A 
HETATM   21  N   UNK     0       9.500  -1.744  -8.694  0.00  0.00    -0.129 NA
HETATM   22  C   UNK     0      11.543  -1.368  -7.384  0.00  0.00     0.021 A 
HETATM   23  N   UNK     0       8.762  -2.758  -9.017  0.00  0.00    -0.063 NA
HETATM   24  C   UNK     0      12.050  -0.285  -8.144  0.00  0.00     0.002 A 
HETATM   25  C   UNK     0      12.112  -1.627  -6.114  0.00  0.00     0.002 A 
HETATM   26  C   UNK     0      13.100   0.512  -7.651  0.00  0.00     0.000 A 
HETATM   27  C   UNK     0      13.648   0.249  -6.384  0.00  0.00     0.000 A 
HETATM   28  C   UNK     0      13.154  -0.822  -5.616  0.00  0.00     0.000 A 
ENDBRANCH  17  18
ENDBRANCH   2  17
TORSDOF 3
ENDMDL
