MODEL 1
REMARK VINA RESULT:      -6.6      0.000      0.000
REMARK  4 active torsions:
REMARK  status: ('A' for Active; 'I' for Inactive)
REMARK    1  A    between atoms: C_9  and  N_13 
REMARK       I    between atoms: N_13  and  C_14 
REMARK    2  A    between atoms: C_14  and  C_17 
REMARK    3  A    between atoms: C_17  and  N_18 
REMARK    4  A    between atoms: C_20  and  C_23 
ROOT
HETATM    1  N   UNK     0       4.081  -7.590  -3.330  0.00  0.00    -0.205 NA
HETATM    2  C   UNK     0       3.703  -6.277  -3.292  0.00  0.00     0.281 C 
HETATM    3  O   UNK     0       2.478  -6.067  -3.133  0.00  0.00    -0.268 OA
ENDROOT
BRANCH   1   4
HETATM    4  C   UNK     0       5.329  -8.059  -3.445  0.00  0.00     0.146 C 
HETATM    5  C   UNK     0       6.064  -8.272  -2.327  0.00  0.00     0.162 C 
HETATM    6  C   UNK     0       7.401  -8.680  -2.411  0.00  0.00     0.217 C 
HETATM    7  N   UNK     0       5.550  -8.066  -1.121  0.00  0.00    -0.143 N 
HETATM    8  C   UNK     0       8.064  -8.697  -3.675  0.00  0.00     0.044 A 
HETATM    9  O   UNK     0       8.023  -9.012  -1.372  0.00  0.00    -0.285 OA
HETATM   10  C   UNK     0       9.467  -8.837  -3.787  0.00  0.00     0.003 A 
HETATM   11  C   UNK     0       7.282  -8.536  -4.854  0.00  0.00     0.044 A 
HETATM   12  C   UNK     0      10.087  -8.819  -5.049  0.00  0.00     0.000 A 
HETATM   13  C   UNK     0       9.312  -8.690  -6.213  0.00  0.00     0.000 A 
HETATM   14  C   UNK     0       7.917  -8.558  -6.118  0.00  0.00     0.003 A 
HETATM   15  C   UNK     0       5.877  -8.321  -4.713  0.00  0.00     0.215 C 
HETATM   16  O   UNK     0       5.129  -8.350  -5.721  0.00  0.00    -0.285 OA
ENDBRANCH   1   4
BRANCH   2  17
HETATM   17  C   UNK     0       4.590  -5.089  -3.383  0.00  0.00     0.219 C 
BRANCH  17  18
HETATM   18  N   UNK     0       5.197  -4.973  -4.673  0.00  0.00    -0.221 N 
HETATM   19  C   UNK     0       6.505  -4.816  -4.933  0.00  0.00     0.114 A 
HETATM   20  C   UNK     0       6.636  -4.823  -6.312  0.00  0.00     0.101 A 
HETATM   21  N   UNK     0       5.392  -4.968  -6.799  0.00  0.00    -0.133 NA
HETATM   22  N   UNK     0       4.564  -5.049  -5.804  0.00  0.00    -0.064 NA
BRANCH  20  23
HETATM   23  C   UNK     0       7.897  -4.722  -7.087  0.00  0.00     0.044 C 
HETATM   24  C   UNK     0       9.178  -4.970  -6.258  0.00  0.00     0.006 C 
HETATM   25  C   UNK     0      10.307  -4.344  -7.097  0.00  0.00     0.000 C 
HETATM   26  C   UNK     0       9.660  -3.180  -7.879  0.00  0.00     0.000 C 
HETATM   27  C   UNK     0       8.128  -3.333  -7.729  0.00  0.00     0.006 C 
ENDBRANCH  20  23
ENDBRANCH  17  18
ENDBRANCH   2  17
TORSDOF 4
ENDMDL
MODEL 2
REMARK VINA RESULT:      -6.4     11.177     13.253
REMARK  4 active torsions:
REMARK  status: ('A' for Active; 'I' for Inactive)
REMARK    1  A    between atoms: C_9  and  N_13 
REMARK       I    between atoms: N_13  and  C_14 
REMARK    2  A    between atoms: C_14  and  C_17 
REMARK    3  A    between atoms: C_17  and  N_18 
REMARK    4  A    between atoms: C_20  and  C_23 
ROOT
HETATM    1  N   UNK     0      -4.661  -0.118 -10.759  0.00  0.00    -0.205 NA
HETATM    2  C   UNK     0      -3.675  -0.523 -11.614  0.00  0.00     0.281 C 
HETATM    3  O   UNK     0      -3.598   0.108 -12.694  0.00  0.00    -0.268 OA
ENDROOT
BRANCH   1   4
HETATM    4  C   UNK     0      -4.909  -0.606  -9.538  0.00  0.00     0.146 C 
HETATM    5  C   UNK     0      -5.774  -1.640  -9.399  0.00  0.00     0.162 C 
HETATM    6  C   UNK     0      -6.125  -2.120  -8.131  0.00  0.00     0.217 C 
HETATM    7  N   UNK     0      -6.342  -2.204 -10.458  0.00  0.00    -0.143 N 
HETATM    8  C   UNK     0      -5.721  -1.408  -6.962  0.00  0.00     0.044 A 
HETATM    9  O   UNK     0      -6.811  -3.166  -8.024  0.00  0.00    -0.285 OA
HETATM   10  C   UNK     0      -6.264  -1.689  -5.686  0.00  0.00     0.003 A 
HETATM   11  C   UNK     0      -4.765  -0.364  -7.099  0.00  0.00     0.044 A 
HETATM   12  C   UNK     0      -5.863  -0.945  -4.561  0.00  0.00     0.000 A 
HETATM   13  C   UNK     0      -4.897   0.065  -4.692  0.00  0.00     0.000 A 
HETATM   14  C   UNK     0      -4.343   0.350  -5.952  0.00  0.00     0.003 A 
HETATM   15  C   UNK     0      -4.286  -0.048  -8.408  0.00  0.00     0.215 C 
HETATM   16  O   UNK     0      -3.320   0.740  -8.555  0.00  0.00    -0.285 OA
ENDBRANCH   1   4
BRANCH   2  17
HETATM   17  C   UNK     0      -2.676  -1.598 -11.382  0.00  0.00     0.219 C 
BRANCH  17  18
HETATM   18  N   UNK     0      -1.335  -1.109 -11.466  0.00  0.00    -0.221 N 
HETATM   19  C   UNK     0      -0.741  -0.247 -10.626  0.00  0.00     0.114 A 
HETATM   20  C   UNK     0       0.570  -0.119 -11.055  0.00  0.00     0.101 A 
HETATM   21  N   UNK     0       0.681  -0.902 -12.141  0.00  0.00    -0.133 NA
HETATM   22  N   UNK     0      -0.465  -1.470 -12.360  0.00  0.00    -0.064 NA
BRANCH  20  23
HETATM   23  C   UNK     0       1.639   0.694 -10.423  0.00  0.00     0.044 C 
HETATM   24  C   UNK     0       1.476   0.888  -8.898  0.00  0.00     0.006 C 
HETATM   25  C   UNK     0       2.352   2.111  -8.570  0.00  0.00     0.000 C 
HETATM   26  C   UNK     0       2.349   2.990  -9.840  0.00  0.00     0.000 C 
HETATM   27  C   UNK     0       1.740   2.135 -10.977  0.00  0.00     0.006 C 
ENDBRANCH  20  23
ENDBRANCH  17  18
ENDBRANCH   2  17
TORSDOF 4
ENDMDL
MODEL 3
REMARK VINA RESULT:      -6.4      3.027      4.718
REMARK  4 active torsions:
REMARK  status: ('A' for Active; 'I' for Inactive)
REMARK    1  A    between atoms: C_9  and  N_13 
REMARK       I    between atoms: N_13  and  C_14 
REMARK    2  A    between atoms: C_14  and  C_17 
REMARK    3  A    between atoms: C_17  and  N_18 
REMARK    4  A    between atoms: C_20  and  C_23 
ROOT
HETATM    1  N   UNK     0       4.980  -6.575  -2.127  0.00  0.00    -0.205 NA
HETATM    2  C   UNK     0       5.916  -5.711  -2.622  0.00  0.00     0.281 C 
HETATM    3  O   UNK     0       6.176  -4.719  -1.903  0.00  0.00    -0.268 OA
ENDROOT
BRANCH   1   4
HETATM    4  C   UNK     0       4.572  -7.719  -2.688  0.00  0.00     0.146 C 
HETATM    5  C   UNK     0       5.366  -8.815  -2.613  0.00  0.00     0.162 C 
HETATM    6  C   UNK     0       5.013 -10.005  -3.262  0.00  0.00     0.217 C 
HETATM    7  N   UNK     0       6.517  -8.783  -1.954  0.00  0.00    -0.143 N 
HETATM    8  C   UNK     0       3.907 -10.026  -4.164  0.00  0.00     0.044 A 
HETATM    9  O   UNK     0       5.681 -11.050  -3.065  0.00  0.00    -0.285 OA
HETATM   10  C   UNK     0       3.671 -11.111  -5.040  0.00  0.00     0.003 A 
HETATM   11  C   UNK     0       3.037  -8.900  -4.197  0.00  0.00     0.044 A 
HETATM   12  C   UNK     0       2.587 -11.082  -5.937  0.00  0.00     0.000 A 
HETATM   13  C   UNK     0       1.713  -9.984  -5.947  0.00  0.00     0.000 A 
HETATM   14  C   UNK     0       1.929  -8.902  -5.077  0.00  0.00     0.003 A 
HETATM   15  C   UNK     0       3.337  -7.785  -3.356  0.00  0.00     0.215 C 
HETATM   16  O   UNK     0       2.507  -6.851  -3.224  0.00  0.00    -0.285 OA
ENDBRANCH   1   4
BRANCH   2  17
HETATM   17  C   UNK     0       6.672  -5.847  -3.894  0.00  0.00     0.219 C 
BRANCH  17  18
HETATM   18  N   UNK     0       5.802  -5.943  -5.025  0.00  0.00    -0.221 N 
HETATM   19  C   UNK     0       5.878  -6.840  -6.022  0.00  0.00     0.114 A 
HETATM   20  C   UNK     0       4.795  -6.599  -6.852  0.00  0.00     0.101 A 
HETATM   21  N   UNK     0       4.141  -5.557  -6.311  0.00  0.00    -0.133 NA
HETATM   22  N   UNK     0       4.765  -5.190  -5.234  0.00  0.00    -0.064 NA
BRANCH  20  23
HETATM   23  C   UNK     0       4.422  -7.358  -8.070  0.00  0.00     0.044 C 
HETATM   24  C   UNK     0       2.904  -7.389  -8.364  0.00  0.00     0.006 C 
HETATM   25  C   UNK     0       2.720  -8.585  -9.316  0.00  0.00     0.000 C 
HETATM   26  C   UNK     0       3.835  -9.591  -8.955  0.00  0.00     0.000 C 
HETATM   27  C   UNK     0       4.827  -8.851  -8.028  0.00  0.00     0.006 C 
ENDBRANCH  20  23
ENDBRANCH  17  18
ENDBRANCH   2  17
TORSDOF 4
ENDMDL
MODEL 4
REMARK VINA RESULT:      -6.4      3.206      5.756
REMARK  4 active torsions:
REMARK  status: ('A' for Active; 'I' for Inactive)
REMARK    1  A    between atoms: C_9  and  N_13 
REMARK       I    between atoms: N_13  and  C_14 
REMARK    2  A    between atoms: C_14  and  C_17 
REMARK    3  A    between atoms: C_17  and  N_18 
REMARK    4  A    between atoms: C_20  and  C_23 
ROOT
HETATM    1  N   UNK     0       6.572  -6.368  -3.854  0.00  0.00    -0.205 NA
HETATM    2  C   UNK     0       5.539  -5.905  -3.088  0.00  0.00     0.281 C 
HETATM    3  O   UNK     0       5.770  -5.813  -1.860  0.00  0.00    -0.268 OA
ENDROOT
BRANCH   1   4
HETATM    4  C   UNK     0       6.580  -6.509  -5.184  0.00  0.00     0.146 C 
HETATM    5  C   UNK     0       6.974  -5.470  -5.960  0.00  0.00     0.162 C 
HETATM    6  C   UNK     0       6.913  -5.550  -7.357  0.00  0.00     0.217 C 
HETATM    7  N   UNK     0       7.394  -4.333  -5.419  0.00  0.00    -0.143 N 
HETATM    8  C   UNK     0       6.262  -6.657  -7.981  0.00  0.00     0.044 A 
HETATM    9  O   UNK     0       7.415  -4.639  -8.061  0.00  0.00    -0.285 OA
HETATM   10  C   UNK     0       5.936  -6.660  -9.357  0.00  0.00     0.003 A 
HETATM   11  C   UNK     0       5.905  -7.775  -7.176  0.00  0.00     0.044 A 
HETATM   12  C   UNK     0       5.266  -7.757  -9.929  0.00  0.00     0.000 A 
HETATM   13  C   UNK     0       4.941  -8.872  -9.141  0.00  0.00     0.000 A 
HETATM   14  C   UNK     0       5.266  -8.887  -7.775  0.00  0.00     0.003 A 
HETATM   15  C   UNK     0       6.176  -7.719  -5.775  0.00  0.00     0.215 C 
HETATM   16  O   UNK     0       6.040  -8.744  -5.063  0.00  0.00    -0.285 OA
ENDBRANCH   1   4
BRANCH   2  17
HETATM   17  C   UNK     0       4.200  -5.472  -3.563  0.00  0.00     0.219 C 
BRANCH  17  18
HETATM   18  N   UNK     0       3.338  -6.584  -3.819  0.00  0.00    -0.221 N 
HETATM   19  C   UNK     0       2.975  -7.057  -5.023  0.00  0.00     0.114 A 
HETATM   20  C   UNK     0       2.197  -8.179  -4.787  0.00  0.00     0.101 A 
HETATM   21  N   UNK     0       2.126  -8.303  -3.451  0.00  0.00    -0.133 NA
HETATM   22  N   UNK     0       2.808  -7.342  -2.908  0.00  0.00    -0.064 NA
BRANCH  20  23
HETATM   23  C   UNK     0       1.593  -9.074  -5.804  0.00  0.00     0.044 C 
HETATM   24  C   UNK     0       2.363 -10.395  -6.030  0.00  0.00     0.006 C 
HETATM   25  C   UNK     0       1.877 -10.894  -7.403  0.00  0.00     0.000 C 
HETATM   26  C   UNK     0       1.518  -9.629  -8.213  0.00  0.00     0.000 C 
HETATM   27  C   UNK     0       1.502  -8.446  -7.216  0.00  0.00     0.006 C 
ENDBRANCH  20  23
ENDBRANCH  17  18
ENDBRANCH   2  17
TORSDOF 4
ENDMDL
MODEL 5
REMARK VINA RESULT:      -6.3      1.489      2.589
REMARK  4 active torsions:
REMARK  status: ('A' for Active; 'I' for Inactive)
REMARK    1  A    between atoms: C_9  and  N_13 
REMARK       I    between atoms: N_13  and  C_14 
REMARK    2  A    between atoms: C_14  and  C_17 
REMARK    3  A    between atoms: C_17  and  N_18 
REMARK    4  A    between atoms: C_20  and  C_23 
ROOT
HETATM    1  N   UNK     0       3.968  -7.595  -3.205  0.00  0.00    -0.205 NA
HETATM    2  C   UNK     0       3.793  -6.240  -3.227  0.00  0.00     0.281 C 
HETATM    3  O   UNK     0       2.605  -5.844  -3.187  0.00  0.00    -0.268 OA
ENDROOT
BRANCH   1   4
HETATM    4  C   UNK     0       5.135  -8.249  -3.194  0.00  0.00     0.146 C 
HETATM    5  C   UNK     0       5.666  -8.680  -4.364  0.00  0.00     0.162 C 
HETATM    6  C   UNK     0       6.841  -9.443  -4.385  0.00  0.00     0.217 C 
HETATM    7  N   UNK     0       5.070  -8.423  -5.522  0.00  0.00    -0.143 N 
HETATM    8  C   UNK     0       7.394  -9.935  -3.165  0.00  0.00     0.044 A 
HETATM    9  O   UNK     0       7.397  -9.709  -5.479  0.00  0.00    -0.285 OA
HETATM   10  C   UNK     0       8.409 -10.919  -3.142  0.00  0.00     0.003 A 
HETATM   11  C   UNK     0       6.879  -9.435  -1.936  0.00  0.00     0.044 A 
HETATM   12  C   UNK     0       8.908 -11.402  -1.918  0.00  0.00     0.000 A 
HETATM   13  C   UNK     0       8.420 -10.886  -0.707  0.00  0.00     0.000 A 
HETATM   14  C   UNK     0       7.418  -9.902  -0.713  0.00  0.00     0.003 A 
HETATM   15  C   UNK     0       5.802  -8.496  -1.982  0.00  0.00     0.215 C 
HETATM   16  O   UNK     0       5.438  -7.901  -0.938  0.00  0.00    -0.285 OA
ENDBRANCH   1   4
BRANCH   2  17
HETATM   17  C   UNK     0       4.855  -5.202  -3.256  0.00  0.00     0.219 C 
BRANCH  17  18
HETATM   18  N   UNK     0       5.383  -5.014  -4.572  0.00  0.00    -0.221 N 
HETATM   19  C   UNK     0       6.668  -4.806  -4.899  0.00  0.00     0.114 A 
HETATM   20  C   UNK     0       6.719  -4.753  -6.283  0.00  0.00     0.101 A 
HETATM   21  N   UNK     0       5.454  -4.915  -6.704  0.00  0.00    -0.133 NA
HETATM   22  N   UNK     0       4.688  -5.063  -5.668  0.00  0.00    -0.064 NA
BRANCH  20  23
HETATM   23  C   UNK     0       7.930  -4.582  -7.123  0.00  0.00     0.044 C 
HETATM   24  C   UNK     0       9.265  -4.686  -6.349  0.00  0.00     0.006 C 
HETATM   25  C   UNK     0      10.296  -4.006  -7.268  0.00  0.00     0.000 C 
HETATM   26  C   UNK     0       9.517  -2.934  -8.063  0.00  0.00     0.000 C 
HETATM   27  C   UNK     0       8.012  -3.208  -7.831  0.00  0.00     0.006 C 
ENDBRANCH  20  23
ENDBRANCH  17  18
ENDBRANCH   2  17
TORSDOF 4
ENDMDL
MODEL 6
REMARK VINA RESULT:      -6.3      2.986      5.066
REMARK  4 active torsions:
REMARK  status: ('A' for Active; 'I' for Inactive)
REMARK    1  A    between atoms: C_9  and  N_13 
REMARK       I    between atoms: N_13  and  C_14 
REMARK    2  A    between atoms: C_14  and  C_17 
REMARK    3  A    between atoms: C_17  and  N_18 
REMARK    4  A    between atoms: C_20  and  C_23 
ROOT
HETATM    1  N   UNK     0       4.725  -5.301  -3.622  0.00  0.00    -0.205 NA
HETATM    2  C   UNK     0       5.717  -5.735  -2.787  0.00  0.00     0.281 C 
HETATM    3  O   UNK     0       6.138  -4.894  -1.959  0.00  0.00    -0.268 OA
ENDROOT
BRANCH   1   4
HETATM    4  C   UNK     0       4.090  -6.024  -4.551  0.00  0.00     0.146 C 
HETATM    5  C   UNK     0       3.126  -6.896  -4.169  0.00  0.00     0.162 C 
HETATM    6  C   UNK     0       2.500  -7.732  -5.103  0.00  0.00     0.217 C 
HETATM    7  N   UNK     0       2.771  -7.010  -2.896  0.00  0.00    -0.143 N 
HETATM    8  C   UNK     0       2.998  -7.809  -6.439  0.00  0.00     0.044 A 
HETATM    9  O   UNK     0       1.512  -8.428  -4.761  0.00  0.00    -0.285 OA
HETATM   10  C   UNK     0       2.585  -8.819  -7.338  0.00  0.00     0.003 A 
HETATM   11  C   UNK     0       3.965  -6.853  -6.859  0.00  0.00     0.044 A 
HETATM   12  C   UNK     0       3.121  -8.881  -8.638  0.00  0.00     0.000 A 
HETATM   13  C   UNK     0       4.053  -7.919  -9.060  0.00  0.00     0.000 A 
HETATM   14  C   UNK     0       4.467  -6.905  -8.181  0.00  0.00     0.003 A 
HETATM   15  C   UNK     0       4.423  -5.888  -5.910  0.00  0.00     0.215 C 
HETATM   16  O   UNK     0       5.138  -4.925  -6.283  0.00  0.00    -0.285 OA
ENDBRANCH   1   4
BRANCH   2  17
HETATM   17  C   UNK     0       6.313  -7.094  -2.739  0.00  0.00     0.219 C 
BRANCH  17  18
HETATM   18  N   UNK     0       6.874  -7.477  -3.998  0.00  0.00    -0.221 N 
HETATM   19  C   UNK     0       6.687  -8.642  -4.639  0.00  0.00     0.114 A 
HETATM   20  C   UNK     0       7.361  -8.540  -5.845  0.00  0.00     0.101 A 
HETATM   21  N   UNK     0       7.927  -7.322  -5.849  0.00  0.00    -0.133 NA
HETATM   22  N   UNK     0       7.624  -6.720  -4.740  0.00  0.00    -0.064 NA
BRANCH  20  23
HETATM   23  C   UNK     0       7.417  -9.559  -6.922  0.00  0.00     0.044 C 
HETATM   24  C   UNK     0       7.515  -8.974  -8.350  0.00  0.00     0.006 C 
HETATM   25  C   UNK     0       7.066 -10.125  -9.269  0.00  0.00     0.000 C 
HETATM   26  C   UNK     0       6.065 -10.963  -8.444  0.00  0.00     0.000 C 
HETATM   27  C   UNK     0       6.176 -10.481  -6.978  0.00  0.00     0.006 C 
ENDBRANCH  20  23
ENDBRANCH  17  18
ENDBRANCH   2  17
TORSDOF 4
ENDMDL
MODEL 7
REMARK VINA RESULT:      -6.3      6.214      9.448
REMARK  4 active torsions:
REMARK  status: ('A' for Active; 'I' for Inactive)
REMARK    1  A    between atoms: C_9  and  N_13 
REMARK       I    between atoms: N_13  and  C_14 
REMARK    2  A    between atoms: C_14  and  C_17 
REMARK    3  A    between atoms: C_17  and  N_18 
REMARK    4  A    between atoms: C_20  and  C_23 
ROOT
HETATM    1  N   UNK     0       2.100 -10.287  -5.609  0.00  0.00    -0.205 NA
HETATM    2  C   UNK     0       0.853 -10.695  -5.993  0.00  0.00     0.281 C 
HETATM    3  O   UNK     0       0.586 -11.901  -5.783  0.00  0.00    -0.268 OA
ENDROOT
BRANCH   1   4
HETATM    4  C   UNK     0       2.595  -9.046  -5.689  0.00  0.00     0.146 C 
HETATM    5  C   UNK     0       3.227  -8.657  -6.823  0.00  0.00     0.162 C 
HETATM    6  C   UNK     0       3.833  -7.397  -6.913  0.00  0.00     0.217 C 
HETATM    7  N   UNK     0       3.322  -9.469  -7.868  0.00  0.00    -0.143 N 
HETATM    8  C   UNK     0       3.955  -6.579  -5.749  0.00  0.00     0.044 A 
HETATM    9  O   UNK     0       4.286  -6.995  -8.013  0.00  0.00    -0.285 OA
HETATM   10  C   UNK     0       4.783  -5.433  -5.719  0.00  0.00     0.003 A 
HETATM   11  C   UNK     0       3.240  -6.955  -4.577  0.00  0.00     0.044 A 
HETATM   12  C   UNK     0       4.901  -4.668  -4.544  0.00  0.00     0.000 A 
HETATM   13  C   UNK     0       4.172  -5.023  -3.398  0.00  0.00     0.000 A 
HETATM   14  C   UNK     0       3.339  -6.154  -3.415  0.00  0.00     0.003 A 
HETATM   15  C   UNK     0       2.469  -8.157  -4.608  0.00  0.00     0.215 C 
HETATM   16  O   UNK     0       1.689  -8.433  -3.663  0.00  0.00    -0.285 OA
ENDBRANCH   1   4
BRANCH   2  17
HETATM   17  C   UNK     0      -0.215  -9.856  -6.593  0.00  0.00     0.219 C 
BRANCH  17  18
HETATM   18  N   UNK     0      -1.357  -9.751  -5.738  0.00  0.00    -0.221 N 
HETATM   19  C   UNK     0      -2.454 -10.524  -5.766  0.00  0.00     0.114 A 
HETATM   20  C   UNK     0      -3.257 -10.106  -4.718  0.00  0.00     0.101 A 
HETATM   21  N   UNK     0      -2.599  -9.092  -4.132  0.00  0.00    -0.133 NA
HETATM   22  N   UNK     0      -1.481  -8.904  -4.762  0.00  0.00    -0.064 NA
BRANCH  20  23
HETATM   23  C   UNK     0      -4.562 -10.683  -4.311  0.00  0.00     0.044 C 
HETATM   24  C   UNK     0      -4.531 -12.204  -4.036  0.00  0.00     0.006 C 
HETATM   25  C   UNK     0      -6.004 -12.642  -4.129  0.00  0.00     0.000 C 
HETATM   26  C   UNK     0      -6.673 -11.676  -5.131  0.00  0.00     0.000 C 
HETATM   27  C   UNK     0      -5.679 -10.515  -5.369  0.00  0.00     0.006 C 
ENDBRANCH  20  23
ENDBRANCH  17  18
ENDBRANCH   2  17
TORSDOF 4
ENDMDL
MODEL 8
REMARK VINA RESULT:      -6.3      2.444      4.088
REMARK  4 active torsions:
REMARK  status: ('A' for Active; 'I' for Inactive)
REMARK    1  A    between atoms: C_9  and  N_13 
REMARK       I    between atoms: N_13  and  C_14 
REMARK    2  A    between atoms: C_14  and  C_17 
REMARK    3  A    between atoms: C_17  and  N_18 
REMARK    4  A    between atoms: C_20  and  C_23 
ROOT
HETATM    1  N   UNK     0       5.185  -7.495  -3.044  0.00  0.00    -0.205 NA
HETATM    2  C   UNK     0       5.274  -6.159  -2.767  0.00  0.00     0.281 C 
HETATM    3  O   UNK     0       5.923  -5.858  -1.739  0.00  0.00    -0.268 OA
ENDROOT
BRANCH   1   4
HETATM    4  C   UNK     0       4.587  -8.053  -4.103  0.00  0.00     0.146 C 
HETATM    5  C   UNK     0       5.345  -8.520  -5.124  0.00  0.00     0.162 C 
HETATM    6  C   UNK     0       4.753  -9.032  -6.286  0.00  0.00     0.217 C 
HETATM    7  N   UNK     0       6.671  -8.474  -5.069  0.00  0.00    -0.143 N 
HETATM    8  C   UNK     0       3.346  -8.897  -6.488  0.00  0.00     0.044 A 
HETATM    9  O   UNK     0       5.462  -9.592  -7.157  0.00  0.00    -0.285 OA
HETATM   10  C   UNK     0       2.740  -9.148  -7.741  0.00  0.00     0.003 A 
HETATM   11  C   UNK     0       2.541  -8.466  -5.396  0.00  0.00     0.044 A 
HETATM   12  C   UNK     0       1.354  -8.975  -7.910  0.00  0.00     0.000 A 
HETATM   13  C   UNK     0       0.557  -8.579  -6.825  0.00  0.00     0.000 A 
HETATM   14  C   UNK     0       1.143  -8.334  -5.572  0.00  0.00     0.003 A 
HETATM   15  C   UNK     0       3.186  -8.147  -4.162  0.00  0.00     0.215 C 
HETATM   16  O   UNK     0       2.503  -7.934  -3.129  0.00  0.00    -0.285 OA
ENDBRANCH   1   4
BRANCH   2  17
HETATM   17  C   UNK     0       4.716  -5.041  -3.570  0.00  0.00     0.219 C 
BRANCH  17  18
HETATM   18  N   UNK     0       5.354  -4.928  -4.845  0.00  0.00    -0.221 N 
HETATM   19  C   UNK     0       6.652  -4.665  -5.071  0.00  0.00     0.114 A 
HETATM   20  C   UNK     0       6.831  -4.721  -6.444  0.00  0.00     0.101 A 
HETATM   21  N   UNK     0       5.623  -4.999  -6.962  0.00  0.00    -0.133 NA
HETATM   22  N   UNK     0       4.771  -5.110  -5.990  0.00  0.00    -0.064 NA
BRANCH  20  23
HETATM   23  C   UNK     0       8.104  -4.541  -7.184  0.00  0.00     0.044 C 
HETATM   24  C   UNK     0       9.366  -4.530  -6.291  0.00  0.00     0.006 C 
HETATM   25  C   UNK     0      10.446  -3.857  -7.158  0.00  0.00     0.000 C 
HETATM   26  C   UNK     0       9.695  -2.877  -8.087  0.00  0.00     0.000 C 
HETATM   27  C   UNK     0       8.189  -3.211  -7.971  0.00  0.00     0.006 C 
ENDBRANCH  20  23
ENDBRANCH  17  18
ENDBRANCH   2  17
TORSDOF 4
ENDMDL
MODEL 9
REMARK VINA RESULT:      -6.2     12.386     14.511
REMARK  4 active torsions:
REMARK  status: ('A' for Active; 'I' for Inactive)
REMARK    1  A    between atoms: C_9  and  N_13 
REMARK       I    between atoms: N_13  and  C_14 
REMARK    2  A    between atoms: C_14  and  C_17 
REMARK    3  A    between atoms: C_17  and  N_18 
REMARK    4  A    between atoms: C_20  and  C_23 
ROOT
HETATM    1  N   UNK     0      -2.202  -6.394   7.691  0.00  0.00    -0.205 NA
HETATM    2  C   UNK     0      -1.813  -6.422   9.001  0.00  0.00     0.281 C 
HETATM    3  O   UNK     0      -1.995  -5.364   9.646  0.00  0.00    -0.268 OA
ENDROOT
BRANCH   1   4
HETATM    4  C   UNK     0      -2.149  -7.408   6.820  0.00  0.00     0.146 C 
HETATM    5  C   UNK     0      -3.134  -8.339   6.825  0.00  0.00     0.162 C 
HETATM    6  C   UNK     0      -3.069  -9.461   5.988  0.00  0.00     0.217 C 
HETATM    7  N   UNK     0      -4.170  -8.236   7.647  0.00  0.00    -0.143 N 
HETATM    8  C   UNK     0      -1.876  -9.734   5.253  0.00  0.00     0.044 A 
HETATM    9  O   UNK     0      -4.053 -10.236   5.898  0.00  0.00    -0.285 OA
HETATM   10  C   UNK     0      -1.656 -10.975   4.611  0.00  0.00     0.003 A 
HETATM   11  C   UNK     0      -0.869  -8.730   5.195  0.00  0.00     0.044 A 
HETATM   12  C   UNK     0      -0.455 -11.219   3.921  0.00  0.00     0.000 A 
HETATM   13  C   UNK     0       0.526 -10.218   3.840  0.00  0.00     0.000 A 
HETATM   14  C   UNK     0       0.318  -8.977   4.465  0.00  0.00     0.003 A 
HETATM   15  C   UNK     0      -1.081  -7.513   5.913  0.00  0.00     0.215 C 
HETATM   16  O   UNK     0      -0.305  -6.540   5.749  0.00  0.00    -0.285 OA
ENDBRANCH   1   4
BRANCH   2  17
HETATM   17  C   UNK     0      -1.236  -7.576   9.736  0.00  0.00     0.219 C 
BRANCH  17  18
HETATM   18  N   UNK     0       0.006  -8.004   9.170  0.00  0.00    -0.221 N 
HETATM   19  C   UNK     0       0.351  -9.262   8.851  0.00  0.00     0.114 A 
HETATM   20  C   UNK     0       1.607  -9.191   8.271  0.00  0.00     0.101 A 
HETATM   21  N   UNK     0       1.949  -7.892   8.292  0.00  0.00    -0.133 NA
HETATM   22  N   UNK     0       0.983  -7.217   8.835  0.00  0.00    -0.064 NA
BRANCH  20  23
HETATM   23  C   UNK     0       2.396 -10.317   7.714  0.00  0.00     0.044 C 
HETATM   24  C   UNK     0       3.233  -9.955   6.465  0.00  0.00     0.006 C 
HETATM   25  C   UNK     0       3.538 -11.310   5.801  0.00  0.00     0.000 C 
HETATM   26  C   UNK     0       2.351 -12.234   6.152  0.00  0.00     0.000 C 
HETATM   27  C   UNK     0       1.535 -11.518   7.255  0.00  0.00     0.006 C 
ENDBRANCH  20  23
ENDBRANCH  17  18
ENDBRANCH   2  17
TORSDOF 4
ENDMDL
