MODEL 1
REMARK VINA RESULT:      -6.5      0.000      0.000
REMARK  5 active torsions:
REMARK  status: ('A' for Active; 'I' for Inactive)
REMARK    1  A    between atoms: C_9  and  N_13 
REMARK       I    between atoms: N_13  and  C_14 
REMARK    2  A    between atoms: C_14  and  C_17 
REMARK    3  A    between atoms: C_17  and  N_18 
REMARK    4  A    between atoms: C_20  and  C_23 
REMARK    5  A    between atoms: C_23  and  C_24 
ROOT
HETATM    1  C   UNK     0      -4.309   0.307  -6.118  0.00  0.00     0.003 A 
HETATM    2  C   UNK     0      -4.839   0.048  -4.841  0.00  0.00     0.000 A 
HETATM    3  C   UNK     0      -5.805  -0.956  -4.668  0.00  0.00     0.000 A 
HETATM    4  C   UNK     0      -6.233  -1.718  -5.768  0.00  0.00     0.003 A 
HETATM    5  C   UNK     0      -5.710  -1.469  -7.060  0.00  0.00     0.044 A 
HETATM    6  C   UNK     0      -4.754  -0.427  -7.242  0.00  0.00     0.044 A 
HETATM    7  C   UNK     0      -6.128  -2.218  -8.199  0.00  0.00     0.217 C 
HETATM    8  C   UNK     0      -5.779  -1.788  -9.484  0.00  0.00     0.162 C 
HETATM    9  C   UNK     0      -4.906  -0.766  -9.668  0.00  0.00     0.146 C 
HETATM   10  C   UNK     0      -4.296  -0.146  -8.566  0.00  0.00     0.215 C 
HETATM   11  O   UNK     0      -3.360   0.670  -8.753  0.00  0.00    -0.285 OA
HETATM   12  O   UNK     0      -6.818  -3.257  -8.051  0.00  0.00    -0.285 OA
HETATM   13  N   UNK     0      -6.353  -2.391 -10.519  0.00  0.00    -0.143 N 
ENDROOT
BRANCH   9  14
HETATM   14  N   UNK     0      -4.630  -0.365 -10.915  0.00  0.00    -0.205 NA
HETATM   15  C   UNK     0      -3.612  -0.810 -11.709  0.00  0.00     0.281 C 
HETATM   16  O   UNK     0      -3.522  -0.267 -12.833  0.00  0.00    -0.268 OA
BRANCH  15  17
HETATM   17  C   UNK     0      -2.591  -1.828 -11.352  0.00  0.00     0.219 C 
BRANCH  17  18
HETATM   18  N   UNK     0      -1.264  -1.321 -11.536  0.00  0.00    -0.221 N 
HETATM   19  C   UNK     0      -0.602  -0.466 -10.736  0.00  0.00     0.114 A 
HETATM   20  C   UNK     0       0.654  -0.299 -11.304  0.00  0.00     0.102 A 
HETATM   21  N   UNK     0       0.660  -1.043 -12.421  0.00  0.00    -0.133 NA
HETATM   22  N   UNK     0      -0.488  -1.639 -12.527  0.00  0.00    -0.064 NA
BRANCH  20  23
HETATM   23  C   UNK     0       1.789   0.513 -10.806  0.00  0.00     0.062 C 
BRANCH  23  24
HETATM   24  C   UNK     0       1.657   2.040 -10.964  0.00  0.00     0.074 C 
HETATM   25 Br   UNK     0       2.451   2.981 -10.040  0.00  0.00    -0.081 Br
ENDBRANCH  23  24
ENDBRANCH  20  23
ENDBRANCH  17  18
ENDBRANCH  15  17
ENDBRANCH   9  14
TORSDOF 5
ENDMDL
MODEL 2
REMARK VINA RESULT:      -6.4     10.383     12.197
REMARK  5 active torsions:
REMARK  status: ('A' for Active; 'I' for Inactive)
REMARK    1  A    between atoms: C_9  and  N_13 
REMARK       I    between atoms: N_13  and  C_14 
REMARK    2  A    between atoms: C_14  and  C_17 
REMARK    3  A    between atoms: C_17  and  N_18 
REMARK    4  A    between atoms: C_20  and  C_23 
REMARK    5  A    between atoms: C_23  and  C_24 
ROOT
HETATM    1  C   UNK     0       3.258  -6.242  -3.450  0.00  0.00     0.003 A 
HETATM    2  C   UNK     0       4.052  -5.085  -3.367  0.00  0.00     0.000 A 
HETATM    3  C   UNK     0       4.828  -4.681  -4.466  0.00  0.00     0.000 A 
HETATM    4  C   UNK     0       4.799  -5.423  -5.659  0.00  0.00     0.003 A 
HETATM    5  C   UNK     0       4.005  -6.590  -5.758  0.00  0.00     0.044 A 
HETATM    6  C   UNK     0       3.244  -7.020  -4.632  0.00  0.00     0.044 A 
HETATM    7  C   UNK     0       3.957  -7.371  -6.951  0.00  0.00     0.217 C 
HETATM    8  C   UNK     0       3.364  -8.638  -6.933  0.00  0.00     0.162 C 
HETATM    9  C   UNK     0       2.677  -9.075  -5.849  0.00  0.00     0.146 C 
HETATM   10  C   UNK     0       2.508  -8.242  -4.731  0.00  0.00     0.215 C 
HETATM   11  O   UNK     0       1.723  -8.585  -3.814  0.00  0.00    -0.285 OA
HETATM   12  O   UNK     0       4.459  -6.927  -8.014  0.00  0.00    -0.285 OA
HETATM   13  N   UNK     0       3.519  -9.413  -8.001  0.00  0.00    -0.143 N 
ENDROOT
BRANCH   9  14
HETATM   14  N   UNK     0       2.157 -10.309  -5.864  0.00  0.00    -0.205 NA
HETATM   15  C   UNK     0       0.912 -10.663  -6.298  0.00  0.00     0.281 C 
HETATM   16  O   UNK     0       0.623 -11.877  -6.186  0.00  0.00    -0.268 OA
BRANCH  15  17
HETATM   17  C   UNK     0      -0.131  -9.753  -6.838  0.00  0.00     0.219 C 
BRANCH  17  18
HETATM   18  N   UNK     0      -1.257  -9.672  -5.956  0.00  0.00    -0.221 N 
HETATM   19  C   UNK     0      -2.417 -10.346  -6.056  0.00  0.00     0.114 A 
HETATM   20  C   UNK     0      -3.180  -9.967  -4.960  0.00  0.00     0.102 A 
HETATM   21  N   UNK     0      -2.443  -9.071  -4.285  0.00  0.00    -0.133 NA
HETATM   22  N   UNK     0      -1.309  -8.924  -4.898  0.00  0.00    -0.064 NA
BRANCH  20  23
HETATM   23  C   UNK     0      -4.530 -10.437  -4.570  0.00  0.00     0.062 C 
BRANCH  23  24
HETATM   24  C   UNK     0      -4.631 -11.892  -4.074  0.00  0.00     0.074 C 
HETATM   25 Br   UNK     0      -4.870 -13.033  -5.080  0.00  0.00    -0.081 Br
ENDBRANCH  23  24
ENDBRANCH  20  23
ENDBRANCH  17  18
ENDBRANCH  15  17
ENDBRANCH   9  14
TORSDOF 5
ENDMDL
MODEL 3
REMARK VINA RESULT:      -6.4     12.185     13.721
REMARK  5 active torsions:
REMARK  status: ('A' for Active; 'I' for Inactive)
REMARK    1  A    between atoms: C_9  and  N_13 
REMARK       I    between atoms: N_13  and  C_14 
REMARK    2  A    between atoms: C_14  and  C_17 
REMARK    3  A    between atoms: C_17  and  N_18 
REMARK    4  A    between atoms: C_20  and  C_23 
REMARK    5  A    between atoms: C_23  and  C_24 
ROOT
HETATM    1  C   UNK     0       7.438  -9.742  -0.937  0.00  0.00     0.003 A 
HETATM    2  C   UNK     0       8.419 -10.737  -1.088  0.00  0.00     0.000 A 
HETATM    3  C   UNK     0       9.185 -10.802  -2.263  0.00  0.00     0.000 A 
HETATM    4  C   UNK     0       8.984  -9.860  -3.286  0.00  0.00     0.003 A 
HETATM    5  C   UNK     0       7.999  -8.853  -3.150  0.00  0.00     0.044 A 
HETATM    6  C   UNK     0       7.198  -8.807  -1.972  0.00  0.00     0.044 A 
HETATM    7  C   UNK     0       7.764  -7.885  -4.172  0.00  0.00     0.217 C 
HETATM    8  C   UNK     0       6.631  -7.067  -4.112  0.00  0.00     0.162 C 
HETATM    9  C   UNK     0       5.836  -7.051  -3.013  0.00  0.00     0.146 C 
HETATM   10  C   UNK     0       6.161  -7.827  -1.889  0.00  0.00     0.215 C 
HETATM   11  O   UNK     0       5.524  -7.668  -0.819  0.00  0.00    -0.285 OA
HETATM   12  O   UNK     0       8.567  -7.776  -5.132  0.00  0.00    -0.285 OA
HETATM   13  N   UNK     0       6.340  -6.327  -5.176  0.00  0.00    -0.143 N 
ENDROOT
BRANCH   9  14
HETATM   14  N   UNK     0       4.742  -6.279  -3.015  0.00  0.00    -0.205 NA
HETATM   15  C   UNK     0       3.447  -6.699  -3.117  0.00  0.00     0.281 C 
HETATM   16  O   UNK     0       2.582  -5.793  -3.131  0.00  0.00    -0.268 OA
BRANCH  15  17
HETATM   17  C   UNK     0       2.979  -8.102  -3.255  0.00  0.00     0.219 C 
BRANCH  17  18
HETATM   18  N   UNK     0       2.371  -8.323  -4.533  0.00  0.00    -0.221 N 
HETATM   19  C   UNK     0       2.932  -8.145  -5.742  0.00  0.00     0.114 A 
HETATM   20  C   UNK     0       1.973  -8.521  -6.673  0.00  0.00     0.102 A 
HETATM   21  N   UNK     0       0.888  -8.876  -5.967  0.00  0.00    -0.133 NA
HETATM   22  N   UNK     0       1.158  -8.753  -4.704  0.00  0.00    -0.064 NA
BRANCH  20  23
HETATM   23  C   UNK     0       2.085  -8.550  -8.150  0.00  0.00     0.062 C 
BRANCH  23  24
HETATM   24  C   UNK     0       2.872  -7.396  -8.800  0.00  0.00     0.074 C 
HETATM   25 Br   UNK     0       3.962  -7.699  -9.844  0.00  0.00    -0.081 Br
ENDBRANCH  23  24
ENDBRANCH  20  23
ENDBRANCH  17  18
ENDBRANCH  15  17
ENDBRANCH   9  14
TORSDOF 5
ENDMDL
MODEL 4
REMARK VINA RESULT:      -6.4     11.857     13.158
REMARK  5 active torsions:
REMARK  status: ('A' for Active; 'I' for Inactive)
REMARK    1  A    between atoms: C_9  and  N_13 
REMARK       I    between atoms: N_13  and  C_14 
REMARK    2  A    between atoms: C_14  and  C_17 
REMARK    3  A    between atoms: C_17  and  N_18 
REMARK    4  A    between atoms: C_20  and  C_23 
REMARK    5  A    between atoms: C_23  and  C_24 
ROOT
HETATM    1  C   UNK     0       4.214  -6.942  -8.257  0.00  0.00     0.003 A 
HETATM    2  C   UNK     0       3.778  -7.965  -9.118  0.00  0.00     0.000 A 
HETATM    3  C   UNK     0       2.913  -8.965  -8.645  0.00  0.00     0.000 A 
HETATM    4  C   UNK     0       2.466  -8.937  -7.313  0.00  0.00     0.003 A 
HETATM    5  C   UNK     0       2.896  -7.915  -6.434  0.00  0.00     0.044 A 
HETATM    6  C   UNK     0       3.801  -6.918  -6.904  0.00  0.00     0.044 A 
HETATM    7  C   UNK     0       2.468  -7.861  -5.074  0.00  0.00     0.217 C 
HETATM    8  C   UNK     0       3.098  -6.990  -4.177  0.00  0.00     0.162 C 
HETATM    9  C   UNK     0       3.995  -6.070  -4.608  0.00  0.00     0.146 C 
HETATM   10  C   UNK     0       4.279  -5.940  -5.978  0.00  0.00     0.215 C 
HETATM   11  O   UNK     0       4.968  -4.970  -6.380  0.00  0.00    -0.285 OA
HETATM   12  O   UNK     0       1.534  -8.602  -4.679  0.00  0.00    -0.285 OA
HETATM   13  N   UNK     0       2.812  -7.114  -2.886  0.00  0.00    -0.143 N 
ENDROOT
BRANCH   9  14
HETATM   14  N   UNK     0       4.600  -5.282  -3.710  0.00  0.00    -0.205 NA
HETATM   15  C   UNK     0       5.836  -5.470  -3.162  0.00  0.00     0.281 C 
HETATM   16  O   UNK     0       6.187  -4.621  -2.311  0.00  0.00    -0.268 OA
BRANCH  15  17
HETATM   17  C   UNK     0       6.768  -6.592  -3.442  0.00  0.00     0.219 C 
BRANCH  17  18
HETATM   18  N   UNK     0       6.467  -7.733  -2.630  0.00  0.00    -0.221 N 
HETATM   19  C   UNK     0       6.667  -9.026  -2.939  0.00  0.00     0.114 A 
HETATM   20  C   UNK     0       6.257  -9.757  -1.832  0.00  0.00     0.102 A 
HETATM   21  N   UNK     0       5.812  -8.860  -0.938  0.00  0.00    -0.133 NA
HETATM   22  N   UNK     0       5.956  -7.672  -1.438  0.00  0.00    -0.064 NA
BRANCH  20  23
HETATM   23  C   UNK     0       6.294 -11.225  -1.632  0.00  0.00     0.062 C 
BRANCH  23  24
HETATM   24  C   UNK     0       7.252 -11.742  -0.541  0.00  0.00     0.074 C 
HETATM   25 Br   UNK     0       8.743 -11.364  -0.583  0.00  0.00    -0.081 Br
ENDBRANCH  23  24
ENDBRANCH  20  23
ENDBRANCH  17  18
ENDBRANCH  15  17
ENDBRANCH   9  14
TORSDOF 5
ENDMDL
MODEL 5
REMARK VINA RESULT:      -6.4     11.857     12.970
REMARK  5 active torsions:
REMARK  status: ('A' for Active; 'I' for Inactive)
REMARK    1  A    between atoms: C_9  and  N_13 
REMARK       I    between atoms: N_13  and  C_14 
REMARK    2  A    between atoms: C_14  and  C_17 
REMARK    3  A    between atoms: C_17  and  N_18 
REMARK    4  A    between atoms: C_20  and  C_23 
REMARK    5  A    between atoms: C_23  and  C_24 
ROOT
HETATM    1  C   UNK     0       1.160  -9.153  -4.766  0.00  0.00     0.003 A 
HETATM    2  C   UNK     0       0.424  -9.935  -5.674  0.00  0.00     0.000 A 
HETATM    3  C   UNK     0       0.699  -9.867  -7.050  0.00  0.00     0.000 A 
HETATM    4  C   UNK     0       1.724  -9.030  -7.522  0.00  0.00     0.003 A 
HETATM    5  C   UNK     0       2.474  -8.236  -6.621  0.00  0.00     0.044 A 
HETATM    6  C   UNK     0       2.173  -8.279  -5.228  0.00  0.00     0.044 A 
HETATM    7  C   UNK     0       3.516  -7.370  -7.066  0.00  0.00     0.217 C 
HETATM    8  C   UNK     0       4.064  -6.428  -6.189  0.00  0.00     0.162 C 
HETATM    9  C   UNK     0       3.748  -6.431  -4.871  0.00  0.00     0.146 C 
HETATM   10  C   UNK     0       2.893  -7.415  -4.347  0.00  0.00     0.215 C 
HETATM   11  O   UNK     0       2.753  -7.517  -3.103  0.00  0.00    -0.285 OA
HETATM   12  O   UNK     0       3.934  -7.445  -8.249  0.00  0.00    -0.285 OA
HETATM   13  N   UNK     0       4.881  -5.510  -6.694  0.00  0.00    -0.143 N 
ENDROOT
BRANCH   9  14
HETATM   14  N   UNK     0       4.269  -5.488  -4.076  0.00  0.00    -0.205 NA
HETATM   15  C   UNK     0       5.510  -5.495  -3.507  0.00  0.00     0.281 C 
HETATM   16  O   UNK     0       5.774  -4.519  -2.768  0.00  0.00    -0.268 OA
BRANCH  15  17
HETATM   17  C   UNK     0       6.542  -6.555  -3.645  0.00  0.00     0.219 C 
BRANCH  17  18
HETATM   18  N   UNK     0       6.319  -7.621  -2.715  0.00  0.00    -0.221 N 
HETATM   19  C   UNK     0       6.494  -8.937  -2.931  0.00  0.00     0.114 A 
HETATM   20  C   UNK     0       6.188  -9.569  -1.733  0.00  0.00     0.102 A 
HETATM   21  N   UNK     0       5.825  -8.598  -0.881  0.00  0.00    -0.133 NA
HETATM   22  N   UNK     0       5.919  -7.457  -1.491  0.00  0.00    -0.064 NA
BRANCH  20  23
HETATM   23  C   UNK     0       6.248 -11.015  -1.413  0.00  0.00     0.062 C 
BRANCH  23  24
HETATM   24  C   UNK     0       7.414 -11.469  -0.515  0.00  0.00     0.074 C 
HETATM   25 Br   UNK     0       8.807 -10.836  -0.683  0.00  0.00    -0.081 Br
ENDBRANCH  23  24
ENDBRANCH  20  23
ENDBRANCH  17  18
ENDBRANCH  15  17
ENDBRANCH   9  14
TORSDOF 5
ENDMDL
MODEL 6
REMARK VINA RESULT:      -6.3     11.105     13.217
REMARK  5 active torsions:
REMARK  status: ('A' for Active; 'I' for Inactive)
REMARK    1  A    between atoms: C_9  and  N_13 
REMARK       I    between atoms: N_13  and  C_14 
REMARK    2  A    between atoms: C_14  and  C_17 
REMARK    3  A    between atoms: C_17  and  N_18 
REMARK    4  A    between atoms: C_20  and  C_23 
REMARK    5  A    between atoms: C_23  and  C_24 
ROOT
HETATM    1  C   UNK     0       7.980  -7.940  -6.858  0.00  0.00     0.003 A 
HETATM    2  C   UNK     0       7.871  -7.861  -8.258  0.00  0.00     0.000 A 
HETATM    3  C   UNK     0       6.920  -7.011  -8.845  0.00  0.00     0.000 A 
HETATM    4  C   UNK     0       6.086  -6.222  -8.036  0.00  0.00     0.003 A 
HETATM    5  C   UNK     0       6.183  -6.290  -6.625  0.00  0.00     0.044 A 
HETATM    6  C   UNK     0       7.124  -7.178  -6.027  0.00  0.00     0.044 A 
HETATM    7  C   UNK     0       5.347  -5.509  -5.773  0.00  0.00     0.217 C 
HETATM    8  C   UNK     0       5.299  -5.780  -4.401  0.00  0.00     0.162 C 
HETATM    9  C   UNK     0       6.160  -6.658  -3.831  0.00  0.00     0.146 C 
HETATM   10  C   UNK     0       7.153  -7.284  -4.603  0.00  0.00     0.215 C 
HETATM   11  O   UNK     0       8.052  -7.951  -4.035  0.00  0.00    -0.285 OA
HETATM   12  O   UNK     0       4.644  -4.586  -6.256  0.00  0.00    -0.285 OA
HETATM   13  N   UNK     0       4.364  -5.172  -3.679  0.00  0.00    -0.143 N 
ENDROOT
BRANCH   9  14
HETATM   14  N   UNK     0       6.054  -6.913  -2.521  0.00  0.00    -0.205 NA
HETATM   15  C   UNK     0       5.520  -8.031  -1.948  0.00  0.00     0.281 C 
HETATM   16  O   UNK     0       5.493  -8.040  -0.696  0.00  0.00    -0.268 OA
BRANCH  15  17
HETATM   17  C   UNK     0       4.936  -9.198  -2.658  0.00  0.00     0.219 C 
BRANCH  17  18
HETATM   18  N   UNK     0       3.830  -8.807  -3.479  0.00  0.00    -0.221 N 
HETATM   19  C   UNK     0       3.706  -8.973  -4.808  0.00  0.00     0.114 A 
HETATM   20  C   UNK     0       2.456  -8.472  -5.146  0.00  0.00     0.102 A 
HETATM   21  N   UNK     0       1.918  -8.014  -4.005  0.00  0.00    -0.133 NA
HETATM   22  N   UNK     0       2.754  -8.232  -3.037  0.00  0.00    -0.064 NA
BRANCH  20  23
HETATM   23  C   UNK     0       1.805  -8.441  -6.477  0.00  0.00     0.062 C 
BRANCH  23  24
HETATM   24  C   UNK     0       2.644  -7.868  -7.635  0.00  0.00     0.074 C 
HETATM   25 Br   UNK     0       3.400  -8.818  -8.582  0.00  0.00    -0.081 Br
ENDBRANCH  23  24
ENDBRANCH  20  23
ENDBRANCH  17  18
ENDBRANCH  15  17
ENDBRANCH   9  14
TORSDOF 5
ENDMDL
MODEL 7
REMARK VINA RESULT:      -6.3     11.750     13.548
REMARK  5 active torsions:
REMARK  status: ('A' for Active; 'I' for Inactive)
REMARK    1  A    between atoms: C_9  and  N_13 
REMARK       I    between atoms: N_13  and  C_14 
REMARK    2  A    between atoms: C_14  and  C_17 
REMARK    3  A    between atoms: C_17  and  N_18 
REMARK    4  A    between atoms: C_20  and  C_23 
REMARK    5  A    between atoms: C_23  and  C_24 
ROOT
HETATM    1  C   UNK     0       8.111  -8.661  -5.869  0.00  0.00     0.003 A 
HETATM    2  C   UNK     0       9.507  -8.834  -5.871  0.00  0.00     0.000 A 
HETATM    3  C   UNK     0      10.203  -8.963  -4.659  0.00  0.00     0.000 A 
HETATM    4  C   UNK     0       9.506  -8.938  -3.440  0.00  0.00     0.003 A 
HETATM    5  C   UNK     0       8.101  -8.764  -3.421  0.00  0.00     0.044 A 
HETATM    6  C   UNK     0       7.397  -8.599  -4.650  0.00  0.00     0.044 A 
HETATM    7  C   UNK     0       7.362  -8.725  -2.202  0.00  0.00     0.217 C 
HETATM    8  C   UNK     0       6.026  -8.310  -2.207  0.00  0.00     0.162 C 
HETATM    9  C   UNK     0       5.361  -8.105  -3.371  0.00  0.00     0.146 C 
HETATM   10  C   UNK     0       5.990  -8.351  -4.602  0.00  0.00     0.215 C 
HETATM   11  O   UNK     0       5.314  -8.333  -5.660  0.00  0.00    -0.285 OA
HETATM   12  O   UNK     0       7.913  -9.053  -1.121  0.00  0.00    -0.285 OA
HETATM   13  N   UNK     0       5.437  -8.094  -1.036  0.00  0.00    -0.143 N 
ENDROOT
BRANCH   9  14
HETATM   14  N   UNK     0       4.094  -7.674  -3.327  0.00  0.00    -0.205 NA
HETATM   15  C   UNK     0       3.677  -6.376  -3.253  0.00  0.00     0.281 C 
HETATM   16  O   UNK     0       2.437  -6.207  -3.188  0.00  0.00    -0.268 OA
BRANCH  15  17
HETATM   17  C   UNK     0       4.541  -5.169  -3.197  0.00  0.00     0.219 C 
BRANCH  17  18
HETATM   18  N   UNK     0       5.298  -5.016  -4.403  0.00  0.00    -0.221 N 
HETATM   19  C   UNK     0       6.624  -4.819  -4.511  0.00  0.00     0.114 A 
HETATM   20  C   UNK     0       6.899  -4.768  -5.871  0.00  0.00     0.102 A 
HETATM   21  N   UNK     0       5.719  -4.911  -6.494  0.00  0.00    -0.133 NA
HETATM   22  N   UNK     0       4.793  -5.061  -5.598  0.00  0.00    -0.064 NA
BRANCH  20  23
HETATM   23  C   UNK     0       8.210  -4.603  -6.540  0.00  0.00     0.062 C 
BRANCH  23  24
HETATM   24  C   UNK     0       8.174  -4.171  -8.018  0.00  0.00     0.074 C 
HETATM   25 Br   UNK     0       8.765  -2.813  -8.438  0.00  0.00    -0.081 Br
ENDBRANCH  23  24
ENDBRANCH  20  23
ENDBRANCH  17  18
ENDBRANCH  15  17
ENDBRANCH   9  14
TORSDOF 5
ENDMDL
MODEL 8
REMARK VINA RESULT:      -6.3     10.967     12.369
REMARK  5 active torsions:
REMARK  status: ('A' for Active; 'I' for Inactive)
REMARK    1  A    between atoms: C_9  and  N_13 
REMARK       I    between atoms: N_13  and  C_14 
REMARK    2  A    between atoms: C_14  and  C_17 
REMARK    3  A    between atoms: C_17  and  N_18 
REMARK    4  A    between atoms: C_20  and  C_23 
REMARK    5  A    between atoms: C_23  and  C_24 
ROOT
HETATM    1  C   UNK     0       5.319  -5.002  -3.648  0.00  0.00     0.003 A 
HETATM    2  C   UNK     0       6.575  -4.411  -3.873  0.00  0.00     0.000 A 
HETATM    3  C   UNK     0       7.198  -4.533  -5.126  0.00  0.00     0.000 A 
HETATM    4  C   UNK     0       6.559  -5.232  -6.164  0.00  0.00     0.003 A 
HETATM    5  C   UNK     0       5.295  -5.833  -5.953  0.00  0.00     0.044 A 
HETATM    6  C   UNK     0       4.677  -5.739  -4.671  0.00  0.00     0.044 A 
HETATM    7  C   UNK     0       4.623  -6.556  -6.982  0.00  0.00     0.217 C 
HETATM    8  C   UNK     0       3.504  -7.337  -6.671  0.00  0.00     0.162 C 
HETATM    9  C   UNK     0       2.937  -7.289  -5.441  0.00  0.00     0.146 C 
HETATM   10  C   UNK     0       3.437  -6.416  -4.461  0.00  0.00     0.215 C 
HETATM   11  O   UNK     0       2.797  -6.248  -3.394  0.00  0.00    -0.285 OA
HETATM   12  O   UNK     0       5.041  -6.501  -8.166  0.00  0.00    -0.285 OA
HETATM   13  N   UNK     0       3.032  -8.149  -7.610  0.00  0.00    -0.143 N 
ENDROOT
BRANCH   9  14
HETATM   14  N   UNK     0       1.890  -8.081  -5.178  0.00  0.00    -0.205 NA
HETATM   15  C   UNK     0       1.926  -9.418  -4.904  0.00  0.00     0.281 C 
HETATM   16  O   UNK     0       0.815  -9.965  -4.722  0.00  0.00    -0.268 OA
BRANCH  15  17
HETATM   17  C   UNK     0       3.136 -10.278  -4.848  0.00  0.00     0.219 C 
BRANCH  17  18
HETATM   18  N   UNK     0       4.133  -9.717  -3.987  0.00  0.00    -0.221 N 
HETATM   19  C   UNK     0       5.415  -9.447  -4.296  0.00  0.00     0.114 A 
HETATM   20  C   UNK     0       5.976  -8.882  -3.158  0.00  0.00     0.102 A 
HETATM   21  N   UNK     0       5.006  -8.871  -2.231  0.00  0.00    -0.133 NA
HETATM   22  N   UNK     0       3.927  -9.366  -2.755  0.00  0.00    -0.064 NA
BRANCH  20  23
HETATM   23  C   UNK     0       7.354  -8.373  -2.967  0.00  0.00     0.062 C 
BRANCH  23  24
HETATM   24  C   UNK     0       8.135  -8.017  -4.246  0.00  0.00     0.074 C 
HETATM   25 Br   UNK     0       9.436  -8.767  -4.588  0.00  0.00    -0.081 Br
ENDBRANCH  23  24
ENDBRANCH  20  23
ENDBRANCH  17  18
ENDBRANCH  15  17
ENDBRANCH   9  14
TORSDOF 5
ENDMDL
MODEL 9
REMARK VINA RESULT:      -6.3     16.842     18.527
REMARK  5 active torsions:
REMARK  status: ('A' for Active; 'I' for Inactive)
REMARK    1  A    between atoms: C_9  and  N_13 
REMARK       I    between atoms: N_13  and  C_14 
REMARK    2  A    between atoms: C_14  and  C_17 
REMARK    3  A    between atoms: C_17  and  N_18 
REMARK    4  A    between atoms: C_20  and  C_23 
REMARK    5  A    between atoms: C_23  and  C_24 
ROOT
HETATM    1  C   UNK     0      -4.070 -11.661   6.576  0.00  0.00     0.003 A 
HETATM    2  C   UNK     0      -4.972 -12.610   6.064  0.00  0.00     0.000 A 
HETATM    3  C   UNK     0      -4.745 -13.194   4.807  0.00  0.00     0.000 A 
HETATM    4  C   UNK     0      -3.604 -12.845   4.065  0.00  0.00     0.003 A 
HETATM    5  C   UNK     0      -2.687 -11.891   4.567  0.00  0.00     0.044 A 
HETATM    6  C   UNK     0      -2.935 -11.272   5.827  0.00  0.00     0.044 A 
HETATM    7  C   UNK     0      -1.523 -11.507   3.836  0.00  0.00     0.217 C 
HETATM    8  C   UNK     0      -0.778 -10.395   4.243  0.00  0.00     0.162 C 
HETATM    9  C   UNK     0      -1.036  -9.771   5.419  0.00  0.00     0.146 C 
HETATM   10  C   UNK     0      -2.034 -10.258   6.279  0.00  0.00     0.215 C 
HETATM   11  O   UNK     0      -2.141  -9.786   7.437  0.00  0.00    -0.285 OA
HETATM   12  O   UNK     0      -1.174 -12.160   2.821  0.00  0.00    -0.285 OA
HETATM   13  N   UNK     0       0.172  -9.951   3.428  0.00  0.00    -0.143 N 
ENDROOT
BRANCH   9  14
HETATM   14  N   UNK     0      -0.320  -8.689   5.750  0.00  0.00    -0.205 NA
HETATM   15  C   UNK     0      -0.766  -7.399   5.798  0.00  0.00     0.281 C 
HETATM   16  O   UNK     0       0.092  -6.539   6.102  0.00  0.00    -0.268 OA
BRANCH  15  17
HETATM   17  C   UNK     0      -2.138  -6.924   5.485  0.00  0.00     0.219 C 
BRANCH  17  18
HETATM   18  N   UNK     0      -2.567  -5.924   6.416  0.00  0.00    -0.221 N 
HETATM   19  C   UNK     0      -3.123  -6.124   7.625  0.00  0.00     0.114 A 
HETATM   20  C   UNK     0      -3.332  -4.863   8.168  0.00  0.00     0.102 A 
HETATM   21  N   UNK     0      -2.913  -3.985   7.243  0.00  0.00    -0.133 NA
HETATM   22  N   UNK     0      -2.461  -4.645   6.222  0.00  0.00    -0.064 NA
BRANCH  20  23
HETATM   23  C   UNK     0      -3.889  -4.513   9.496  0.00  0.00     0.062 C 
BRANCH  23  24
HETATM   24  C   UNK     0      -3.064  -4.953  10.721  0.00  0.00     0.074 C 
HETATM   25 Br   UNK     0      -2.200  -3.927  11.476  0.00  0.00    -0.081 Br
ENDBRANCH  23  24
ENDBRANCH  20  23
ENDBRANCH  17  18
ENDBRANCH  15  17
ENDBRANCH   9  14
TORSDOF 5
ENDMDL
