MODEL 1
REMARK VINA RESULT:      -6.7      0.000      0.000
REMARK  4 active torsions:
REMARK  status: ('A' for Active; 'I' for Inactive)
REMARK    1  A    between atoms: C_9  and  N_13 
REMARK       I    between atoms: N_13  and  C_14 
REMARK    2  A    between atoms: C_14  and  C_17 
REMARK    3  A    between atoms: C_17  and  N_18 
REMARK    4  A    between atoms: C_20  and  C_23 
ROOT
HETATM    1  C   UNK     0       2.911  -8.861   8.645  0.00  0.00     0.003 A 
HETATM    2  C   UNK     0       3.830  -9.823   9.095  0.00  0.00     0.000 A 
HETATM    3  C   UNK     0       4.154 -10.919   8.279  0.00  0.00     0.000 A 
HETATM    4  C   UNK     0       3.559 -11.054   7.013  0.00  0.00     0.003 A 
HETATM    5  C   UNK     0       2.620 -10.101   6.549  0.00  0.00     0.044 A 
HETATM    6  C   UNK     0       2.296  -8.989   7.376  0.00  0.00     0.044 A 
HETATM    7  C   UNK     0       1.974 -10.217   5.277  0.00  0.00     0.217 C 
HETATM    8  C   UNK     0       0.949  -9.328   4.919  0.00  0.00     0.162 C 
HETATM    9  C   UNK     0       0.618  -8.290   5.722  0.00  0.00     0.146 C 
HETATM   10  C   UNK     0       1.352  -8.038   6.892  0.00  0.00     0.215 C 
HETATM   11  O   UNK     0       1.206  -6.944   7.490  0.00  0.00    -0.285 OA
HETATM   12  O   UNK     0       2.323 -11.122   4.480  0.00  0.00    -0.285 OA
HETATM   13  N   UNK     0       0.291  -9.533   3.783  0.00  0.00    -0.143 N 
ENDROOT
BRANCH   9  14
HETATM   14  N   UNK     0      -0.408  -7.490   5.391  0.00  0.00    -0.205 NA
HETATM   15  C   UNK     0      -1.710  -7.661   5.776  0.00  0.00     0.281 C 
HETATM   16  O   UNK     0      -2.076  -8.675   6.419  0.00  0.00    -0.268 OA
BRANCH  15  17
HETATM   17  C   UNK     0      -2.711  -6.632   5.432  0.00  0.00     0.219 C 
BRANCH  17  18
HETATM   18  N   UNK     0      -2.774  -5.619   6.438  0.00  0.00    -0.221 N 
HETATM   19  C   UNK     0      -3.004  -5.806   7.746  0.00  0.00     0.114 A 
HETATM   20  C   UNK     0      -3.007  -4.545   8.317  0.00  0.00     0.101 A 
HETATM   21  N   UNK     0      -2.764  -3.676   7.325  0.00  0.00    -0.133 NA
HETATM   22  N   UNK     0      -2.627  -4.347   6.222  0.00  0.00    -0.064 NA
BRANCH  20  23
HETATM   23  C   UNK     0      -3.195  -4.208   9.738  0.00  0.00     0.044 A 
HETATM   24  C   UNK     0      -4.593  -4.398  10.354  0.00  0.00     0.006 A 
HETATM   25  C   UNK     0      -3.462  -5.365  10.716  0.00  0.00     0.006 A 
ENDBRANCH  20  23
ENDBRANCH  17  18
ENDBRANCH  15  17
ENDBRANCH   9  14
TORSDOF 4
ENDMDL
MODEL 2
REMARK VINA RESULT:      -6.7     11.180     12.839
REMARK  4 active torsions:
REMARK  status: ('A' for Active; 'I' for Inactive)
REMARK    1  A    between atoms: C_9  and  N_13 
REMARK       I    between atoms: N_13  and  C_14 
REMARK    2  A    between atoms: C_14  and  C_17 
REMARK    3  A    between atoms: C_17  and  N_18 
REMARK    4  A    between atoms: C_20  and  C_23 
ROOT
HETATM    1  C   UNK     0       4.315  -8.236  -2.298  0.00  0.00     0.003 A 
HETATM    2  C   UNK     0       5.563  -8.168  -1.657  0.00  0.00     0.000 A 
HETATM    3  C   UNK     0       6.684  -7.693  -2.355  0.00  0.00     0.000 A 
HETATM    4  C   UNK     0       6.559  -7.286  -3.694  0.00  0.00     0.003 A 
HETATM    5  C   UNK     0       5.312  -7.360  -4.361  0.00  0.00     0.044 A 
HETATM    6  C   UNK     0       4.175  -7.838  -3.649  0.00  0.00     0.044 A 
HETATM    7  C   UNK     0       5.150  -6.979  -5.730  0.00  0.00     0.217 C 
HETATM    8  C   UNK     0       3.931  -7.201  -6.388  0.00  0.00     0.162 C 
HETATM    9  C   UNK     0       2.859  -7.687  -5.720  0.00  0.00     0.146 C 
HETATM   10  C   UNK     0       2.927  -7.902  -4.334  0.00  0.00     0.215 C 
HETATM   11  O   UNK     0       1.871  -8.109  -3.688  0.00  0.00    -0.285 OA
HETATM   12  O   UNK     0       6.105  -6.448  -6.348  0.00  0.00    -0.285 OA
HETATM   13  N   UNK     0       3.849  -6.944  -7.690  0.00  0.00    -0.143 N 
ENDROOT
BRANCH   9  14
HETATM   14  N   UNK     0       1.722  -7.952  -6.382  0.00  0.00    -0.205 NA
HETATM   15  C   UNK     0       1.265  -9.198  -6.717  0.00  0.00     0.281 C 
HETATM   16  O   UNK     0       1.950 -10.228  -6.502  0.00  0.00    -0.268 OA
BRANCH  15  17
HETATM   17  C   UNK     0      -0.065  -9.341  -7.342  0.00  0.00     0.219 C 
BRANCH  17  18
HETATM   18  N   UNK     0      -1.106  -9.188  -6.377  0.00  0.00    -0.221 N 
HETATM   19  C   UNK     0      -1.909 -10.156  -5.910  0.00  0.00     0.114 A 
HETATM   20  C   UNK     0      -2.777  -9.537  -5.025  0.00  0.00     0.101 A 
HETATM   21  N   UNK     0      -2.438  -8.240  -5.001  0.00  0.00    -0.133 NA
HETATM   22  N   UNK     0      -1.439  -8.067  -5.813  0.00  0.00    -0.064 NA
BRANCH  20  23
HETATM   23  C   UNK     0      -3.842 -10.169  -4.228  0.00  0.00     0.044 A 
HETATM   24  C   UNK     0      -5.092 -10.688  -4.962  0.00  0.00     0.006 A 
HETATM   25  C   UNK     0      -4.065 -11.680  -4.408  0.00  0.00     0.006 A 
ENDBRANCH  20  23
ENDBRANCH  17  18
ENDBRANCH  15  17
ENDBRANCH   9  14
TORSDOF 4
ENDMDL
MODEL 3
REMARK VINA RESULT:      -6.5     11.379     13.683
REMARK  4 active torsions:
REMARK  status: ('A' for Active; 'I' for Inactive)
REMARK    1  A    between atoms: C_9  and  N_13 
REMARK       I    between atoms: N_13  and  C_14 
REMARK    2  A    between atoms: C_14  and  C_17 
REMARK    3  A    between atoms: C_17  and  N_18 
REMARK    4  A    between atoms: C_20  and  C_23 
ROOT
HETATM    1  C   UNK     0       0.274  -9.543  -4.909  0.00  0.00     0.003 A 
HETATM    2  C   UNK     0      -0.887  -9.760  -5.669  0.00  0.00     0.000 A 
HETATM    3  C   UNK     0      -0.962  -9.283  -6.987  0.00  0.00     0.000 A 
HETATM    4  C   UNK     0       0.125  -8.589  -7.547  0.00  0.00     0.003 A 
HETATM    5  C   UNK     0       1.298  -8.349  -6.791  0.00  0.00     0.044 A 
HETATM    6  C   UNK     0       1.373  -8.838  -5.456  0.00  0.00     0.044 A 
HETATM    7  C   UNK     0       2.415  -7.625  -7.316  0.00  0.00     0.217 C 
HETATM    8  C   UNK     0       3.497  -7.291  -6.487  0.00  0.00     0.162 C 
HETATM    9  C   UNK     0       3.551  -7.727  -5.207  0.00  0.00     0.146 C 
HETATM   10  C   UNK     0       2.562  -8.591  -4.711  0.00  0.00     0.215 C 
HETATM   11  O   UNK     0       2.750  -9.185  -3.621  0.00  0.00    -0.285 OA
HETATM   12  O   UNK     0       2.425  -7.283  -8.524  0.00  0.00    -0.285 OA
HETATM   13  N   UNK     0       4.463  -6.519  -6.974  0.00  0.00    -0.143 N 
ENDROOT
BRANCH   9  14
HETATM   14  N   UNK     0       4.563  -7.343  -4.413  0.00  0.00    -0.205 NA
HETATM   15  C   UNK     0       4.525  -6.310  -3.516  0.00  0.00     0.281 C 
HETATM   16  O   UNK     0       3.529  -5.551  -3.430  0.00  0.00    -0.268 OA
BRANCH  15  17
HETATM   17  C   UNK     0       5.679  -6.080  -2.624  0.00  0.00     0.219 C 
BRANCH  17  18
HETATM   18  N   UNK     0       6.153  -7.307  -2.068  0.00  0.00    -0.221 N 
HETATM   19  C   UNK     0       7.211  -8.017  -2.485  0.00  0.00     0.114 A 
HETATM   20  C   UNK     0       7.264  -9.138  -1.673  0.00  0.00     0.101 A 
HETATM   21  N   UNK     0       6.245  -9.030  -0.808  0.00  0.00    -0.133 NA
HETATM   22  N   UNK     0       5.607  -7.929  -1.067  0.00  0.00    -0.064 NA
BRANCH  20  23
HETATM   23  C   UNK     0       8.259 -10.222  -1.709  0.00  0.00     0.044 A 
HETATM   24  C   UNK     0       9.533 -10.071  -0.858  0.00  0.00     0.006 A 
HETATM   25  C   UNK     0       8.445 -11.062  -0.434  0.00  0.00     0.006 A 
ENDBRANCH  20  23
ENDBRANCH  17  18
ENDBRANCH  15  17
ENDBRANCH   9  14
TORSDOF 4
ENDMDL
MODEL 4
REMARK VINA RESULT:      -6.4     11.544     14.540
REMARK  4 active torsions:
REMARK  status: ('A' for Active; 'I' for Inactive)
REMARK    1  A    between atoms: C_9  and  N_13 
REMARK       I    between atoms: N_13  and  C_14 
REMARK    2  A    between atoms: C_14  and  C_17 
REMARK    3  A    between atoms: C_17  and  N_18 
REMARK    4  A    between atoms: C_20  and  C_23 
ROOT
HETATM    1  C   UNK     0      -2.468 -10.023  -6.663  0.00  0.00     0.003 A 
HETATM    2  C   UNK     0      -3.177 -10.548  -7.756  0.00  0.00     0.000 A 
HETATM    3  C   UNK     0      -2.509 -10.825  -8.958  0.00  0.00     0.000 A 
HETATM    4  C   UNK     0      -1.129 -10.578  -9.069  0.00  0.00     0.003 A 
HETATM    5  C   UNK     0      -0.400 -10.037  -7.983  0.00  0.00     0.044 A 
HETATM    6  C   UNK     0      -1.080  -9.761  -6.763  0.00  0.00     0.044 A 
HETATM    7  C   UNK     0       0.999  -9.748  -8.065  0.00  0.00     0.217 C 
HETATM    8  C   UNK     0       1.649  -9.083  -7.014  0.00  0.00     0.162 C 
HETATM    9  C   UNK     0       0.993  -8.790  -5.867  0.00  0.00     0.146 C 
HETATM   10  C   UNK     0      -0.331  -9.220  -5.679  0.00  0.00     0.215 C 
HETATM   11  O   UNK     0      -0.841  -9.167  -4.533  0.00  0.00    -0.285 OA
HETATM   12  O   UNK     0       1.647 -10.086  -9.086  0.00  0.00    -0.285 OA
HETATM   13  N   UNK     0       2.919  -8.726  -7.169  0.00  0.00    -0.143 N 
ENDROOT
BRANCH   9  14
HETATM   14  N   UNK     0       1.615  -8.098  -4.900  0.00  0.00    -0.205 NA
HETATM   15  C   UNK     0       2.481  -8.620  -3.977  0.00  0.00     0.281 C 
HETATM   16  O   UNK     0       2.696  -9.855  -3.903  0.00  0.00    -0.268 OA
BRANCH  15  17
HETATM   17  C   UNK     0       3.183  -7.714  -3.046  0.00  0.00     0.219 C 
BRANCH  17  18
HETATM   18  N   UNK     0       3.830  -6.654  -3.751  0.00  0.00    -0.221 N 
HETATM   19  C   UNK     0       4.729  -6.782  -4.738  0.00  0.00     0.114 A 
HETATM   20  C   UNK     0       5.099  -5.494  -5.087  0.00  0.00     0.101 A 
HETATM   21  N   UNK     0       4.393  -4.668  -4.302  0.00  0.00    -0.133 NA
HETATM   22  N   UNK     0       3.646  -5.389  -3.522  0.00  0.00    -0.064 NA
BRANCH  20  23
HETATM   23  C   UNK     0       6.047  -5.090  -6.140  0.00  0.00     0.044 A 
HETATM   24  C   UNK     0       7.461  -4.653  -5.717  0.00  0.00     0.006 A 
HETATM   25  C   UNK     0       7.253  -6.008  -6.401  0.00  0.00     0.006 A 
ENDBRANCH  20  23
ENDBRANCH  17  18
ENDBRANCH  15  17
ENDBRANCH   9  14
TORSDOF 4
ENDMDL
MODEL 5
REMARK VINA RESULT:      -6.4     12.197     13.627
REMARK  4 active torsions:
REMARK  status: ('A' for Active; 'I' for Inactive)
REMARK    1  A    between atoms: C_9  and  N_13 
REMARK       I    between atoms: N_13  and  C_14 
REMARK    2  A    between atoms: C_14  and  C_17 
REMARK    3  A    between atoms: C_17  and  N_18 
REMARK    4  A    between atoms: C_20  and  C_23 
ROOT
HETATM    1  C   UNK     0       7.588  -6.880  -6.518  0.00  0.00     0.003 A 
HETATM    2  C   UNK     0       8.400  -5.744  -6.669  0.00  0.00     0.000 A 
HETATM    3  C   UNK     0       8.080  -4.557  -5.993  0.00  0.00     0.000 A 
HETATM    4  C   UNK     0       6.946  -4.504  -5.163  0.00  0.00     0.003 A 
HETATM    5  C   UNK     0       6.107  -5.634  -5.009  0.00  0.00     0.044 A 
HETATM    6  C   UNK     0       6.437  -6.838  -5.693  0.00  0.00     0.044 A 
HETATM    7  C   UNK     0       4.931  -5.612  -4.195  0.00  0.00     0.217 C 
HETATM    8  C   UNK     0       4.056  -6.708  -4.183  0.00  0.00     0.162 C 
HETATM    9  C   UNK     0       4.353  -7.842  -4.862  0.00  0.00     0.146 C 
HETATM   10  C   UNK     0       5.584  -7.967  -5.524  0.00  0.00     0.215 C 
HETATM   11  O   UNK     0       5.955  -9.095  -5.932  0.00  0.00    -0.285 OA
HETATM   12  O   UNK     0       4.678  -4.603  -3.491  0.00  0.00    -0.285 OA
HETATM   13  N   UNK     0       2.915  -6.611  -3.509  0.00  0.00    -0.143 N 
ENDROOT
BRANCH   9  14
HETATM   14  N   UNK     0       3.473  -8.854  -4.889  0.00  0.00    -0.205 NA
HETATM   15  C   UNK     0       2.529  -9.065  -5.858  0.00  0.00     0.281 C 
HETATM   16  O   UNK     0       2.346  -8.241  -6.787  0.00  0.00    -0.268 OA
BRANCH  15  17
HETATM   17  C   UNK     0       1.707 -10.291  -5.816  0.00  0.00     0.219 C 
BRANCH  17  18
HETATM   18  N   UNK     0       0.349  -9.990  -5.493  0.00  0.00    -0.221 N 
HETATM   19  C   UNK     0      -0.742 -10.585  -5.994  0.00  0.00     0.114 A 
HETATM   20  C   UNK     0      -1.826  -9.944  -5.417  0.00  0.00     0.101 A 
HETATM   21  N   UNK     0      -1.325  -9.013  -4.594  0.00  0.00    -0.133 NA
HETATM   22  N   UNK     0      -0.029  -9.069  -4.659  0.00  0.00    -0.064 NA
BRANCH  20  23
HETATM   23  C   UNK     0      -3.254 -10.242  -5.623  0.00  0.00     0.044 A 
HETATM   24  C   UNK     0      -3.797 -11.591  -5.118  0.00  0.00     0.006 A 
HETATM   25  C   UNK     0      -4.156 -10.299  -4.378  0.00  0.00     0.006 A 
ENDBRANCH  20  23
ENDBRANCH  17  18
ENDBRANCH  15  17
ENDBRANCH   9  14
TORSDOF 4
ENDMDL
MODEL 6
REMARK VINA RESULT:      -6.4      1.521      2.593
REMARK  4 active torsions:
REMARK  status: ('A' for Active; 'I' for Inactive)
REMARK    1  A    between atoms: C_9  and  N_13 
REMARK       I    between atoms: N_13  and  C_14 
REMARK    2  A    between atoms: C_14  and  C_17 
REMARK    3  A    between atoms: C_17  and  N_18 
REMARK    4  A    between atoms: C_20  and  C_23 
ROOT
HETATM    1  C   UNK     0       2.237 -11.653   5.024  0.00  0.00     0.003 A 
HETATM    2  C   UNK     0       3.530 -12.197   5.095  0.00  0.00     0.000 A 
HETATM    3  C   UNK     0       4.395 -11.815   6.132  0.00  0.00     0.000 A 
HETATM    4  C   UNK     0       3.968 -10.889   7.100  0.00  0.00     0.003 A 
HETATM    5  C   UNK     0       2.673 -10.320   7.036  0.00  0.00     0.044 A 
HETATM    6  C   UNK     0       1.796 -10.712   5.986  0.00  0.00     0.044 A 
HETATM    7  C   UNK     0       2.211  -9.355   7.987  0.00  0.00     0.217 C 
HETATM    8  C   UNK     0       0.976  -8.715   7.805  0.00  0.00     0.162 C 
HETATM    9  C   UNK     0       0.156  -9.064   6.785  0.00  0.00     0.146 C 
HETATM   10  C   UNK     0       0.495 -10.132   5.939  0.00  0.00     0.215 C 
HETATM   11  O   UNK     0      -0.372 -10.608   5.166  0.00  0.00    -0.285 OA
HETATM   12  O   UNK     0       2.918  -9.076   8.987  0.00  0.00    -0.285 OA
HETATM   13  N   UNK     0       0.629  -7.742   8.640  0.00  0.00    -0.143 N 
ENDROOT
BRANCH   9  14
HETATM   14  N   UNK     0      -0.991  -8.396   6.592  0.00  0.00    -0.205 NA
HETATM   15  C   UNK     0      -1.142  -7.278   5.817  0.00  0.00     0.281 C 
HETATM   16  O   UNK     0      -0.158  -6.714   5.279  0.00  0.00    -0.268 OA
BRANCH  15  17
HETATM   17  C   UNK     0      -2.492  -6.720   5.602  0.00  0.00     0.219 C 
BRANCH  17  18
HETATM   18  N   UNK     0      -2.751  -5.638   6.499  0.00  0.00    -0.221 N 
HETATM   19  C   UNK     0      -3.254  -5.732   7.739  0.00  0.00     0.114 A 
HETATM   20  C   UNK     0      -3.357  -4.432   8.207  0.00  0.00     0.101 A 
HETATM   21  N   UNK     0      -2.899  -3.637   7.231  0.00  0.00    -0.133 NA
HETATM   22  N   UNK     0      -2.543  -4.385   6.231  0.00  0.00    -0.064 NA
BRANCH  20  23
HETATM   23  C   UNK     0      -3.835  -3.995   9.530  0.00  0.00     0.044 A 
HETATM   24  C   UNK     0      -3.939  -5.045  10.651  0.00  0.00     0.006 A 
HETATM   25  C   UNK     0      -2.823  -3.997  10.688  0.00  0.00     0.006 A 
ENDBRANCH  20  23
ENDBRANCH  17  18
ENDBRANCH  15  17
ENDBRANCH   9  14
TORSDOF 4
ENDMDL
MODEL 7
REMARK VINA RESULT:      -6.3     13.783     16.507
REMARK  4 active torsions:
REMARK  status: ('A' for Active; 'I' for Inactive)
REMARK    1  A    between atoms: C_9  and  N_13 
REMARK       I    between atoms: N_13  and  C_14 
REMARK    2  A    between atoms: C_14  and  C_17 
REMARK    3  A    between atoms: C_17  and  N_18 
REMARK    4  A    between atoms: C_20  and  C_23 
ROOT
HETATM    1  C   UNK     0       2.975  -7.974  -5.692  0.00  0.00     0.003 A 
HETATM    2  C   UNK     0       2.247  -8.642  -4.693  0.00  0.00     0.000 A 
HETATM    3  C   UNK     0       2.459  -8.328  -3.342  0.00  0.00     0.000 A 
HETATM    4  C   UNK     0       3.399  -7.345  -2.987  0.00  0.00     0.003 A 
HETATM    5  C   UNK     0       4.152  -6.670  -3.978  0.00  0.00     0.044 A 
HETATM    6  C   UNK     0       3.932  -6.988  -5.349  0.00  0.00     0.044 A 
HETATM    7  C   UNK     0       5.135  -5.682  -3.656  0.00  0.00     0.217 C 
HETATM    8  C   UNK     0       5.954  -5.143  -4.659  0.00  0.00     0.162 C 
HETATM    9  C   UNK     0       5.768  -5.471  -5.959  0.00  0.00     0.146 C 
HETATM   10  C   UNK     0       4.696  -6.297  -6.333  0.00  0.00     0.215 C 
HETATM   11  O   UNK     0       4.381  -6.391  -7.545  0.00  0.00    -0.285 OA
HETATM   12  O   UNK     0       5.270  -5.300  -2.467  0.00  0.00    -0.285 OA
HETATM   13  N   UNK     0       6.934  -4.316  -4.311  0.00  0.00    -0.143 N 
ENDROOT
BRANCH   9  14
HETATM   14  N   UNK     0       6.602  -4.993  -6.896  0.00  0.00    -0.205 NA
HETATM   15  C   UNK     0       7.650  -5.675  -7.452  0.00  0.00     0.281 C 
HETATM   16  O   UNK     0       7.982  -6.816  -7.046  0.00  0.00    -0.268 OA
BRANCH  15  17
HETATM   17  C   UNK     0       8.410  -5.061  -8.560  0.00  0.00     0.219 C 
BRANCH  17  18
HETATM   18  N   UNK     0       9.419  -4.180  -8.065  0.00  0.00    -0.221 N 
HETATM   19  C   UNK     0       9.971  -3.149  -8.722  0.00  0.00     0.114 A 
HETATM   20  C   UNK     0      10.916  -2.612  -7.864  0.00  0.00     0.101 A 
HETATM   21  N   UNK     0      10.867  -3.339  -6.739  0.00  0.00    -0.133 NA
HETATM   22  N   UNK     0       9.965  -4.260  -6.890  0.00  0.00    -0.064 NA
BRANCH  20  23
HETATM   23  C   UNK     0      11.782  -1.446  -8.106  0.00  0.00     0.044 A 
HETATM   24  C   UNK     0      11.232  -0.047  -7.772  0.00  0.00     0.006 A 
HETATM   25  C   UNK     0      12.304  -0.679  -6.879  0.00  0.00     0.006 A 
ENDBRANCH  20  23
ENDBRANCH  17  18
ENDBRANCH  15  17
ENDBRANCH   9  14
TORSDOF 4
ENDMDL
MODEL 8
REMARK VINA RESULT:      -6.2     11.824     14.742
REMARK  4 active torsions:
REMARK  status: ('A' for Active; 'I' for Inactive)
REMARK    1  A    between atoms: C_9  and  N_13 
REMARK       I    between atoms: N_13  and  C_14 
REMARK    2  A    between atoms: C_14  and  C_17 
REMARK    3  A    between atoms: C_17  and  N_18 
REMARK    4  A    between atoms: C_20  and  C_23 
ROOT
HETATM    1  C   UNK     0       2.061  -9.992  -9.547  0.00  0.00     0.003 A 
HETATM    2  C   UNK     0       1.660 -10.868 -10.568  0.00  0.00     0.000 A 
HETATM    3  C   UNK     0       0.436 -11.547 -10.469  0.00  0.00     0.000 A 
HETATM    4  C   UNK     0      -0.389 -11.351  -9.347  0.00  0.00     0.003 A 
HETATM    5  C   UNK     0       0.005 -10.482  -8.301  0.00  0.00     0.044 A 
HETATM    6  C   UNK     0       1.245  -9.791  -8.407  0.00  0.00     0.044 A 
HETATM    7  C   UNK     0      -0.794 -10.275  -7.133  0.00  0.00     0.217 C 
HETATM    8  C   UNK     0      -0.300  -9.516  -6.061  0.00  0.00     0.162 C 
HETATM    9  C   UNK     0       0.895  -8.887  -6.148  0.00  0.00     0.146 C 
HETATM   10  C   UNK     0       1.625  -8.917  -7.347  0.00  0.00     0.215 C 
HETATM   11  O   UNK     0       2.595  -8.135  -7.501  0.00  0.00    -0.285 OA
HETATM   12  O   UNK     0      -1.941 -10.780  -7.064  0.00  0.00    -0.285 OA
HETATM   13  N   UNK     0      -1.018  -9.440  -4.945  0.00  0.00    -0.143 N 
ENDROOT
BRANCH   9  14
HETATM   14  N   UNK     0       1.377  -8.219  -5.088  0.00  0.00    -0.205 NA
HETATM   15  C   UNK     0       2.295  -8.699  -4.194  0.00  0.00     0.281 C 
HETATM   16  O   UNK     0       2.704  -9.884  -4.244  0.00  0.00    -0.268 OA
BRANCH  15  17
HETATM   17  C   UNK     0       2.822  -7.804  -3.144  0.00  0.00     0.219 C 
BRANCH  17  18
HETATM   18  N   UNK     0       3.548  -6.714  -3.713  0.00  0.00    -0.221 N 
HETATM   19  C   UNK     0       4.419  -6.780  -4.732  0.00  0.00     0.114 A 
HETATM   20  C   UNK     0       4.894  -5.491  -4.911  0.00  0.00     0.101 A 
HETATM   21  N   UNK     0       4.273  -4.725  -4.003  0.00  0.00    -0.133 NA
HETATM   22  N   UNK     0       3.477  -5.482  -3.309  0.00  0.00    -0.064 NA
BRANCH  20  23
HETATM   23  C   UNK     0       5.858  -5.027  -5.923  0.00  0.00     0.044 A 
HETATM   24  C   UNK     0       7.284  -4.672  -5.461  0.00  0.00     0.006 A 
HETATM   25  C   UNK     0       7.037  -5.955  -6.262  0.00  0.00     0.006 A 
ENDBRANCH  20  23
ENDBRANCH  17  18
ENDBRANCH  15  17
ENDBRANCH   9  14
TORSDOF 4
ENDMDL
MODEL 9
REMARK VINA RESULT:      -6.2     16.778     19.377
REMARK  4 active torsions:
REMARK  status: ('A' for Active; 'I' for Inactive)
REMARK    1  A    between atoms: C_9  and  N_13 
REMARK       I    between atoms: N_13  and  C_14 
REMARK    2  A    between atoms: C_14  and  C_17 
REMARK    3  A    between atoms: C_17  and  N_18 
REMARK    4  A    between atoms: C_20  and  C_23 
ROOT
HETATM    1  C   UNK     0      -4.449   0.552  -5.400  0.00  0.00     0.003 A 
HETATM    2  C   UNK     0      -4.973   0.463  -4.100  0.00  0.00     0.000 A 
HETATM    3  C   UNK     0      -6.225  -0.136  -3.889  0.00  0.00     0.000 A 
HETATM    4  C   UNK     0      -6.954  -0.647  -4.976  0.00  0.00     0.003 A 
HETATM    5  C   UNK     0      -6.447  -0.554  -6.295  0.00  0.00     0.044 A 
HETATM    6  C   UNK     0      -5.175   0.050  -6.507  0.00  0.00     0.044 A 
HETATM    7  C   UNK     0      -7.170  -1.039  -7.431  0.00  0.00     0.217 C 
HETATM    8  C   UNK     0      -6.694  -0.800  -8.729  0.00  0.00     0.162 C 
HETATM    9  C   UNK     0      -5.500  -0.194  -8.931  0.00  0.00     0.146 C 
HETATM   10  C   UNK     0      -4.679   0.132  -7.840  0.00  0.00     0.215 C 
HETATM   11  O   UNK     0      -3.483   0.457  -8.041  0.00  0.00    -0.285 OA
HETATM   12  O   UNK     0      -8.238  -1.677  -7.265  0.00  0.00    -0.285 OA
HETATM   13  N   UNK     0      -7.446  -1.160  -9.764  0.00  0.00    -0.143 N 
ENDROOT
BRANCH   9  14
HETATM   14  N   UNK     0      -5.094   0.082 -10.180  0.00  0.00    -0.205 NA
HETATM   15  C   UNK     0      -5.156   1.307 -10.787  0.00  0.00     0.281 C 
HETATM   16  O   UNK     0      -5.707   2.288 -10.230  0.00  0.00    -0.268 OA
BRANCH  15  17
HETATM   17  C   UNK     0      -4.560   1.486 -12.126  0.00  0.00     0.219 C 
BRANCH  17  18
HETATM   18  N   UNK     0      -3.216   1.004 -12.159  0.00  0.00    -0.221 N 
HETATM   19  C   UNK     0      -2.163   1.530 -11.517  0.00  0.00     0.114 A 
HETATM   20  C   UNK     0      -1.072   0.753 -11.872  0.00  0.00     0.101 A 
HETATM   21  N   UNK     0      -1.535  -0.201 -12.693  0.00  0.00    -0.133 NA
HETATM   22  N   UNK     0      -2.813  -0.026 -12.840  0.00  0.00    -0.064 NA
BRANCH  20  23
HETATM   23  C   UNK     0       0.319   0.903 -11.415  0.00  0.00     0.044 A 
HETATM   24  C   UNK     0       0.779   0.080 -10.197  0.00  0.00     0.006 A 
HETATM   25  C   UNK     0       1.264  -0.296 -11.601  0.00  0.00     0.006 A 
ENDBRANCH  20  23
ENDBRANCH  17  18
ENDBRANCH  15  17
ENDBRANCH   9  14
TORSDOF 4
ENDMDL
