MODEL 1
REMARK VINA RESULT:      -7.8      0.000      0.000
REMARK  6 active torsions:
REMARK  status: ('A' for Active; 'I' for Inactive)
REMARK    1  A    between atoms: C_9  and  N_13 
REMARK       I    between atoms: N_13  and  C_14 
REMARK    2  A    between atoms: C_14  and  C_17 
REMARK    3  A    between atoms: C_17  and  N_18 
REMARK    4  A    between atoms: C_20  and  C_23 
REMARK    5  A    between atoms: C_23  and  C_24 
REMARK    6  A    between atoms: C_24  and  C_25 
ROOT
HETATM    1  N   UNK     0       1.455  -0.448 -11.804  0.00  0.00    -0.205 NA
HETATM    2  C   UNK     0       0.240  -0.535 -12.421  0.00  0.00     0.281 C 
HETATM    3  O   UNK     0      -0.033  -1.642 -12.936  0.00  0.00    -0.268 OA
ENDROOT
BRANCH   2   4
HETATM    4  C   UNK     0      -0.800   0.523 -12.478  0.00  0.00     0.219 C 
BRANCH   4   5
HETATM    5  N   UNK     0      -2.045   0.041 -11.963  0.00  0.00    -0.221 N 
HETATM    6  C   UNK     0      -2.486   0.143 -10.695  0.00  0.00     0.114 A 
HETATM    7  C   UNK     0      -3.745  -0.438 -10.679  0.00  0.00     0.101 A 
HETATM    8  N   UNK     0      -3.976  -0.862 -11.930  0.00  0.00    -0.133 NA
HETATM    9  N   UNK     0      -2.952  -0.561 -12.667  0.00  0.00    -0.064 NA
BRANCH   7  10
HETATM   10  C   UNK     0      -4.679  -0.575  -9.542  0.00  0.00     0.054 C 
BRANCH  10  11
HETATM   11  C   UNK     0      -4.322   0.375  -8.366  0.00  0.00     0.033 C 
BRANCH  11  12
HETATM   12  C   UNK     0      -4.671  -0.220  -7.046  0.00  0.00    -0.022 A 
HETATM   13  C   UNK     0      -4.358   0.455  -5.841  0.00  0.00    -0.004 A 
HETATM   14  C   UNK     0      -4.710  -0.097  -4.594  0.00  0.00    -0.000 A 
HETATM   15  C   UNK     0      -5.374  -1.335  -4.534  0.00  0.00     0.000 A 
HETATM   16  C   UNK     0      -5.682  -2.023  -5.722  0.00  0.00    -0.000 A 
HETATM   17  C   UNK     0      -5.332  -1.469  -6.968  0.00  0.00    -0.004 A 
ENDBRANCH  11  12
ENDBRANCH  10  11
ENDBRANCH   7  10
ENDBRANCH   4   5
ENDBRANCH   2   4
BRANCH   1  18
HETATM   18  C   UNK     0       1.947   0.615 -11.154  0.00  0.00     0.146 C 
HETATM   19  C   UNK     0       1.675   0.771  -9.836  0.00  0.00     0.162 C 
HETATM   20  C   UNK     0       2.081   1.919  -9.147  0.00  0.00     0.217 C 
HETATM   21  N   UNK     0       0.977  -0.143  -9.173  0.00  0.00    -0.143 N 
HETATM   22  C   UNK     0       2.631   3.022  -9.866  0.00  0.00     0.044 A 
HETATM   23  O   UNK     0       1.944   1.986  -7.901  0.00  0.00    -0.285 OA
HETATM   24  C   UNK     0       2.818   4.292  -9.270  0.00  0.00     0.003 A 
HETATM   25  C   UNK     0       2.971   2.842 -11.236  0.00  0.00     0.044 A 
HETATM   26  C   UNK     0       3.330   5.366 -10.019  0.00  0.00     0.000 A 
HETATM   27  C   UNK     0       3.682   5.182 -11.366  0.00  0.00     0.000 A 
HETATM   28  C   UNK     0       3.511   3.925 -11.970  0.00  0.00     0.003 A 
HETATM   29  C   UNK     0       2.717   1.573 -11.836  0.00  0.00     0.215 C 
HETATM   30  O   UNK     0       3.170   1.314 -12.978  0.00  0.00    -0.285 OA
ENDBRANCH   1  18
TORSDOF 6
ENDMDL
MODEL 2
REMARK VINA RESULT:      -7.6      2.431      8.079
REMARK  6 active torsions:
REMARK  status: ('A' for Active; 'I' for Inactive)
REMARK    1  A    between atoms: C_9  and  N_13 
REMARK       I    between atoms: N_13  and  C_14 
REMARK    2  A    between atoms: C_14  and  C_17 
REMARK    3  A    between atoms: C_17  and  N_18 
REMARK    4  A    between atoms: C_20  and  C_23 
REMARK    5  A    between atoms: C_23  and  C_24 
REMARK    6  A    between atoms: C_24  and  C_25 
ROOT
HETATM    1  N   UNK     0      -4.931  -0.186 -10.696  0.00  0.00    -0.205 NA
HETATM    2  C   UNK     0      -4.137  -0.742 -11.657  0.00  0.00     0.281 C 
HETATM    3  O   UNK     0      -4.087  -0.127 -12.746  0.00  0.00    -0.268 OA
ENDROOT
BRANCH   2   4
HETATM    4  C   UNK     0      -3.288  -1.951 -11.513  0.00  0.00     0.219 C 
BRANCH   4   5
HETATM    5  N   UNK     0      -1.920  -1.649 -11.802  0.00  0.00    -0.221 N 
HETATM    6  C   UNK     0      -1.087  -0.896 -11.060  0.00  0.00     0.114 A 
HETATM    7  C   UNK     0       0.134  -0.911 -11.718  0.00  0.00     0.101 A 
HETATM    8  N   UNK     0      -0.045  -1.659 -12.817  0.00  0.00    -0.133 NA
HETATM    9  N   UNK     0      -1.269  -2.085 -12.836  0.00  0.00    -0.064 NA
BRANCH   7  10
HETATM   10  C   UNK     0       1.400  -0.258 -11.322  0.00  0.00     0.054 C 
BRANCH  10  11
HETATM   11  C   UNK     0       1.411   0.148  -9.824  0.00  0.00     0.033 C 
BRANCH  11  12
HETATM   12  C   UNK     0       1.940   1.526  -9.626  0.00  0.00    -0.022 A 
HETATM   13  C   UNK     0       2.143   2.046  -8.324  0.00  0.00    -0.004 A 
HETATM   14  C   UNK     0       2.666   3.339  -8.138  0.00  0.00    -0.000 A 
HETATM   15  C   UNK     0       2.988   4.136  -9.251  0.00  0.00     0.000 A 
HETATM   16  C   UNK     0       2.782   3.639 -10.551  0.00  0.00    -0.000 A 
HETATM   17  C   UNK     0       2.261   2.344 -10.737  0.00  0.00    -0.004 A 
ENDBRANCH  11  12
ENDBRANCH  10  11
ENDBRANCH   7  10
ENDBRANCH   4   5
ENDBRANCH   2   4
BRANCH   1  18
HETATM   18  C   UNK     0      -5.111  -0.640  -9.448  0.00  0.00     0.146 C 
HETATM   19  C   UNK     0      -6.016  -1.623  -9.224  0.00  0.00     0.162 C 
HETATM   20  C   UNK     0      -6.309  -2.052  -7.925  0.00  0.00     0.217 C 
HETATM   21  N   UNK     0      -6.683  -2.175 -10.231  0.00  0.00    -0.143 N 
HETATM   22  C   UNK     0      -5.789  -1.335  -6.806  0.00  0.00     0.044 A 
HETATM   23  O   UNK     0      -7.044  -3.054  -7.744  0.00  0.00    -0.285 OA
HETATM   24  C   UNK     0      -6.251  -1.558  -5.488  0.00  0.00     0.003 A 
HETATM   25  C   UNK     0      -4.795  -0.342  -7.035  0.00  0.00     0.044 A 
HETATM   26  C   UNK     0      -5.741  -0.808  -4.414  0.00  0.00     0.000 A 
HETATM   27  C   UNK     0      -4.746   0.159  -4.638  0.00  0.00     0.000 A 
HETATM   28  C   UNK     0      -4.270   0.386  -5.940  0.00  0.00     0.003 A 
HETATM   29  C   UNK     0      -4.387  -0.088  -8.378  0.00  0.00     0.215 C 
HETATM   30  O   UNK     0      -3.389   0.638  -8.606  0.00  0.00    -0.285 OA
ENDBRANCH   1  18
TORSDOF 6
ENDMDL
MODEL 3
REMARK VINA RESULT:      -7.4      1.372      2.450
REMARK  6 active torsions:
REMARK  status: ('A' for Active; 'I' for Inactive)
REMARK    1  A    between atoms: C_9  and  N_13 
REMARK       I    between atoms: N_13  and  C_14 
REMARK    2  A    between atoms: C_14  and  C_17 
REMARK    3  A    between atoms: C_17  and  N_18 
REMARK    4  A    between atoms: C_20  and  C_23 
REMARK    5  A    between atoms: C_23  and  C_24 
REMARK    6  A    between atoms: C_24  and  C_25 
ROOT
HETATM    1  N   UNK     0       1.219  -0.608 -12.425  0.00  0.00    -0.205 NA
HETATM    2  C   UNK     0       0.028  -0.960 -12.991  0.00  0.00     0.281 C 
HETATM    3  O   UNK     0      -0.039  -2.126 -13.442  0.00  0.00    -0.268 OA
ENDROOT
BRANCH   2   4
HETATM    4  C   UNK     0      -1.199  -0.127 -13.061  0.00  0.00     0.219 C 
BRANCH   4   5
HETATM    5  N   UNK     0      -2.045  -0.371 -11.933  0.00  0.00    -0.221 N 
HETATM    6  C   UNK     0      -2.511   0.543 -11.063  0.00  0.00     0.114 A 
HETATM    7  C   UNK     0      -3.306  -0.152 -10.164  0.00  0.00     0.101 A 
HETATM    8  N   UNK     0      -3.258  -1.438 -10.541  0.00  0.00    -0.133 NA
HETATM    9  N   UNK     0      -2.507  -1.535 -11.594  0.00  0.00    -0.064 NA
BRANCH   7  10
HETATM   10  C   UNK     0      -4.073   0.376  -9.016  0.00  0.00     0.054 C 
BRANCH  10  11
HETATM   11  C   UNK     0      -4.942  -0.716  -8.335  0.00  0.00     0.033 C 
BRANCH  11  12
HETATM   12  C   UNK     0      -5.227  -0.390  -6.909  0.00  0.00    -0.022 A 
HETATM   13  C   UNK     0      -6.473  -0.719  -6.324  0.00  0.00    -0.004 A 
HETATM   14  C   UNK     0      -6.732  -0.432  -4.971  0.00  0.00    -0.000 A 
HETATM   15  C   UNK     0      -5.750   0.194  -4.183  0.00  0.00     0.000 A 
HETATM   16  C   UNK     0      -4.510   0.538  -4.752  0.00  0.00    -0.000 A 
HETATM   17  C   UNK     0      -4.251   0.249  -6.106  0.00  0.00    -0.004 A 
ENDBRANCH  11  12
ENDBRANCH  10  11
ENDBRANCH   7  10
ENDBRANCH   4   5
ENDBRANCH   2   4
BRANCH   1  18
HETATM   18  C   UNK     0       1.512   0.564 -11.846  0.00  0.00     0.146 C 
HETATM   19  C   UNK     0       1.993   1.578 -12.606  0.00  0.00     0.162 C 
HETATM   20  C   UNK     0       2.409   2.781 -12.025  0.00  0.00     0.217 C 
HETATM   21  N   UNK     0       2.123   1.439 -13.920  0.00  0.00    -0.143 N 
HETATM   22  C   UNK     0       2.499   2.890 -10.605  0.00  0.00     0.044 A 
HETATM   23  O   UNK     0       2.720   3.756 -12.752  0.00  0.00    -0.285 OA
HETATM   24  C   UNK     0       3.150   3.976  -9.973  0.00  0.00     0.003 A 
HETATM   25  C   UNK     0       1.943   1.853  -9.804  0.00  0.00     0.044 A 
HETATM   26  C   UNK     0       3.251   4.033  -8.572  0.00  0.00     0.000 A 
HETATM   27  C   UNK     0       2.685   3.018  -7.782  0.00  0.00     0.000 A 
HETATM   28  C   UNK     0       2.028   1.938  -8.393  0.00  0.00     0.003 A 
HETATM   29  C   UNK     0       1.346   0.736 -10.461  0.00  0.00     0.215 C 
HETATM   30  O   UNK     0       0.683  -0.101  -9.802  0.00  0.00    -0.285 OA
ENDBRANCH   1  18
TORSDOF 6
ENDMDL
MODEL 4
REMARK VINA RESULT:      -7.4     10.315     12.353
REMARK  6 active torsions:
REMARK  status: ('A' for Active; 'I' for Inactive)
REMARK    1  A    between atoms: C_9  and  N_13 
REMARK       I    between atoms: N_13  and  C_14 
REMARK    2  A    between atoms: C_14  and  C_17 
REMARK    3  A    between atoms: C_17  and  N_18 
REMARK    4  A    between atoms: C_20  and  C_23 
REMARK    5  A    between atoms: C_23  and  C_24 
REMARK    6  A    between atoms: C_24  and  C_25 
ROOT
HETATM    1  N   UNK     0       6.040  -6.887  -2.465  0.00  0.00    -0.205 NA
HETATM    2  C   UNK     0       5.563  -8.029  -1.889  0.00  0.00     0.281 C 
HETATM    3  O   UNK     0       5.502  -8.026  -0.639  0.00  0.00    -0.268 OA
ENDROOT
BRANCH   2   4
HETATM    4  C   UNK     0       5.055  -9.231  -2.597  0.00  0.00     0.219 C 
BRANCH   4   5
HETATM    5  N   UNK     0       3.944  -8.896  -3.434  0.00  0.00    -0.221 N 
HETATM    6  C   UNK     0       3.796  -9.202  -4.737  0.00  0.00     0.114 A 
HETATM    7  C   UNK     0       2.559  -8.699  -5.111  0.00  0.00     0.101 A 
HETATM    8  N   UNK     0       2.048  -8.115  -4.017  0.00  0.00    -0.133 NA
HETATM    9  N   UNK     0       2.890  -8.252  -3.041  0.00  0.00    -0.064 NA
BRANCH   7  10
HETATM   10  C   UNK     0       1.897  -8.776  -6.430  0.00  0.00     0.054 C 
BRANCH  10  11
HETATM   11  C   UNK     0       2.497  -7.773  -7.452  0.00  0.00     0.033 C 
BRANCH  11  12
HETATM   12  C   UNK     0       3.209  -8.469  -8.560  0.00  0.00    -0.022 A 
HETATM   13  C   UNK     0       3.176  -7.955  -9.879  0.00  0.00    -0.004 A 
HETATM   14  C   UNK     0       3.869  -8.600 -10.921  0.00  0.00    -0.000 A 
HETATM   15  C   UNK     0       4.601  -9.772 -10.661  0.00  0.00     0.000 A 
HETATM   16  C   UNK     0       4.635 -10.301  -9.358  0.00  0.00    -0.000 A 
HETATM   17  C   UNK     0       3.944  -9.655  -8.315  0.00  0.00    -0.004 A 
ENDBRANCH  11  12
ENDBRANCH  10  11
ENDBRANCH   7  10
ENDBRANCH   4   5
ENDBRANCH   2   4
BRANCH   1  18
HETATM   18  C   UNK     0       6.161  -6.644  -3.776  0.00  0.00     0.146 C 
HETATM   19  C   UNK     0       5.317  -5.767  -4.370  0.00  0.00     0.162 C 
HETATM   20  C   UNK     0       5.342  -5.564  -5.754  0.00  0.00     0.217 C 
HETATM   21  N   UNK     0       4.412  -5.107  -3.657  0.00  0.00    -0.143 N 
HETATM   22  C   UNK     0       6.137  -6.413  -6.581  0.00  0.00     0.044 A 
HETATM   23  O   UNK     0       4.652  -4.651  -6.268  0.00  0.00    -0.285 OA
HETATM   24  C   UNK     0       6.006  -6.427  -7.991  0.00  0.00     0.003 A 
HETATM   25  C   UNK     0       7.066  -7.294  -5.961  0.00  0.00     0.044 A 
HETATM   26  C   UNK     0       6.781  -7.302  -8.772  0.00  0.00     0.000 A 
HETATM   27  C   UNK     0       7.712  -8.159  -8.160  0.00  0.00     0.000 A 
HETATM   28  C   UNK     0       7.859  -8.150  -6.763  0.00  0.00     0.003 A 
HETATM   29  C   UNK     0       7.138  -7.310  -4.537  0.00  0.00     0.215 C 
HETATM   30  O   UNK     0       8.066  -7.929  -3.960  0.00  0.00    -0.285 OA
ENDBRANCH   1  18
TORSDOF 6
ENDMDL
MODEL 5
REMARK VINA RESULT:      -7.3     10.067     13.410
REMARK  6 active torsions:
REMARK  status: ('A' for Active; 'I' for Inactive)
REMARK    1  A    between atoms: C_9  and  N_13 
REMARK       I    between atoms: N_13  and  C_14 
REMARK    2  A    between atoms: C_14  and  C_17 
REMARK    3  A    between atoms: C_17  and  N_18 
REMARK    4  A    between atoms: C_20  and  C_23 
REMARK    5  A    between atoms: C_23  and  C_24 
REMARK    6  A    between atoms: C_24  and  C_25 
ROOT
HETATM    1  N   UNK     0       4.116  -7.036  -7.050  0.00  0.00    -0.205 NA
HETATM    2  C   UNK     0       5.058  -7.231  -8.020  0.00  0.00     0.281 C 
HETATM    3  O   UNK     0       4.658  -7.115  -9.200  0.00  0.00    -0.268 OA
ENDROOT
BRANCH   2   4
HETATM    4  C   UNK     0       6.503  -7.496  -7.808  0.00  0.00     0.219 C 
BRANCH   4   5
HETATM    5  N   UNK     0       7.207  -6.283  -7.525  0.00  0.00    -0.221 N 
HETATM    6  C   UNK     0       7.266  -5.185  -8.302  0.00  0.00     0.114 A 
HETATM    7  C   UNK     0       8.034  -4.263  -7.608  0.00  0.00     0.101 A 
HETATM    8  N   UNK     0       8.398  -4.866  -6.467  0.00  0.00    -0.133 NA
HETATM    9  N   UNK     0       7.890  -6.059  -6.446  0.00  0.00    -0.064 NA
BRANCH   7  10
HETATM   10  C   UNK     0       8.395  -2.885  -8.002  0.00  0.00     0.054 C 
BRANCH  10  11
HETATM   11  C   UNK     0       9.803  -2.807  -8.653  0.00  0.00     0.033 C 
BRANCH  11  12
HETATM   12  C   UNK     0      10.761  -2.034  -7.814  0.00  0.00    -0.022 A 
HETATM   13  C   UNK     0      11.483  -2.663  -6.771  0.00  0.00    -0.004 A 
HETATM   14  C   UNK     0      12.406  -1.937  -5.995  0.00  0.00    -0.000 A 
HETATM   15  C   UNK     0      12.615  -0.569  -6.245  0.00  0.00     0.000 A 
HETATM   16  C   UNK     0      11.897   0.073  -7.269  0.00  0.00    -0.000 A 
HETATM   17  C   UNK     0      10.976  -0.654  -8.048  0.00  0.00    -0.004 A 
ENDBRANCH  11  12
ENDBRANCH  10  11
ENDBRANCH   7  10
ENDBRANCH   4   5
ENDBRANCH   2   4
BRANCH   1  18
HETATM   18  C   UNK     0       4.315  -7.071  -5.726  0.00  0.00     0.146 C 
HETATM   19  C   UNK     0       4.562  -5.916  -5.062  0.00  0.00     0.162 C 
HETATM   20  C   UNK     0       4.878  -5.921  -3.698  0.00  0.00     0.217 C 
HETATM   21  N   UNK     0       4.553  -4.751  -5.698  0.00  0.00    -0.143 N 
HETATM   22  C   UNK     0       5.120  -7.158  -3.030  0.00  0.00     0.044 A 
HETATM   23  O   UNK     0       4.966  -4.838  -3.070  0.00  0.00    -0.285 OA
HETATM   24  C   UNK     0       5.689  -7.216  -1.736  0.00  0.00     0.003 A 
HETATM   25  C   UNK     0       4.806  -8.371  -3.706  0.00  0.00     0.044 A 
HETATM   26  C   UNK     0       5.946  -8.455  -1.122  0.00  0.00     0.000 A 
HETATM   27  C   UNK     0       5.619  -9.651  -1.782  0.00  0.00     0.000 A 
HETATM   28  C   UNK     0       5.045  -9.610  -3.064  0.00  0.00     0.003 A 
HETATM   29  C   UNK     0       4.292  -8.294  -5.034  0.00  0.00     0.215 C 
HETATM   30  O   UNK     0       3.831  -9.319  -5.591  0.00  0.00    -0.285 OA
ENDBRANCH   1  18
TORSDOF 6
ENDMDL
MODEL 6
REMARK VINA RESULT:      -7.3      9.944     13.561
REMARK  6 active torsions:
REMARK  status: ('A' for Active; 'I' for Inactive)
REMARK    1  A    between atoms: C_9  and  N_13 
REMARK       I    between atoms: N_13  and  C_14 
REMARK    2  A    between atoms: C_14  and  C_17 
REMARK    3  A    between atoms: C_17  and  N_18 
REMARK    4  A    between atoms: C_20  and  C_23 
REMARK    5  A    between atoms: C_23  and  C_24 
REMARK    6  A    between atoms: C_24  and  C_25 
ROOT
HETATM    1  N   UNK     0       1.601 -10.334  -6.966  0.00  0.00    -0.205 NA
HETATM    2  C   UNK     0       2.679 -10.558  -6.159  0.00  0.00     0.281 C 
HETATM    3  O   UNK     0       3.792 -10.586  -6.730  0.00  0.00    -0.268 OA
ENDROOT
BRANCH   2   4
HETATM    4  C   UNK     0       2.662 -10.702  -4.682  0.00  0.00     0.219 C 
BRANCH   4   5
HETATM    5  N   UNK     0       2.911  -9.445  -4.045  0.00  0.00    -0.221 N 
HETATM    6  C   UNK     0       4.112  -8.890  -3.799  0.00  0.00     0.114 A 
HETATM    7  C   UNK     0       3.855  -7.668  -3.196  0.00  0.00     0.101 A 
HETATM    8  N   UNK     0       2.521  -7.571  -3.106  0.00  0.00    -0.133 NA
HETATM    9  N   UNK     0       1.990  -8.636  -3.620  0.00  0.00    -0.064 NA
BRANCH   7  10
HETATM   10  C   UNK     0       4.822  -6.647  -2.739  0.00  0.00     0.054 C 
BRANCH  10  11
HETATM   11  C   UNK     0       4.572  -5.262  -3.395  0.00  0.00     0.033 C 
BRANCH  11  12
HETATM   12  C   UNK     0       5.408  -5.067  -4.613  0.00  0.00    -0.022 A 
HETATM   13  C   UNK     0       4.867  -5.271  -5.905  0.00  0.00    -0.004 A 
HETATM   14  C   UNK     0       5.651  -5.062  -7.056  0.00  0.00    -0.000 A 
HETATM   15  C   UNK     0       6.990  -4.652  -6.931  0.00  0.00     0.000 A 
HETATM   16  C   UNK     0       7.546  -4.455  -5.654  0.00  0.00    -0.000 A 
HETATM   17  C   UNK     0       6.761  -4.662  -4.503  0.00  0.00    -0.004 A 
ENDBRANCH  11  12
ENDBRANCH  10  11
ENDBRANCH   7  10
ENDBRANCH   4   5
ENDBRANCH   2   4
BRANCH   1  18
HETATM   18  C   UNK     0       0.323 -10.226  -6.580  0.00  0.00     0.146 C 
HETATM   19  C   UNK     0      -0.197  -8.997  -6.344  0.00  0.00     0.162 C 
HETATM   20  C   UNK     0      -1.494  -8.847  -5.839  0.00  0.00     0.217 C 
HETATM   21  N   UNK     0       0.527  -7.903  -6.546  0.00  0.00    -0.143 N 
HETATM   22  C   UNK     0      -2.220  -9.992  -5.397  0.00  0.00     0.044 A 
HETATM   23  O   UNK     0      -2.008  -7.705  -5.758  0.00  0.00    -0.285 OA
HETATM   24  C   UNK     0      -3.416  -9.882  -4.648  0.00  0.00     0.003 A 
HETATM   25  C   UNK     0      -1.704 -11.285  -5.694  0.00  0.00     0.044 A 
HETATM   26  C   UNK     0      -4.087 -11.032  -4.198  0.00  0.00     0.000 A 
HETATM   27  C   UNK     0      -3.587 -12.308  -4.508  0.00  0.00     0.000 A 
HETATM   28  C   UNK     0      -2.406 -12.434  -5.259  0.00  0.00     0.003 A 
HETATM   29  C   UNK     0      -0.466 -11.374  -6.396  0.00  0.00     0.215 C 
HETATM   30  O   UNK     0      -0.072 -12.481  -6.840  0.00  0.00    -0.285 OA
ENDBRANCH   1  18
TORSDOF 6
ENDMDL
MODEL 7
REMARK VINA RESULT:      -7.3     10.887     13.812
REMARK  6 active torsions:
REMARK  status: ('A' for Active; 'I' for Inactive)
REMARK    1  A    between atoms: C_9  and  N_13 
REMARK       I    between atoms: N_13  and  C_14 
REMARK    2  A    between atoms: C_14  and  C_17 
REMARK    3  A    between atoms: C_17  and  N_18 
REMARK    4  A    between atoms: C_20  and  C_23 
REMARK    5  A    between atoms: C_23  and  C_24 
REMARK    6  A    between atoms: C_24  and  C_25 
ROOT
HETATM    1  N   UNK     0       4.150  -7.571  -3.268  0.00  0.00    -0.205 NA
HETATM    2  C   UNK     0       3.807  -6.250  -3.306  0.00  0.00     0.281 C 
HETATM    3  O   UNK     0       2.593  -5.996  -3.136  0.00  0.00    -0.268 OA
ENDROOT
BRANCH   2   4
HETATM    4  C   UNK     0       4.732  -5.100  -3.459  0.00  0.00     0.219 C 
BRANCH   4   5
HETATM    5  N   UNK     0       5.280  -5.060  -4.780  0.00  0.00    -0.221 N 
HETATM    6  C   UNK     0       6.582  -4.973  -5.110  0.00  0.00     0.114 A 
HETATM    7  C   UNK     0       6.630  -4.995  -6.495  0.00  0.00     0.101 A 
HETATM    8  N   UNK     0       5.358  -5.081  -6.911  0.00  0.00    -0.133 NA
HETATM    9  N   UNK     0       4.583  -5.122  -5.872  0.00  0.00    -0.064 NA
BRANCH   7  10
HETATM   10  C   UNK     0       7.817  -4.945  -7.375  0.00  0.00     0.054 C 
BRANCH  10  11
HETATM   11  C   UNK     0       9.147  -4.975  -6.574  0.00  0.00     0.033 C 
BRANCH  11  12
HETATM   12  C   UNK     0      10.031  -3.827  -6.922  0.00  0.00    -0.022 A 
HETATM   13  C   UNK     0      11.277  -3.648  -6.274  0.00  0.00    -0.004 A 
HETATM   14  C   UNK     0      12.122  -2.577  -6.620  0.00  0.00    -0.000 A 
HETATM   15  C   UNK     0      11.731  -1.665  -7.616  0.00  0.00     0.000 A 
HETATM   16  C   UNK     0      10.491  -1.822  -8.263  0.00  0.00    -0.000 A 
HETATM   17  C   UNK     0       9.647  -2.895  -7.917  0.00  0.00    -0.004 A 
ENDBRANCH  11  12
ENDBRANCH  10  11
ENDBRANCH   7  10
ENDBRANCH   4   5
ENDBRANCH   2   4
BRANCH   1  18
HETATM   18  C   UNK     0       5.384  -8.078  -3.386  0.00  0.00     0.146 C 
HETATM   19  C   UNK     0       6.128  -8.280  -2.272  0.00  0.00     0.162 C 
HETATM   20  C   UNK     0       7.457  -8.710  -2.360  0.00  0.00     0.217 C 
HETATM   21  N   UNK     0       5.628  -8.034  -1.068  0.00  0.00    -0.143 N 
HETATM   22  C   UNK     0       8.102  -8.768  -3.631  0.00  0.00     0.044 A 
HETATM   23  O   UNK     0       8.086  -9.024  -1.320  0.00  0.00    -0.285 OA
HETATM   24  C   UNK     0       9.501  -8.942  -3.759  0.00  0.00     0.003 A 
HETATM   25  C   UNK     0       7.312  -8.614  -4.805  0.00  0.00     0.044 A 
HETATM   26  C   UNK     0      10.107  -8.960  -5.027  0.00  0.00     0.000 A 
HETATM   27  C   UNK     0       9.324  -8.826  -6.186  0.00  0.00     0.000 A 
HETATM   28  C   UNK     0       7.933  -8.662  -6.076  0.00  0.00     0.003 A 
HETATM   29  C   UNK     0       5.913  -8.377  -4.654  0.00  0.00     0.215 C 
HETATM   30  O   UNK     0       5.155  -8.422  -5.653  0.00  0.00    -0.285 OA
ENDBRANCH   1  18
TORSDOF 6
ENDMDL
MODEL 8
REMARK VINA RESULT:      -7.2     10.261     12.071
REMARK  6 active torsions:
REMARK  status: ('A' for Active; 'I' for Inactive)
REMARK    1  A    between atoms: C_9  and  N_13 
REMARK       I    between atoms: N_13  and  C_14 
REMARK    2  A    between atoms: C_14  and  C_17 
REMARK    3  A    between atoms: C_17  and  N_18 
REMARK    4  A    between atoms: C_20  and  C_23 
REMARK    5  A    between atoms: C_23  and  C_24 
REMARK    6  A    between atoms: C_24  and  C_25 
ROOT
HETATM    1  N   UNK     0       6.657  -5.949  -3.574  0.00  0.00    -0.205 NA
HETATM    2  C   UNK     0       5.584  -5.223  -3.144  0.00  0.00     0.281 C 
HETATM    3  O   UNK     0       5.729  -4.627  -2.053  0.00  0.00    -0.268 OA
ENDROOT
BRANCH   2   4
HETATM    4  C   UNK     0       4.305  -5.021  -3.870  0.00  0.00     0.219 C 
BRANCH   4   5
HETATM    5  N   UNK     0       3.538  -6.228  -3.896  0.00  0.00    -0.221 N 
HETATM    6  C   UNK     0       3.190  -6.938  -4.985  0.00  0.00     0.114 A 
HETATM    7  C   UNK     0       2.481  -8.035  -4.520  0.00  0.00     0.101 A 
HETATM    8  N   UNK     0       2.437  -7.910  -3.185  0.00  0.00    -0.133 NA
HETATM    9  N   UNK     0       3.074  -6.833  -2.846  0.00  0.00    -0.064 NA
BRANCH   7  10
HETATM   10  C   UNK     0       1.887  -9.143  -5.297  0.00  0.00     0.054 C 
BRANCH  10  11
HETATM   11  C   UNK     0       0.949  -8.636  -6.426  0.00  0.00     0.033 C 
BRANCH  11  12
HETATM   12  C   UNK     0       1.579  -8.764  -7.770  0.00  0.00    -0.022 A 
HETATM   13  C   UNK     0       2.308  -7.690  -8.335  0.00  0.00    -0.004 A 
HETATM   14  C   UNK     0       2.923  -7.820  -9.594  0.00  0.00    -0.000 A 
HETATM   15  C   UNK     0       2.813  -9.025 -10.311  0.00  0.00     0.000 A 
HETATM   16  C   UNK     0       2.083 -10.098  -9.768  0.00  0.00    -0.000 A 
HETATM   17  C   UNK     0       1.470  -9.968  -8.507  0.00  0.00    -0.004 A 
ENDBRANCH  11  12
ENDBRANCH  10  11
ENDBRANCH   7  10
ENDBRANCH   4   5
ENDBRANCH   2   4
BRANCH   1  18
HETATM   18  C   UNK     0       6.748  -6.635  -4.721  0.00  0.00     0.146 C 
HETATM   19  C   UNK     0       7.203  -6.009  -5.834  0.00  0.00     0.162 C 
HETATM   20  C   UNK     0       7.215  -6.659  -7.073  0.00  0.00     0.217 C 
HETATM   21  N   UNK     0       7.608  -4.746  -5.785  0.00  0.00    -0.143 N 
HETATM   22  C   UNK     0       6.581  -7.930  -7.215  0.00  0.00     0.044 A 
HETATM   23  O   UNK     0       7.766  -6.116  -8.062  0.00  0.00    -0.285 OA
HETATM   24  C   UNK     0       6.336  -8.512  -8.481  0.00  0.00     0.003 A 
HETATM   25  C   UNK     0       6.156  -8.614  -6.042  0.00  0.00     0.044 A 
HETATM   26  C   UNK     0       5.678  -9.750  -8.584  0.00  0.00     0.000 A 
HETATM   27  C   UNK     0       5.274 -10.433  -7.425  0.00  0.00     0.000 A 
HETATM   28  C   UNK     0       5.519  -9.873  -6.160  0.00  0.00     0.003 A 
HETATM   29  C   UNK     0       6.355  -7.983  -4.779  0.00  0.00     0.215 C 
HETATM   30  O   UNK     0       6.168  -8.625  -3.717  0.00  0.00    -0.285 OA
ENDBRANCH   1  18
TORSDOF 6
ENDMDL
MODEL 9
REMARK VINA RESULT:      -7.2      9.911     13.045
REMARK  6 active torsions:
REMARK  status: ('A' for Active; 'I' for Inactive)
REMARK    1  A    between atoms: C_9  and  N_13 
REMARK       I    between atoms: N_13  and  C_14 
REMARK    2  A    between atoms: C_14  and  C_17 
REMARK    3  A    between atoms: C_17  and  N_18 
REMARK    4  A    between atoms: C_20  and  C_23 
REMARK    5  A    between atoms: C_23  and  C_24 
REMARK    6  A    between atoms: C_24  and  C_25 
ROOT
HETATM    1  N   UNK     0       4.666  -5.283  -3.589  0.00  0.00    -0.205 NA
HETATM    2  C   UNK     0       5.777  -5.644  -2.882  0.00  0.00     0.281 C 
HETATM    3  O   UNK     0       6.189  -4.808  -2.046  0.00  0.00    -0.268 OA
ENDROOT
BRANCH   2   4
HETATM    4  C   UNK     0       6.493  -6.942  -2.962  0.00  0.00     0.219 C 
BRANCH   4   5
HETATM    5  N   UNK     0       6.954  -7.188  -4.294  0.00  0.00    -0.221 N 
HETATM    6  C   UNK     0       7.689  -6.359  -5.058  0.00  0.00     0.114 A 
HETATM    7  C   UNK     0       7.915  -7.033  -6.249  0.00  0.00     0.101 A 
HETATM    8  N   UNK     0       7.294  -8.216  -6.131  0.00  0.00    -0.133 NA
HETATM    9  N   UNK     0       6.737  -8.279  -4.962  0.00  0.00    -0.064 NA
BRANCH   7  10
HETATM   10  C   UNK     0       8.685  -6.583  -7.428  0.00  0.00     0.054 C 
BRANCH  10  11
HETATM   11  C   UNK     0       8.147  -5.248  -8.009  0.00  0.00     0.033 C 
BRANCH  11  12
HETATM   12  C   UNK     0       9.143  -4.147  -7.885  0.00  0.00    -0.022 A 
HETATM   13  C   UNK     0      10.287  -4.293  -7.064  0.00  0.00    -0.004 A 
HETATM   14  C   UNK     0      11.240  -3.261  -6.967  0.00  0.00    -0.000 A 
HETATM   15  C   UNK     0      11.059  -2.065  -7.684  0.00  0.00     0.000 A 
HETATM   16  C   UNK     0       9.922  -1.900  -8.495  0.00  0.00    -0.000 A 
HETATM   17  C   UNK     0       8.970  -2.933  -8.594  0.00  0.00    -0.004 A 
ENDBRANCH  11  12
ENDBRANCH  10  11
ENDBRANCH   7  10
ENDBRANCH   4   5
ENDBRANCH   2   4
BRANCH   1  18
HETATM   18  C   UNK     0       4.027  -6.023  -4.504  0.00  0.00     0.146 C 
HETATM   19  C   UNK     0       3.116  -6.940  -4.098  0.00  0.00     0.162 C 
HETATM   20  C   UNK     0       2.504  -7.804  -5.012  0.00  0.00     0.217 C 
HETATM   21  N   UNK     0       2.813  -7.072  -2.812  0.00  0.00    -0.143 N 
HETATM   22  C   UNK     0       2.964  -7.850  -6.362  0.00  0.00     0.044 A 
HETATM   23  O   UNK     0       1.565  -8.549  -4.641  0.00  0.00    -0.285 OA
HETATM   24  C   UNK     0       2.568  -8.872  -7.258  0.00  0.00     0.003 A 
HETATM   25  C   UNK     0       3.877  -6.853  -6.807  0.00  0.00     0.044 A 
HETATM   26  C   UNK     0       3.069  -8.906  -8.571  0.00  0.00     0.000 A 
HETATM   27  C   UNK     0       3.955  -7.911  -9.015  0.00  0.00     0.000 A 
HETATM   28  C   UNK     0       4.352  -6.885  -8.140  0.00  0.00     0.003 A 
HETATM   29  C   UNK     0       4.313  -5.869  -5.871  0.00  0.00     0.215 C 
HETATM   30  O   UNK     0       4.964  -4.870  -6.266  0.00  0.00    -0.285 OA
ENDBRANCH   1  18
TORSDOF 6
ENDMDL
