MODEL 1
REMARK VINA RESULT:      -6.6      0.000      0.000
REMARK  6 active torsions:
REMARK  status: ('A' for Active; 'I' for Inactive)
REMARK    1  A    between atoms: C_9  and  N_13 
REMARK       I    between atoms: N_13  and  C_14 
REMARK    2  A    between atoms: C_14  and  C_17 
REMARK    3  A    between atoms: C_17  and  N_18 
REMARK    4  A    between atoms: C_20  and  C_23 
REMARK    5  A    between atoms: C_23  and  C_24 
REMARK    6  A    between atoms: C_24  and  C_25 
ROOT
HETATM    1  N   UNK     0       7.785  -4.258  -0.498  0.00  0.00    -0.205 NA
HETATM    2  C   UNK     0       6.960  -5.342  -0.588  0.00  0.00     0.281 C 
HETATM    3  O   UNK     0       5.851  -5.141  -1.132  0.00  0.00    -0.268 OA
ENDROOT
BRANCH   2   4
HETATM    4  C   UNK     0       7.275  -6.731  -0.168  0.00  0.00     0.219 C 
BRANCH   4   5
HETATM    5  N   UNK     0       7.294  -6.840   1.258  0.00  0.00    -0.221 N 
HETATM    6  C   UNK     0       8.269  -7.382   2.012  0.00  0.00     0.114 A 
HETATM    7  C   UNK     0       7.861  -7.237   3.329  0.00  0.00     0.101 A 
HETATM    8  N   UNK     0       6.666  -6.630   3.285  0.00  0.00    -0.133 NA
HETATM    9  N   UNK     0       6.360  -6.405   2.046  0.00  0.00    -0.064 NA
BRANCH   7  10
HETATM   10  C   UNK     0       8.570  -7.644   4.561  0.00  0.00     0.054 C 
BRANCH  10  11
HETATM   11  C   UNK     0       7.944  -7.019   5.837  0.00  0.00     0.033 C 
BRANCH  11  12
HETATM   12  C   UNK     0       8.619  -5.748   6.221  0.00  0.00    -0.022 A 
HETATM   13  C   UNK     0       9.853  -5.763   6.917  0.00  0.00    -0.004 A 
HETATM   14  C   UNK     0      10.502  -4.562   7.259  0.00  0.00    -0.000 A 
HETATM   15  C   UNK     0       9.924  -3.327   6.916  0.00  0.00     0.000 A 
HETATM   16  C   UNK     0       8.694  -3.294   6.235  0.00  0.00    -0.000 A 
HETATM   17  C   UNK     0       8.046  -4.496   5.890  0.00  0.00    -0.004 A 
ENDBRANCH  11  12
ENDBRANCH  10  11
ENDBRANCH   7  10
ENDBRANCH   4   5
ENDBRANCH   2   4
BRANCH   1  18
HETATM   18  C   UNK     0       9.025  -4.239   0.007  0.00  0.00     0.146 C 
HETATM   19  C   UNK     0      10.082  -4.414  -0.822  0.00  0.00     0.162 C 
HETATM   20  C   UNK     0      11.386  -4.505  -0.321  0.00  0.00     0.217 C 
HETATM   21  N   UNK     0       9.904  -4.548  -2.131  0.00  0.00    -0.143 N 
HETATM   22  C   UNK     0      11.600  -4.594   1.087  0.00  0.00     0.044 A 
HETATM   23  O   UNK     0      12.362  -4.528  -1.109  0.00  0.00    -0.285 OA
HETATM   24  C   UNK     0      12.857  -4.944   1.636  0.00  0.00     0.003 A 
HETATM   25  C   UNK     0      10.503  -4.353   1.961  0.00  0.00     0.044 A 
HETATM   26  C   UNK     0      13.023  -5.057   3.028  0.00  0.00     0.000 A 
HETATM   27  C   UNK     0      11.944  -4.801   3.891  0.00  0.00     0.000 A 
HETATM   28  C   UNK     0      10.693  -4.443   3.361  0.00  0.00     0.003 A 
HETATM   29  C   UNK     0       9.230  -4.064   1.387  0.00  0.00     0.215 C 
HETATM   30  O   UNK     0       8.288  -3.664   2.113  0.00  0.00    -0.285 OA
ENDBRANCH   1  18
TORSDOF 6
ENDMDL
MODEL 2
REMARK VINA RESULT:      -6.5      3.354      5.533
REMARK  6 active torsions:
REMARK  status: ('A' for Active; 'I' for Inactive)
REMARK    1  A    between atoms: C_9  and  N_13 
REMARK       I    between atoms: N_13  and  C_14 
REMARK    2  A    between atoms: C_14  and  C_17 
REMARK    3  A    between atoms: C_17  and  N_18 
REMARK    4  A    between atoms: C_20  and  C_23 
REMARK    5  A    between atoms: C_23  and  C_24 
REMARK    6  A    between atoms: C_24  and  C_25 
ROOT
HETATM    1  N   UNK     0       9.281  -6.731   2.560  0.00  0.00    -0.205 NA
HETATM    2  C   UNK     0       8.895  -6.697   3.869  0.00  0.00     0.281 C 
HETATM    3  O   UNK     0       9.810  -6.837   4.712  0.00  0.00    -0.268 OA
ENDROOT
BRANCH   2   4
HETATM    4  C   UNK     0       7.524  -6.448   4.381  0.00  0.00     0.219 C 
BRANCH   4   5
HETATM    5  N   UNK     0       7.555  -5.587   5.523  0.00  0.00    -0.221 N 
HETATM    6  C   UNK     0       7.512  -5.960   6.815  0.00  0.00     0.114 A 
HETATM    7  C   UNK     0       7.597  -4.791   7.556  0.00  0.00     0.101 A 
HETATM    8  N   UNK     0       7.673  -3.790   6.666  0.00  0.00    -0.133 NA
HETATM    9  N   UNK     0       7.650  -4.294   5.471  0.00  0.00    -0.064 NA
BRANCH   7  10
HETATM   10  C   UNK     0       7.613  -4.633   9.025  0.00  0.00     0.054 C 
BRANCH  10  11
HETATM   11  C   UNK     0       6.393  -3.825   9.546  0.00  0.00     0.033 C 
BRANCH  11  12
HETATM   12  C   UNK     0       6.790  -2.813  10.563  0.00  0.00    -0.022 A 
HETATM   13  C   UNK     0       6.137  -2.751  11.818  0.00  0.00    -0.004 A 
HETATM   14  C   UNK     0       6.529  -1.809  12.788  0.00  0.00    -0.000 A 
HETATM   15  C   UNK     0       7.576  -0.911  12.516  0.00  0.00     0.000 A 
HETATM   16  C   UNK     0       8.228  -0.952  11.269  0.00  0.00    -0.000 A 
HETATM   17  C   UNK     0       7.837  -1.896  10.300  0.00  0.00    -0.004 A 
ENDBRANCH  11  12
ENDBRANCH  10  11
ENDBRANCH   7  10
ENDBRANCH   4   5
ENDBRANCH   2   4
BRANCH   1  18
HETATM   18  C   UNK     0       8.491  -6.568   1.491  0.00  0.00     0.146 C 
HETATM   19  C   UNK     0       7.894  -7.650   0.936  0.00  0.00     0.162 C 
HETATM   20  C   UNK     0       7.147  -7.537  -0.242  0.00  0.00     0.217 C 
HETATM   21  N   UNK     0       8.038  -8.855   1.473  0.00  0.00    -0.143 N 
HETATM   22  C   UNK     0       7.154  -6.311  -0.972  0.00  0.00     0.044 A 
HETATM   23  O   UNK     0       6.488  -8.518  -0.665  0.00  0.00    -0.285 OA
HETATM   24  C   UNK     0       6.636  -6.215  -2.286  0.00  0.00     0.003 A 
HETATM   25  C   UNK     0       7.730  -5.159  -0.367  0.00  0.00     0.044 A 
HETATM   26  C   UNK     0       6.692  -4.999  -2.990  0.00  0.00     0.000 A 
HETATM   27  C   UNK     0       7.244  -3.858  -2.384  0.00  0.00     0.000 A 
HETATM   28  C   UNK     0       7.753  -3.935  -1.077  0.00  0.00     0.003 A 
HETATM   29  C   UNK     0       8.302  -5.292   0.933  0.00  0.00     0.215 C 
HETATM   30  O   UNK     0       8.649  -4.271   1.575  0.00  0.00    -0.285 OA
ENDBRANCH   1  18
TORSDOF 6
ENDMDL
MODEL 3
REMARK VINA RESULT:      -6.5      2.162      4.160
REMARK  6 active torsions:
REMARK  status: ('A' for Active; 'I' for Inactive)
REMARK    1  A    between atoms: C_9  and  N_13 
REMARK       I    between atoms: N_13  and  C_14 
REMARK    2  A    between atoms: C_14  and  C_17 
REMARK    3  A    between atoms: C_17  and  N_18 
REMARK    4  A    between atoms: C_20  and  C_23 
REMARK    5  A    between atoms: C_23  and  C_24 
REMARK    6  A    between atoms: C_24  and  C_25 
ROOT
HETATM    1  N   UNK     0       7.063  -7.905   0.878  0.00  0.00    -0.205 NA
HETATM    2  C   UNK     0       7.355  -7.222  -0.268  0.00  0.00     0.281 C 
HETATM    3  O   UNK     0       6.520  -7.328  -1.195  0.00  0.00    -0.268 OA
ENDROOT
BRANCH   2   4
HETATM    4  C   UNK     0       8.516  -6.324  -0.490  0.00  0.00     0.219 C 
BRANCH   4   5
HETATM    5  N   UNK     0       8.599  -5.335   0.540  0.00  0.00    -0.221 N 
HETATM    6  C   UNK     0       9.641  -5.116   1.364  0.00  0.00     0.114 A 
HETATM    7  C   UNK     0       9.276  -4.047   2.169  0.00  0.00     0.101 A 
HETATM    8  N   UNK     0       8.038  -3.699   1.788  0.00  0.00    -0.133 NA
HETATM    9  N   UNK     0       7.667  -4.478   0.819  0.00  0.00    -0.064 NA
BRANCH   7  10
HETATM   10  C   UNK     0      10.062  -3.388   3.233  0.00  0.00     0.054 C 
BRANCH  10  11
HETATM   11  C   UNK     0      10.587  -4.397   4.290  0.00  0.00     0.033 C 
BRANCH  11  12
HETATM   12  C   UNK     0       9.928  -4.209   5.613  0.00  0.00    -0.022 A 
HETATM   13  C   UNK     0       8.666  -3.576   5.711  0.00  0.00    -0.004 A 
HETATM   14  C   UNK     0       8.033  -3.420   6.959  0.00  0.00    -0.000 A 
HETATM   15  C   UNK     0       8.657  -3.889   8.129  0.00  0.00     0.000 A 
HETATM   16  C   UNK     0       9.916  -4.511   8.049  0.00  0.00    -0.000 A 
HETATM   17  C   UNK     0      10.548  -4.669   6.800  0.00  0.00    -0.004 A 
ENDBRANCH  11  12
ENDBRANCH  10  11
ENDBRANCH   7  10
ENDBRANCH   4   5
ENDBRANCH   2   4
BRANCH   1  18
HETATM   18  C   UNK     0       7.782  -7.912   2.008  0.00  0.00     0.146 C 
HETATM   19  C   UNK     0       8.934  -8.622   2.057  0.00  0.00     0.162 C 
HETATM   20  C   UNK     0       9.659  -8.741   3.248  0.00  0.00     0.217 C 
HETATM   21  N   UNK     0       9.384  -9.262   0.984  0.00  0.00    -0.143 N 
HETATM   22  C   UNK     0       9.099  -8.263   4.470  0.00  0.00     0.044 A 
HETATM   23  O   UNK     0      10.791  -9.283   3.243  0.00  0.00    -0.285 OA
HETATM   24  C   UNK     0       9.660  -8.581   5.730  0.00  0.00     0.003 A 
HETATM   25  C   UNK     0       7.920  -7.468   4.416  0.00  0.00     0.044 A 
HETATM   26  C   UNK     0       9.061  -8.122   6.916  0.00  0.00     0.000 A 
HETATM   27  C   UNK     0       7.908  -7.322   6.861  0.00  0.00     0.000 A 
HETATM   28  C   UNK     0       7.344  -6.990   5.617  0.00  0.00     0.003 A 
HETATM   29  C   UNK     0       7.335  -7.211   3.141  0.00  0.00     0.215 C 
HETATM   30  O   UNK     0       6.412  -6.367   3.030  0.00  0.00    -0.285 OA
ENDBRANCH   1  18
TORSDOF 6
ENDMDL
MODEL 4
REMARK VINA RESULT:      -6.4      3.286      5.502
REMARK  6 active torsions:
REMARK  status: ('A' for Active; 'I' for Inactive)
REMARK    1  A    between atoms: C_9  and  N_13 
REMARK       I    between atoms: N_13  and  C_14 
REMARK    2  A    between atoms: C_14  and  C_17 
REMARK    3  A    between atoms: C_17  and  N_18 
REMARK    4  A    between atoms: C_20  and  C_23 
REMARK    5  A    between atoms: C_23  and  C_24 
REMARK    6  A    between atoms: C_24  and  C_25 
ROOT
HETATM    1  N   UNK     0       9.845  -5.800   2.676  0.00  0.00    -0.205 NA
HETATM    2  C   UNK     0       9.740  -5.189   3.892  0.00  0.00     0.281 C 
HETATM    3  O   UNK     0      10.718  -5.329   4.660  0.00  0.00    -0.268 OA
ENDROOT
BRANCH   2   4
HETATM    4  C   UNK     0       8.621  -4.331   4.357  0.00  0.00     0.219 C 
BRANCH   4   5
HETATM    5  N   UNK     0       8.111  -4.795   5.611  0.00  0.00    -0.221 N 
HETATM    6  C   UNK     0       8.312  -4.236   6.819  0.00  0.00     0.114 A 
HETATM    7  C   UNK     0       7.604  -5.012   7.724  0.00  0.00     0.101 A 
HETATM    8  N   UNK     0       7.034  -5.993   7.008  0.00  0.00    -0.133 NA
HETATM    9  N   UNK     0       7.350  -5.834   5.760  0.00  0.00    -0.064 NA
BRANCH   7  10
HETATM   10  C   UNK     0       7.470  -4.829   9.184  0.00  0.00     0.054 C 
BRANCH  10  11
HETATM   11  C   UNK     0       6.337  -3.833   9.552  0.00  0.00     0.033 C 
BRANCH  11  12
HETATM   12  C   UNK     0       6.796  -2.806  10.529  0.00  0.00    -0.022 A 
HETATM   13  C   UNK     0       6.152  -2.657  11.782  0.00  0.00    -0.004 A 
HETATM   14  C   UNK     0       6.602  -1.703  12.714  0.00  0.00    -0.000 A 
HETATM   15  C   UNK     0       7.699  -0.879  12.405  0.00  0.00     0.000 A 
HETATM   16  C   UNK     0       8.343  -1.007  11.161  0.00  0.00    -0.000 A 
HETATM   17  C   UNK     0       7.894  -1.964  10.230  0.00  0.00    -0.004 A 
ENDBRANCH  11  12
ENDBRANCH  10  11
ENDBRANCH   7  10
ENDBRANCH   4   5
ENDBRANCH   2   4
BRANCH   1  18
HETATM   18  C   UNK     0       8.948  -5.759   1.682  0.00  0.00     0.146 C 
HETATM   19  C   UNK     0       8.050  -6.765   1.557  0.00  0.00     0.162 C 
HETATM   20  C   UNK     0       7.165  -6.814   0.474  0.00  0.00     0.217 C 
HETATM   21  N   UNK     0       8.014  -7.757   2.439  0.00  0.00    -0.143 N 
HETATM   22  C   UNK     0       7.320  -5.898  -0.610  0.00  0.00     0.044 A 
HETATM   23  O   UNK     0       6.251  -7.673   0.447  0.00  0.00    -0.285 OA
HETATM   24  C   UNK     0       6.632  -6.060  -1.836  0.00  0.00     0.003 A 
HETATM   25  C   UNK     0       8.221  -4.807  -0.458  0.00  0.00     0.044 A 
HETATM   26  C   UNK     0       6.835  -5.158  -2.895  0.00  0.00     0.000 A 
HETATM   27  C   UNK     0       7.711  -4.071  -2.738  0.00  0.00     0.000 A 
HETATM   28  C   UNK     0       8.395  -3.891  -1.523  0.00  0.00     0.003 A 
HETATM   29  C   UNK     0       8.952  -4.697   0.762  0.00  0.00     0.215 C 
HETATM   30  O   UNK     0       9.610  -3.657   1.010  0.00  0.00    -0.285 OA
ENDBRANCH   1  18
TORSDOF 6
ENDMDL
MODEL 5
REMARK VINA RESULT:      -6.4      3.435      5.415
REMARK  6 active torsions:
REMARK  status: ('A' for Active; 'I' for Inactive)
REMARK    1  A    between atoms: C_9  and  N_13 
REMARK       I    between atoms: N_13  and  C_14 
REMARK    2  A    between atoms: C_14  and  C_17 
REMARK    3  A    between atoms: C_17  and  N_18 
REMARK    4  A    between atoms: C_20  and  C_23 
REMARK    5  A    between atoms: C_23  and  C_24 
REMARK    6  A    between atoms: C_24  and  C_25 
ROOT
HETATM    1  N   UNK     0       9.568  -7.852   3.932  0.00  0.00    -0.205 NA
HETATM    2  C   UNK     0       8.726  -8.100   4.978  0.00  0.00     0.281 C 
HETATM    3  O   UNK     0       9.185  -8.829   5.886  0.00  0.00    -0.268 OA
ENDROOT
BRANCH   2   4
HETATM    4  C   UNK     0       7.365  -7.541   5.170  0.00  0.00     0.219 C 
BRANCH   4   5
HETATM    5  N   UNK     0       7.428  -6.232   5.744  0.00  0.00    -0.221 N 
HETATM    6  C   UNK     0       7.715  -5.926   7.023  0.00  0.00     0.114 A 
HETATM    7  C   UNK     0       7.687  -4.542   7.103  0.00  0.00     0.101 A 
HETATM    8  N   UNK     0       7.373  -4.104   5.875  0.00  0.00    -0.133 NA
HETATM    9  N   UNK     0       7.231  -5.128   5.092  0.00  0.00    -0.064 NA
BRANCH   7  10
HETATM   10  C   UNK     0       7.950  -3.684   8.277  0.00  0.00     0.054 C 
BRANCH  10  11
HETATM   11  C   UNK     0       6.775  -3.695   9.292  0.00  0.00     0.033 C 
BRANCH  11  12
HETATM   12  C   UNK     0       7.021  -2.774  10.437  0.00  0.00    -0.022 A 
HETATM   13  C   UNK     0       8.019  -1.773  10.361  0.00  0.00    -0.004 A 
HETATM   14  C   UNK     0       8.235  -0.888  11.435  0.00  0.00    -0.000 A 
HETATM   15  C   UNK     0       7.459  -0.995  12.603  0.00  0.00     0.000 A 
HETATM   16  C   UNK     0       6.470  -1.991  12.698  0.00  0.00    -0.000 A 
HETATM   17  C   UNK     0       6.253  -2.874  11.623  0.00  0.00    -0.004 A 
ENDBRANCH  11  12
ENDBRANCH  10  11
ENDBRANCH   7  10
ENDBRANCH   4   5
ENDBRANCH   2   4
BRANCH   1  18
HETATM   18  C   UNK     0       9.314  -7.075   2.870  0.00  0.00     0.146 C 
HETATM   19  C   UNK     0       9.781  -5.804   2.851  0.00  0.00     0.162 C 
HETATM   20  C   UNK     0       9.450  -4.929   1.810  0.00  0.00     0.217 C 
HETATM   21  N   UNK     0      10.531  -5.341   3.843  0.00  0.00    -0.143 N 
HETATM   22  C   UNK     0       8.469  -5.311   0.847  0.00  0.00     0.044 A 
HETATM   23  O   UNK     0      10.001  -3.804   1.735  0.00  0.00    -0.285 OA
HETATM   24  C   UNK     0       7.909  -4.385  -0.065  0.00  0.00     0.003 A 
HETATM   25  C   UNK     0       8.020  -6.661   0.829  0.00  0.00     0.044 A 
HETATM   26  C   UNK     0       6.919  -4.788  -0.977  0.00  0.00     0.000 A 
HETATM   27  C   UNK     0       6.489  -6.125  -1.007  0.00  0.00     0.000 A 
HETATM   28  C   UNK     0       7.041  -7.059  -0.115  0.00  0.00     0.003 A 
HETATM   29  C   UNK     0       8.550  -7.565   1.797  0.00  0.00     0.215 C 
HETATM   30  O   UNK     0       8.325  -8.796   1.698  0.00  0.00    -0.285 OA
ENDBRANCH   1  18
TORSDOF 6
ENDMDL
MODEL 6
REMARK VINA RESULT:      -6.4      2.528      4.924
REMARK  6 active torsions:
REMARK  status: ('A' for Active; 'I' for Inactive)
REMARK    1  A    between atoms: C_9  and  N_13 
REMARK       I    between atoms: N_13  and  C_14 
REMARK    2  A    between atoms: C_14  and  C_17 
REMARK    3  A    between atoms: C_17  and  N_18 
REMARK    4  A    between atoms: C_20  and  C_23 
REMARK    5  A    between atoms: C_23  and  C_24 
REMARK    6  A    between atoms: C_24  and  C_25 
ROOT
HETATM    1  N   UNK     0       8.272  -8.436   2.189  0.00  0.00    -0.205 NA
HETATM    2  C   UNK     0       8.952  -7.896   1.135  0.00  0.00     0.281 C 
HETATM    3  O   UNK     0       8.578  -8.262  -0.001  0.00  0.00    -0.268 OA
ENDROOT
BRANCH   2   4
HETATM    4  C   UNK     0      10.032  -6.880   1.207  0.00  0.00     0.219 C 
BRANCH   4   5
HETATM    5  N   UNK     0       9.547  -5.661   1.779  0.00  0.00    -0.221 N 
HETATM    6  C   UNK     0      10.087  -4.983   2.808  0.00  0.00     0.114 A 
HETATM    7  C   UNK     0       9.295  -3.860   2.988  0.00  0.00     0.101 A 
HETATM    8  N   UNK     0       8.323  -3.939   2.066  0.00  0.00    -0.133 NA
HETATM    9  N   UNK     0       8.502  -5.014   1.364  0.00  0.00    -0.064 NA
BRANCH   7  10
HETATM   10  C   UNK     0       9.455  -2.769   3.972  0.00  0.00     0.054 C 
BRANCH  10  11
HETATM   11  C   UNK     0      10.455  -3.137   5.102  0.00  0.00     0.033 C 
BRANCH  11  12
HETATM   12  C   UNK     0       9.793  -3.179   6.437  0.00  0.00    -0.022 A 
HETATM   13  C   UNK     0       8.385  -3.281   6.545  0.00  0.00    -0.004 A 
HETATM   14  C   UNK     0       7.763  -3.345   7.807  0.00  0.00    -0.000 A 
HETATM   15  C   UNK     0       8.539  -3.303   8.978  0.00  0.00     0.000 A 
HETATM   16  C   UNK     0       9.938  -3.191   8.887  0.00  0.00    -0.000 A 
HETATM   17  C   UNK     0      10.561  -3.129   7.626  0.00  0.00    -0.004 A 
ENDBRANCH  11  12
ENDBRANCH  10  11
ENDBRANCH   7  10
ENDBRANCH   4   5
ENDBRANCH   2   4
BRANCH   1  18
HETATM   18  C   UNK     0       8.467  -8.167   3.487  0.00  0.00     0.146 C 
HETATM   19  C   UNK     0       7.592  -7.364   4.137  0.00  0.00     0.162 C 
HETATM   20  C   UNK     0       7.817  -6.975   5.463  0.00  0.00     0.217 C 
HETATM   21  N   UNK     0       6.519  -6.887   3.518  0.00  0.00    -0.143 N 
HETATM   22  C   UNK     0       9.063  -7.276   6.089  0.00  0.00     0.044 A 
HETATM   23  O   UNK     0       6.931  -6.347   6.092  0.00  0.00    -0.285 OA
HETATM   24  C   UNK     0       9.446  -6.693   7.321  0.00  0.00     0.003 A 
HETATM   25  C   UNK     0       9.959  -8.166   5.434  0.00  0.00     0.044 A 
HETATM   26  C   UNK     0      10.698  -6.986   7.891  0.00  0.00     0.000 A 
HETATM   27  C   UNK     0      11.573  -7.879   7.253  0.00  0.00     0.000 A 
HETATM   28  C   UNK     0      11.204  -8.473   6.034  0.00  0.00     0.003 A 
HETATM   29  C   UNK     0       9.581  -8.694   4.163  0.00  0.00     0.215 C 
HETATM   30  O   UNK     0      10.249  -9.620   3.642  0.00  0.00    -0.285 OA
ENDBRANCH   1  18
TORSDOF 6
ENDMDL
MODEL 7
REMARK VINA RESULT:      -6.3      3.410      7.749
REMARK  6 active torsions:
REMARK  status: ('A' for Active; 'I' for Inactive)
REMARK    1  A    between atoms: C_9  and  N_13 
REMARK       I    between atoms: N_13  and  C_14 
REMARK    2  A    between atoms: C_14  and  C_17 
REMARK    3  A    between atoms: C_17  and  N_18 
REMARK    4  A    between atoms: C_20  and  C_23 
REMARK    5  A    between atoms: C_23  and  C_24 
REMARK    6  A    between atoms: C_24  and  C_25 
ROOT
HETATM    1  N   UNK     0       9.144  -7.166   2.911  0.00  0.00    -0.205 NA
HETATM    2  C   UNK     0       8.382  -7.641   1.882  0.00  0.00     0.281 C 
HETATM    3  O   UNK     0       8.922  -8.508   1.158  0.00  0.00    -0.268 OA
ENDROOT
BRANCH   2   4
HETATM    4  C   UNK     0       6.973  -7.282   1.587  0.00  0.00     0.219 C 
BRANCH   4   5
HETATM    5  N   UNK     0       6.904  -6.309   0.541  0.00  0.00    -0.221 N 
HETATM    6  C   UNK     0       6.791  -6.551  -0.779  0.00  0.00     0.114 A 
HETATM    7  C   UNK     0       6.733  -5.310  -1.394  0.00  0.00     0.101 A 
HETATM    8  N   UNK     0       6.827  -4.402  -0.411  0.00  0.00    -0.133 NA
HETATM    9  N   UNK     0       6.923  -5.025   0.723  0.00  0.00    -0.064 NA
BRANCH   7  10
HETATM   10  C   UNK     0       6.589  -5.003  -2.832  0.00  0.00     0.054 C 
BRANCH  10  11
HETATM   11  C   UNK     0       6.525  -6.285  -3.706  0.00  0.00     0.033 C 
BRANCH  11  12
HETATM   12  C   UNK     0       6.818  -5.996  -5.138  0.00  0.00    -0.022 A 
HETATM   13  C   UNK     0       6.151  -6.699  -6.171  0.00  0.00    -0.004 A 
HETATM   14  C   UNK     0       6.411  -6.409  -7.524  0.00  0.00    -0.000 A 
HETATM   15  C   UNK     0       7.346  -5.416  -7.864  0.00  0.00     0.000 A 
HETATM   16  C   UNK     0       8.025  -4.716  -6.850  0.00  0.00    -0.000 A 
HETATM   17  C   UNK     0       7.763  -5.005  -5.497  0.00  0.00    -0.004 A 
ENDBRANCH  11  12
ENDBRANCH  10  11
ENDBRANCH   7  10
ENDBRANCH   4   5
ENDBRANCH   2   4
BRANCH   1  18
HETATM   18  C   UNK     0       8.771  -6.269   3.833  0.00  0.00     0.146 C 
HETATM   19  C   UNK     0       9.126  -4.971   3.679  0.00  0.00     0.162 C 
HETATM   20  C   UNK     0       8.846  -4.023   4.670  0.00  0.00     0.217 C 
HETATM   21  N   UNK     0       9.790  -4.572   2.600  0.00  0.00    -0.143 N 
HETATM   22  C   UNK     0       8.341  -4.447   5.935  0.00  0.00     0.044 A 
HETATM   23  O   UNK     0       9.057  -2.805   4.452  0.00  0.00    -0.285 OA
HETATM   24  C   UNK     0       8.283  -3.580   7.052  0.00  0.00     0.003 A 
HETATM   25  C   UNK     0       7.913  -5.797   6.082  0.00  0.00     0.044 A 
HETATM   26  C   UNK     0       7.812  -4.042   8.293  0.00  0.00     0.000 A 
HETATM   27  C   UNK     0       7.373  -5.369   8.432  0.00  0.00     0.000 A 
HETATM   28  C   UNK     0       7.415  -6.240   7.331  0.00  0.00     0.003 A 
HETATM   29  C   UNK     0       8.038  -6.672   4.963  0.00  0.00     0.215 C 
HETATM   30  O   UNK     0       7.504  -7.808   4.989  0.00  0.00    -0.285 OA
ENDBRANCH   1  18
TORSDOF 6
ENDMDL
MODEL 8
REMARK VINA RESULT:      -6.3      3.613      7.171
REMARK  6 active torsions:
REMARK  status: ('A' for Active; 'I' for Inactive)
REMARK    1  A    between atoms: C_9  and  N_13 
REMARK       I    between atoms: N_13  and  C_14 
REMARK    2  A    between atoms: C_14  and  C_17 
REMARK    3  A    between atoms: C_17  and  N_18 
REMARK    4  A    between atoms: C_20  and  C_23 
REMARK    5  A    between atoms: C_23  and  C_24 
REMARK    6  A    between atoms: C_24  and  C_25 
ROOT
HETATM    1  N   UNK     0       7.670  -5.714   8.706  0.00  0.00    -0.205 NA
HETATM    2  C   UNK     0       7.379  -4.445   8.295  0.00  0.00     0.281 C 
HETATM    3  O   UNK     0       6.350  -3.933   8.790  0.00  0.00    -0.268 OA
ENDROOT
BRANCH   2   4
HETATM    4  C   UNK     0       8.192  -3.602   7.382  0.00  0.00     0.219 C 
BRANCH   4   5
HETATM    5  N   UNK     0       8.255  -4.182   6.075  0.00  0.00    -0.221 N 
HETATM    6  C   UNK     0       9.355  -4.342   5.317  0.00  0.00     0.114 A 
HETATM    7  C   UNK     0       8.933  -4.968   4.154  0.00  0.00     0.101 A 
HETATM    8  N   UNK     0       7.608  -5.134   4.281  0.00  0.00    -0.133 NA
HETATM    9  N   UNK     0       7.237  -4.662   5.430  0.00  0.00    -0.064 NA
BRANCH   7  10
HETATM   10  C   UNK     0       9.742  -5.393   2.993  0.00  0.00     0.054 C 
BRANCH  10  11
HETATM   11  C   UNK     0       9.181  -6.674   2.319  0.00  0.00     0.033 C 
BRANCH  11  12
HETATM   12  C   UNK     0       8.310  -6.353   1.153  0.00  0.00    -0.022 A 
HETATM   13  C   UNK     0       7.404  -7.311   0.638  0.00  0.00    -0.004 A 
HETATM   14  C   UNK     0       6.565  -6.999  -0.448  0.00  0.00    -0.000 A 
HETATM   15  C   UNK     0       6.624  -5.724  -1.040  0.00  0.00     0.000 A 
HETATM   16  C   UNK     0       7.526  -4.764  -0.547  0.00  0.00    -0.000 A 
HETATM   17  C   UNK     0       8.364  -5.077   0.541  0.00  0.00    -0.004 A 
ENDBRANCH  11  12
ENDBRANCH  10  11
ENDBRANCH   7  10
ENDBRANCH   4   5
ENDBRANCH   2   4
BRANCH   1  18
HETATM   18  C   UNK     0       8.732  -6.446   8.345  0.00  0.00     0.146 C 
HETATM   19  C   UNK     0       9.897  -6.305   9.021  0.00  0.00     0.162 C 
HETATM   20  C   UNK     0      11.056  -6.972   8.611  0.00  0.00     0.217 C 
HETATM   21  N   UNK     0       9.980  -5.493  10.069  0.00  0.00    -0.143 N 
HETATM   22  C   UNK     0      11.070  -7.671   7.367  0.00  0.00     0.044 A 
HETATM   23  O   UNK     0      12.087  -6.940   9.326  0.00  0.00    -0.285 OA
HETATM   24  C   UNK     0      12.269  -8.141   6.780  0.00  0.00     0.003 A 
HETATM   25  C   UNK     0       9.838  -7.871   6.683  0.00  0.00     0.044 A 
HETATM   26  C   UNK     0      12.249  -8.794   5.536  0.00  0.00     0.000 A 
HETATM   27  C   UNK     0      11.030  -9.007   4.870  0.00  0.00     0.000 A 
HETATM   28  C   UNK     0       9.830  -8.555   5.443  0.00  0.00     0.003 A 
HETATM   29  C   UNK     0       8.648  -7.335   7.259  0.00  0.00     0.215 C 
HETATM   30  O   UNK     0       7.526  -7.646   6.791  0.00  0.00    -0.285 OA
ENDBRANCH   1  18
TORSDOF 6
ENDMDL
MODEL 9
REMARK VINA RESULT:      -6.3      1.830      2.728
REMARK  6 active torsions:
REMARK  status: ('A' for Active; 'I' for Inactive)
REMARK    1  A    between atoms: C_9  and  N_13 
REMARK       I    between atoms: N_13  and  C_14 
REMARK    2  A    between atoms: C_14  and  C_17 
REMARK    3  A    between atoms: C_17  and  N_18 
REMARK    4  A    between atoms: C_20  and  C_23 
REMARK    5  A    between atoms: C_23  and  C_24 
REMARK    6  A    between atoms: C_24  and  C_25 
ROOT
HETATM    1  N   UNK     0       9.646  -4.483   0.384  0.00  0.00    -0.205 NA
HETATM    2  C   UNK     0       9.217  -5.743   0.080  0.00  0.00     0.281 C 
HETATM    3  O   UNK     0       8.778  -5.905  -1.081  0.00  0.00    -0.268 OA
ENDROOT
BRANCH   2   4
HETATM    4  C   UNK     0       9.283  -6.937   0.959  0.00  0.00     0.219 C 
BRANCH   4   5
HETATM    5  N   UNK     0       8.331  -6.840   2.023  0.00  0.00    -0.221 N 
HETATM    6  C   UNK     0       8.536  -7.139   3.319  0.00  0.00     0.114 A 
HETATM    7  C   UNK     0       7.345  -6.863   3.971  0.00  0.00     0.101 A 
HETATM    8  N   UNK     0       6.496  -6.428   3.028  0.00  0.00    -0.133 NA
HETATM    9  N   UNK     0       7.111  -6.422   1.886  0.00  0.00    -0.064 NA
BRANCH   7  10
HETATM   10  C   UNK     0       7.031  -6.997   5.409  0.00  0.00     0.054 C 
BRANCH  10  11
HETATM   11  C   UNK     0       8.186  -7.663   6.205  0.00  0.00     0.033 C 
BRANCH  11  12
HETATM   12  C   UNK     0       8.601  -6.839   7.376  0.00  0.00    -0.022 A 
HETATM   13  C   UNK     0       7.654  -6.068   8.092  0.00  0.00    -0.004 A 
HETATM   14  C   UNK     0       8.042  -5.309   9.212  0.00  0.00    -0.000 A 
HETATM   15  C   UNK     0       9.385  -5.305   9.629  0.00  0.00     0.000 A 
HETATM   16  C   UNK     0      10.341  -6.057   8.921  0.00  0.00    -0.000 A 
HETATM   17  C   UNK     0       9.951  -6.818   7.802  0.00  0.00    -0.004 A 
ENDBRANCH  11  12
ENDBRANCH  10  11
ENDBRANCH   7  10
ENDBRANCH   4   5
ENDBRANCH   2   4
BRANCH   1  18
HETATM   18  C   UNK     0      10.186  -4.083   1.543  0.00  0.00     0.146 C 
HETATM   19  C   UNK     0      11.532  -4.110   1.692  0.00  0.00     0.162 C 
HETATM   20  C   UNK     0      12.129  -3.799   2.919  0.00  0.00     0.217 C 
HETATM   21  N   UNK     0      12.319  -4.475   0.687  0.00  0.00    -0.143 N 
HETATM   22  C   UNK     0      11.317  -3.624   4.079  0.00  0.00     0.044 A 
HETATM   23  O   UNK     0      13.377  -3.695   3.002  0.00  0.00    -0.285 OA
HETATM   24  C   UNK     0      11.868  -3.566   5.381  0.00  0.00     0.003 A 
HETATM   25  C   UNK     0       9.906  -3.536   3.917  0.00  0.00     0.044 A 
HETATM   26  C   UNK     0      11.034  -3.427   6.505  0.00  0.00     0.000 A 
HETATM   27  C   UNK     0       9.643  -3.322   6.343  0.00  0.00     0.000 A 
HETATM   28  C   UNK     0       9.081  -3.369   5.056  0.00  0.00     0.003 A 
HETATM   29  C   UNK     0       9.366  -3.660   2.603  0.00  0.00     0.215 C 
HETATM   30  O   UNK     0       8.155  -3.404   2.393  0.00  0.00    -0.285 OA
ENDBRANCH   1  18
TORSDOF 6
ENDMDL
