MODEL 1
REMARK VINA RESULT:      -7.7      0.000      0.000
REMARK  4 active torsions:
REMARK  status: ('A' for Active; 'I' for Inactive)
REMARK    1  A    between atoms: C_9  and  N_13 
REMARK       I    between atoms: N_13  and  C_14 
REMARK    2  A    between atoms: C_14  and  C_17 
REMARK    3  A    between atoms: C_17  and  N_18 
REMARK    4  A    between atoms: C_20  and  C_23 
ROOT
HETATM    1  C   UNK     0       7.587  -3.860  -1.131  0.00  0.00     0.003 A 
HETATM    2  C   UNK     0       7.222  -3.952  -2.484  0.00  0.00     0.000 A 
HETATM    3  C   UNK     0       6.805  -5.182  -3.016  0.00  0.00     0.000 A 
HETATM    4  C   UNK     0       6.752  -6.322  -2.195  0.00  0.00     0.003 A 
HETATM    5  C   UNK     0       7.129  -6.251  -0.832  0.00  0.00     0.044 A 
HETATM    6  C   UNK     0       7.547  -5.001  -0.294  0.00  0.00     0.044 A 
HETATM    7  C   UNK     0       7.112  -7.394   0.029  0.00  0.00     0.217 C 
HETATM    8  C   UNK     0       7.626  -7.307   1.332  0.00  0.00     0.162 C 
HETATM    9  C   UNK     0       8.056  -6.125   1.832  0.00  0.00     0.146 C 
HETATM   10  C   UNK     0       7.919  -4.947   1.080  0.00  0.00     0.215 C 
HETATM   11  O   UNK     0       8.083  -3.835   1.639  0.00  0.00    -0.285 OA
HETATM   12  O   UNK     0       6.640  -8.481  -0.385  0.00  0.00    -0.285 OA
HETATM   13  N   UNK     0       7.703  -8.413   2.065  0.00  0.00    -0.143 N 
ENDROOT
BRANCH   9  14
HETATM   14  N   UNK     0       8.602  -6.077   3.057  0.00  0.00    -0.205 NA
HETATM   15  C   UNK     0       7.911  -6.004   4.236  0.00  0.00     0.281 C 
HETATM   16  O   UNK     0       6.662  -5.877   4.258  0.00  0.00    -0.268 OA
BRANCH  15  17
HETATM   17  C   UNK     0       8.645  -6.079   5.515  0.00  0.00     0.219 C 
BRANCH  17  18
HETATM   18  N   UNK     0       8.168  -5.102   6.440  0.00  0.00    -0.221 N 
HETATM   19  C   UNK     0       7.929  -5.288   7.747  0.00  0.00     0.114 A 
HETATM   20  C   UNK     0       7.453  -4.079   8.224  0.00  0.00     0.101 A 
HETATM   21  N   UNK     0       7.447  -3.233   7.184  0.00  0.00    -0.133 NA
HETATM   22  N   UNK     0       7.882  -3.871   6.140  0.00  0.00    -0.064 NA
BRANCH  20  23
HETATM   23  C   UNK     0       7.064  -3.754   9.607  0.00  0.00     0.044 A 
HETATM   24  C   UNK     0       8.181  -3.506  10.638  0.00  0.00     0.006 A 
HETATM   25  C   UNK     0       7.352  -2.330  10.112  0.00  0.00     0.006 A 
ENDBRANCH  20  23
ENDBRANCH  17  18
ENDBRANCH  15  17
ENDBRANCH   9  14
TORSDOF 4
ENDMDL
MODEL 2
REMARK VINA RESULT:      -7.5      1.624      2.804
REMARK  4 active torsions:
REMARK  status: ('A' for Active; 'I' for Inactive)
REMARK    1  A    between atoms: C_9  and  N_13 
REMARK       I    between atoms: N_13  and  C_14 
REMARK    2  A    between atoms: C_14  and  C_17 
REMARK    3  A    between atoms: C_17  and  N_18 
REMARK    4  A    between atoms: C_20  and  C_23 
ROOT
HETATM    1  C   UNK     0       6.566  -6.563  -2.764  0.00  0.00     0.003 A 
HETATM    2  C   UNK     0       6.894  -6.034  -4.023  0.00  0.00     0.000 A 
HETATM    3  C   UNK     0       7.824  -4.986  -4.122  0.00  0.00     0.000 A 
HETATM    4  C   UNK     0       8.426  -4.467  -2.963  0.00  0.00     0.003 A 
HETATM    5  C   UNK     0       8.097  -4.979  -1.684  0.00  0.00     0.044 A 
HETATM    6  C   UNK     0       7.157  -6.044  -1.587  0.00  0.00     0.044 A 
HETATM    7  C   UNK     0       8.669  -4.461  -0.479  0.00  0.00     0.217 C 
HETATM    8  C   UNK     0       8.209  -4.902   0.771  0.00  0.00     0.162 C 
HETATM    9  C   UNK     0       7.290  -5.892   0.863  0.00  0.00     0.146 C 
HETATM   10  C   UNK     0       6.840  -6.550  -0.293  0.00  0.00     0.215 C 
HETATM   11  O   UNK     0       6.190  -7.618  -0.182  0.00  0.00    -0.285 OA
HETATM   12  O   UNK     0       9.583  -3.602  -0.542  0.00  0.00    -0.285 OA
HETATM   13  N   UNK     0       8.678  -4.318   1.868  0.00  0.00    -0.143 N 
ENDROOT
BRANCH   9  14
HETATM   14  N   UNK     0       6.818  -6.255   2.066  0.00  0.00    -0.205 NA
HETATM   15  C   UNK     0       7.452  -7.081   2.955  0.00  0.00     0.281 C 
HETATM   16  O   UNK     0       8.525  -7.662   2.662  0.00  0.00    -0.268 OA
BRANCH  15  17
HETATM   17  C   UNK     0       6.864  -7.296   4.293  0.00  0.00     0.219 C 
BRANCH  17  18
HETATM   18  N   UNK     0       7.319  -6.308   5.219  0.00  0.00    -0.221 N 
HETATM   19  C   UNK     0       7.911  -6.534   6.400  0.00  0.00     0.114 A 
HETATM   20  C   UNK     0       8.141  -5.286   6.957  0.00  0.00     0.101 A 
HETATM   21  N   UNK     0       7.688  -4.386   6.073  0.00  0.00    -0.133 NA
HETATM   22  N   UNK     0       7.209  -5.025   5.050  0.00  0.00    -0.064 NA
BRANCH  20  23
HETATM   23  C   UNK     0       8.792  -4.988   8.243  0.00  0.00     0.044 A 
HETATM   24  C   UNK     0       7.949  -5.092   9.528  0.00  0.00     0.006 A 
HETATM   25  C   UNK     0       9.007  -6.156   9.221  0.00  0.00     0.006 A 
ENDBRANCH  20  23
ENDBRANCH  17  18
ENDBRANCH  15  17
ENDBRANCH   9  14
TORSDOF 4
ENDMDL
MODEL 3
REMARK VINA RESULT:      -7.5      2.541      3.278
REMARK  4 active torsions:
REMARK  status: ('A' for Active; 'I' for Inactive)
REMARK    1  A    between atoms: C_9  and  N_13 
REMARK       I    between atoms: N_13  and  C_14 
REMARK    2  A    between atoms: C_14  and  C_17 
REMARK    3  A    between atoms: C_17  and  N_18 
REMARK    4  A    between atoms: C_20  and  C_23 
ROOT
HETATM    1  C   UNK     0       7.309  -4.752  -3.784  0.00  0.00     0.003 A 
HETATM    2  C   UNK     0       7.314  -5.424  -5.017  0.00  0.00     0.000 A 
HETATM    3  C   UNK     0       7.145  -6.817  -5.057  0.00  0.00     0.000 A 
HETATM    4  C   UNK     0       6.970  -7.540  -3.864  0.00  0.00     0.003 A 
HETATM    5  C   UNK     0       6.975  -6.880  -2.611  0.00  0.00     0.044 A 
HETATM    6  C   UNK     0       7.142  -5.467  -2.574  0.00  0.00     0.044 A 
HETATM    7  C   UNK     0       6.825  -7.583  -1.373  0.00  0.00     0.217 C 
HETATM    8  C   UNK     0       6.977  -6.909  -0.152  0.00  0.00     0.162 C 
HETATM    9  C   UNK     0       7.170  -5.569  -0.118  0.00  0.00     0.146 C 
HETATM   10  C   UNK     0       7.141  -4.820  -1.304  0.00  0.00     0.215 C 
HETATM   11  O   UNK     0       7.069  -3.568  -1.243  0.00  0.00    -0.285 OA
HETATM   12  O   UNK     0       6.562  -8.811  -1.381  0.00  0.00    -0.285 OA
HETATM   13  N   UNK     0       6.947  -7.611   0.975  0.00  0.00    -0.143 N 
ENDROOT
BRANCH   9  14
HETATM   14  N   UNK     0       7.376  -4.954   1.058  0.00  0.00    -0.205 NA
HETATM   15  C   UNK     0       8.587  -4.802   1.676  0.00  0.00     0.281 C 
HETATM   16  O   UNK     0       9.630  -5.329   1.218  0.00  0.00    -0.268 OA
BRANCH  15  17
HETATM   17  C   UNK     0       8.676  -3.996   2.911  0.00  0.00     0.219 C 
BRANCH  17  18
HETATM   18  N   UNK     0       8.470  -4.806   4.069  0.00  0.00    -0.221 N 
HETATM   19  C   UNK     0       9.415  -5.435   4.782  0.00  0.00     0.114 A 
HETATM   20  C   UNK     0       8.746  -6.117   5.785  0.00  0.00     0.101 A 
HETATM   21  N   UNK     0       7.443  -5.847   5.626  0.00  0.00    -0.133 NA
HETATM   22  N   UNK     0       7.313  -5.062   4.600  0.00  0.00    -0.064 NA
BRANCH  20  23
HETATM   23  C   UNK     0       9.336  -6.945   6.850  0.00  0.00     0.044 A 
HETATM   24  C   UNK     0       9.579  -8.438   6.562  0.00  0.00     0.006 A 
HETATM   25  C   UNK     0      10.765  -7.471   6.634  0.00  0.00     0.006 A 
ENDBRANCH  20  23
ENDBRANCH  17  18
ENDBRANCH  15  17
ENDBRANCH   9  14
TORSDOF 4
ENDMDL
MODEL 4
REMARK VINA RESULT:      -7.3      2.307      8.460
REMARK  4 active torsions:
REMARK  status: ('A' for Active; 'I' for Inactive)
REMARK    1  A    between atoms: C_9  and  N_13 
REMARK       I    between atoms: N_13  and  C_14 
REMARK    2  A    between atoms: C_14  and  C_17 
REMARK    3  A    between atoms: C_17  and  N_18 
REMARK    4  A    between atoms: C_20  and  C_23 
ROOT
HETATM    1  C   UNK     0       8.052  -6.400   8.258  0.00  0.00     0.003 A 
HETATM    2  C   UNK     0       8.757  -5.975   9.395  0.00  0.00     0.000 A 
HETATM    3  C   UNK     0       9.588  -4.845   9.323  0.00  0.00     0.000 A 
HETATM    4  C   UNK     0       9.713  -4.140   8.114  0.00  0.00     0.003 A 
HETATM    5  C   UNK     0       9.020  -4.562   6.954  0.00  0.00     0.044 A 
HETATM    6  C   UNK     0       8.175  -5.705   7.030  0.00  0.00     0.044 A 
HETATM    7  C   UNK     0       9.141  -3.885   5.699  0.00  0.00     0.217 C 
HETATM    8  C   UNK     0       8.548  -4.420   4.545  0.00  0.00     0.162 C 
HETATM    9  C   UNK     0       7.772  -5.527   4.612  0.00  0.00     0.146 C 
HETATM   10  C   UNK     0       7.482  -6.113   5.854  0.00  0.00     0.215 C 
HETATM   11  O   UNK     0       6.572  -6.975   5.934  0.00  0.00    -0.285 OA
HETATM   12  O   UNK     0       9.786  -2.810   5.629  0.00  0.00    -0.285 OA
HETATM   13  N   UNK     0       8.776  -3.831   3.376  0.00  0.00    -0.143 N 
ENDROOT
BRANCH   9  14
HETATM   14  N   UNK     0       7.267  -6.058   3.487  0.00  0.00    -0.205 NA
HETATM   15  C   UNK     0       7.907  -6.949   2.669  0.00  0.00     0.281 C 
HETATM   16  O   UNK     0       9.101  -7.281   2.865  0.00  0.00    -0.268 OA
BRANCH  15  17
HETATM   17  C   UNK     0       7.178  -7.539   1.528  0.00  0.00     0.219 C 
BRANCH  17  18
HETATM   18  N   UNK     0       6.911  -6.558   0.525  0.00  0.00    -0.221 N 
HETATM   19  C   UNK     0       6.706  -6.786  -0.781  0.00  0.00     0.114 A 
HETATM   20  C   UNK     0       6.522  -5.542  -1.361  0.00  0.00     0.101 A 
HETATM   21  N   UNK     0       6.613  -4.642  -0.372  0.00  0.00    -0.133 NA
HETATM   22  N   UNK     0       6.841  -5.279   0.736  0.00  0.00    -0.064 NA
BRANCH  20  23
HETATM   23  C   UNK     0       6.239  -5.250  -2.777  0.00  0.00     0.044 A 
HETATM   24  C   UNK     0       7.425  -4.933  -3.707  0.00  0.00     0.006 A 
HETATM   25  C   UNK     0       6.700  -6.278  -3.823  0.00  0.00     0.006 A 
ENDBRANCH  20  23
ENDBRANCH  17  18
ENDBRANCH  15  17
ENDBRANCH   9  14
TORSDOF 4
ENDMDL
MODEL 5
REMARK VINA RESULT:      -7.2      2.453      8.275
REMARK  4 active torsions:
REMARK  status: ('A' for Active; 'I' for Inactive)
REMARK    1  A    between atoms: C_9  and  N_13 
REMARK       I    between atoms: N_13  and  C_14 
REMARK    2  A    between atoms: C_14  and  C_17 
REMARK    3  A    between atoms: C_17  and  N_18 
REMARK    4  A    between atoms: C_20  and  C_23 
ROOT
HETATM    1  C   UNK     0       8.784  -4.334   7.439  0.00  0.00     0.003 A 
HETATM    2  C   UNK     0       8.498  -4.869   8.707  0.00  0.00     0.000 A 
HETATM    3  C   UNK     0       7.806  -6.085   8.815  0.00  0.00     0.000 A 
HETATM    4  C   UNK     0       7.399  -6.769   7.657  0.00  0.00     0.003 A 
HETATM    5  C   UNK     0       7.665  -6.239   6.371  0.00  0.00     0.044 A 
HETATM    6  C   UNK     0       8.371  -5.007   6.264  0.00  0.00     0.044 A 
HETATM    7  C   UNK     0       7.245  -6.892   5.169  0.00  0.00     0.217 C 
HETATM    8  C   UNK     0       7.407  -6.262   3.926  0.00  0.00     0.162 C 
HETATM    9  C   UNK     0       8.049  -5.074   3.828  0.00  0.00     0.146 C 
HETATM   10  C   UNK     0       8.635  -4.490   4.962  0.00  0.00     0.215 C 
HETATM   11  O   UNK     0       9.433  -3.531   4.822  0.00  0.00    -0.285 OA
HETATM   12  O   UNK     0       6.723  -8.033   5.229  0.00  0.00    -0.285 OA
HETATM   13  N   UNK     0       6.902  -6.843   2.843  0.00  0.00    -0.143 N 
ENDROOT
BRANCH   9  14
HETATM   14  N   UNK     0       8.137  -4.459   2.638  0.00  0.00    -0.205 NA
HETATM   15  C   UNK     0       9.039  -4.756   1.652  0.00  0.00     0.281 C 
HETATM   16  O   UNK     0       9.952  -5.599   1.829  0.00  0.00    -0.268 OA
BRANCH  15  17
HETATM   17  C   UNK     0       8.938  -4.073   0.346  0.00  0.00     0.219 C 
BRANCH  17  18
HETATM   18  N   UNK     0       7.985  -4.718  -0.500  0.00  0.00    -0.221 N 
HETATM   19  C   UNK     0       8.254  -5.539  -1.525  0.00  0.00     0.114 A 
HETATM   20  C   UNK     0       7.028  -5.890  -2.065  0.00  0.00     0.101 A 
HETATM   21  N   UNK     0       6.095  -5.274  -1.325  0.00  0.00    -0.133 NA
HETATM   22  N   UNK     0       6.696  -4.589  -0.401  0.00  0.00    -0.064 NA
BRANCH  20  23
HETATM   23  C   UNK     0       6.777  -6.795  -3.199  0.00  0.00     0.044 A 
HETATM   24  C   UNK     0       6.452  -6.172  -4.570  0.00  0.00     0.006 A 
HETATM   25  C   UNK     0       7.818  -6.824  -4.331  0.00  0.00     0.006 A 
ENDBRANCH  20  23
ENDBRANCH  17  18
ENDBRANCH  15  17
ENDBRANCH   9  14
TORSDOF 4
ENDMDL
MODEL 6
REMARK VINA RESULT:      -7.2      2.045      3.599
REMARK  4 active torsions:
REMARK  status: ('A' for Active; 'I' for Inactive)
REMARK    1  A    between atoms: C_9  and  N_13 
REMARK       I    between atoms: N_13  and  C_14 
REMARK    2  A    between atoms: C_14  and  C_17 
REMARK    3  A    between atoms: C_17  and  N_18 
REMARK    4  A    between atoms: C_20  and  C_23 
ROOT
HETATM    1  C   UNK     0       7.230  -8.513  -3.874  0.00  0.00     0.003 A 
HETATM    2  C   UNK     0       7.024  -8.070  -5.191  0.00  0.00     0.000 A 
HETATM    3  C   UNK     0       6.737  -6.719  -5.440  0.00  0.00     0.000 A 
HETATM    4  C   UNK     0       6.657  -5.808  -4.372  0.00  0.00     0.003 A 
HETATM    5  C   UNK     0       6.848  -6.238  -3.037  0.00  0.00     0.044 A 
HETATM    6  C   UNK     0       7.143  -7.609  -2.787  0.00  0.00     0.044 A 
HETATM    7  C   UNK     0       6.749  -5.347  -1.922  0.00  0.00     0.217 C 
HETATM    8  C   UNK     0       6.807  -5.844  -0.610  0.00  0.00     0.162 C 
HETATM    9  C   UNK     0       7.054  -7.154  -0.373  0.00  0.00     0.146 C 
HETATM   10  C   UNK     0       7.337  -8.024  -1.438  0.00  0.00     0.215 C 
HETATM   11  O   UNK     0       7.807  -9.163  -1.197  0.00  0.00    -0.285 OA
HETATM   12  O   UNK     0       6.604  -4.116  -2.118  0.00  0.00    -0.285 OA
HETATM   13  N   UNK     0       6.596  -5.008   0.401  0.00  0.00    -0.143 N 
ENDROOT
BRANCH   9  14
HETATM   14  N   UNK     0       7.042  -7.618   0.886  0.00  0.00    -0.205 NA
HETATM   15  C   UNK     0       8.106  -7.613   1.747  0.00  0.00     0.281 C 
HETATM   16  O   UNK     0       9.247  -7.242   1.380  0.00  0.00    -0.268 OA
BRANCH  15  17
HETATM   17  C   UNK     0       7.911  -8.049   3.145  0.00  0.00     0.219 C 
BRANCH  17  18
HETATM   18  N   UNK     0       7.831  -6.929   4.027  0.00  0.00    -0.221 N 
HETATM   19  C   UNK     0       8.440  -6.804   5.216  0.00  0.00     0.114 A 
HETATM   20  C   UNK     0       8.047  -5.575   5.719  0.00  0.00     0.101 A 
HETATM   21  N   UNK     0       7.239  -5.027   4.800  0.00  0.00    -0.133 NA
HETATM   22  N   UNK     0       7.135  -5.855   3.805  0.00  0.00    -0.064 NA
BRANCH  20  23
HETATM   23  C   UNK     0       8.459  -4.956   6.990  0.00  0.00     0.044 A 
HETATM   24  C   UNK     0       9.488  -3.812   6.944  0.00  0.00     0.006 A 
HETATM   25  C   UNK     0       8.019  -3.506   7.252  0.00  0.00     0.006 A 
ENDBRANCH  20  23
ENDBRANCH  17  18
ENDBRANCH  15  17
ENDBRANCH   9  14
TORSDOF 4
ENDMDL
MODEL 7
REMARK VINA RESULT:      -7.2      1.508      2.625
REMARK  4 active torsions:
REMARK  status: ('A' for Active; 'I' for Inactive)
REMARK    1  A    between atoms: C_9  and  N_13 
REMARK       I    between atoms: N_13  and  C_14 
REMARK    2  A    between atoms: C_14  and  C_17 
REMARK    3  A    between atoms: C_17  and  N_18 
REMARK    4  A    between atoms: C_20  and  C_23 
ROOT
HETATM    1  C   UNK     0       6.661  -6.345  -0.143  0.00  0.00     0.003 A 
HETATM    2  C   UNK     0       6.526  -5.740  -1.403  0.00  0.00     0.000 A 
HETATM    3  C   UNK     0       7.395  -4.705  -1.781  0.00  0.00     0.000 A 
HETATM    4  C   UNK     0       8.401  -4.274  -0.900  0.00  0.00     0.003 A 
HETATM    5  C   UNK     0       8.545  -4.863   0.380  0.00  0.00     0.044 A 
HETATM    6  C   UNK     0       7.664  -5.916   0.759  0.00  0.00     0.044 A 
HETATM    7  C   UNK     0       9.540  -4.435   1.315  0.00  0.00     0.217 C 
HETATM    8  C   UNK     0       9.554  -4.950   2.620  0.00  0.00     0.162 C 
HETATM    9  C   UNK     0       8.694  -5.927   2.991  0.00  0.00     0.146 C 
HETATM   10  C   UNK     0       7.825  -6.500   2.049  0.00  0.00     0.215 C 
HETATM   11  O   UNK     0       7.218  -7.562   2.333  0.00  0.00    -0.285 OA
HETATM   12  O   UNK     0      10.401  -3.591   0.967  0.00  0.00    -0.285 OA
HETATM   13  N   UNK     0      10.416  -4.448   3.498  0.00  0.00    -0.143 N 
ENDROOT
BRANCH   9  14
HETATM   14  N   UNK     0       8.683  -6.360   4.261  0.00  0.00    -0.205 NA
HETATM   15  C   UNK     0       7.851  -5.909   5.250  0.00  0.00     0.281 C 
HETATM   16  O   UNK     0       7.064  -4.949   5.060  0.00  0.00    -0.268 OA
BRANCH  15  17
HETATM   17  C   UNK     0       7.872  -6.565   6.573  0.00  0.00     0.219 C 
BRANCH  17  18
HETATM   18  N   UNK     0       8.029  -5.607   7.620  0.00  0.00    -0.221 N 
HETATM   19  C   UNK     0       7.209  -5.424   8.665  0.00  0.00     0.114 A 
HETATM   20  C   UNK     0       7.743  -4.372   9.391  0.00  0.00     0.101 A 
HETATM   21  N   UNK     0       8.859  -3.995   8.750  0.00  0.00    -0.133 NA
HETATM   22  N   UNK     0       9.002  -4.751   7.704  0.00  0.00    -0.064 NA
BRANCH  20  23
HETATM   23  C   UNK     0       7.226  -3.797  10.644  0.00  0.00     0.044 A 
HETATM   24  C   UNK     0       6.813  -2.314  10.649  0.00  0.00     0.006 A 
HETATM   25  C   UNK     0       5.739  -3.406  10.688  0.00  0.00     0.006 A 
ENDBRANCH  20  23
ENDBRANCH  17  18
ENDBRANCH  15  17
ENDBRANCH   9  14
TORSDOF 4
ENDMDL
MODEL 8
REMARK VINA RESULT:      -7.1      2.475      8.184
REMARK  4 active torsions:
REMARK  status: ('A' for Active; 'I' for Inactive)
REMARK    1  A    between atoms: C_9  and  N_13 
REMARK       I    between atoms: N_13  and  C_14 
REMARK    2  A    between atoms: C_14  and  C_17 
REMARK    3  A    between atoms: C_17  and  N_18 
REMARK    4  A    between atoms: C_20  and  C_23 
ROOT
HETATM    1  C   UNK     0       9.506  -3.227   5.448  0.00  0.00     0.003 A 
HETATM    2  C   UNK     0      10.025  -2.892   6.710  0.00  0.00     0.000 A 
HETATM    3  C   UNK     0       9.954  -3.815   7.765  0.00  0.00     0.000 A 
HETATM    4  C   UNK     0       9.365  -5.075   7.560  0.00  0.00     0.003 A 
HETATM    5  C   UNK     0       8.824  -5.425   6.299  0.00  0.00     0.044 A 
HETATM    6  C   UNK     0       8.901  -4.489   5.229  0.00  0.00     0.044 A 
HETATM    7  C   UNK     0       8.194  -6.687   6.058  0.00  0.00     0.217 C 
HETATM    8  C   UNK     0       7.549  -6.935   4.836  0.00  0.00     0.162 C 
HETATM    9  C   UNK     0       7.593  -6.030   3.831  0.00  0.00     0.146 C 
HETATM   10  C   UNK     0       8.356  -4.859   3.966  0.00  0.00     0.215 C 
HETATM   11  O   UNK     0       8.594  -4.156   2.954  0.00  0.00    -0.285 OA
HETATM   12  O   UNK     0       8.213  -7.574   6.946  0.00  0.00    -0.285 OA
HETATM   13  N   UNK     0       6.875  -8.070   4.687  0.00  0.00    -0.143 N 
ENDROOT
BRANCH   9  14
HETATM   14  N   UNK     0       6.917  -6.261   2.695  0.00  0.00    -0.205 NA
HETATM   15  C   UNK     0       7.422  -6.863   1.574  0.00  0.00     0.281 C 
HETATM   16  O   UNK     0       8.635  -7.176   1.487  0.00  0.00    -0.268 OA
BRANCH  15  17
HETATM   17  C   UNK     0       6.524  -7.158   0.440  0.00  0.00     0.219 C 
BRANCH  17  18
HETATM   18  N   UNK     0       6.666  -6.185  -0.596  0.00  0.00    -0.221 N 
HETATM   19  C   UNK     0       7.084  -6.409  -1.850  0.00  0.00     0.114 A 
HETATM   20  C   UNK     0       7.092  -5.174  -2.476  0.00  0.00     0.101 A 
HETATM   21  N   UNK     0       6.666  -4.284  -1.569  0.00  0.00    -0.133 NA
HETATM   22  N   UNK     0       6.418  -4.917  -0.463  0.00  0.00    -0.064 NA
BRANCH  20  23
HETATM   23  C   UNK     0       7.453  -4.883  -3.874  0.00  0.00     0.044 A 
HETATM   24  C   UNK     0       8.945  -4.875  -4.255  0.00  0.00     0.006 A 
HETATM   25  C   UNK     0       8.046  -6.029  -4.710  0.00  0.00     0.006 A 
ENDBRANCH  20  23
ENDBRANCH  17  18
ENDBRANCH  15  17
ENDBRANCH   9  14
TORSDOF 4
ENDMDL
MODEL 9
REMARK VINA RESULT:      -7.1      2.136      3.662
REMARK  4 active torsions:
REMARK  status: ('A' for Active; 'I' for Inactive)
REMARK    1  A    between atoms: C_9  and  N_13 
REMARK       I    between atoms: N_13  and  C_14 
REMARK    2  A    between atoms: C_14  and  C_17 
REMARK    3  A    between atoms: C_17  and  N_18 
REMARK    4  A    between atoms: C_20  and  C_23 
ROOT
HETATM    1  C   UNK     0       7.696  -6.495   1.098  0.00  0.00     0.003 A 
HETATM    2  C   UNK     0       8.069  -6.043  -0.178  0.00  0.00     0.000 A 
HETATM    3  C   UNK     0       8.816  -4.863  -0.314  0.00  0.00     0.000 A 
HETATM    4  C   UNK     0       9.191  -4.132   0.827  0.00  0.00     0.003 A 
HETATM    5  C   UNK     0       8.813  -4.565   2.121  0.00  0.00     0.044 A 
HETATM    6  C   UNK     0       8.058  -5.765   2.256  0.00  0.00     0.044 A 
HETATM    7  C   UNK     0       9.153  -3.836   3.304  0.00  0.00     0.217 C 
HETATM    8  C   UNK     0       8.638  -4.226   4.550  0.00  0.00     0.162 C 
HETATM    9  C   UNK     0       7.892  -5.349   4.673  0.00  0.00     0.146 C 
HETATM   10  C   UNK     0       7.689  -6.187   3.566  0.00  0.00     0.215 C 
HETATM   11  O   UNK     0       7.217  -7.338   3.740  0.00  0.00    -0.285 OA
HETATM   12  O   UNK     0       9.912  -2.839   3.226  0.00  0.00    -0.285 OA
HETATM   13  N   UNK     0       8.878  -3.461   5.610  0.00  0.00    -0.143 N 
ENDROOT
BRANCH   9  14
HETATM   14  N   UNK     0       7.356  -5.668   5.862  0.00  0.00    -0.205 NA
HETATM   15  C   UNK     0       7.988  -6.357   6.861  0.00  0.00     0.281 C 
HETATM   16  O   UNK     0       9.134  -6.845   6.700  0.00  0.00    -0.268 OA
BRANCH  15  17
HETATM   17  C   UNK     0       7.313  -6.531   8.163  0.00  0.00     0.219 C 
BRANCH  17  18
HETATM   18  N   UNK     0       7.290  -5.308   8.899  0.00  0.00    -0.221 N 
HETATM   19  C   UNK     0       8.201  -4.898   9.795  0.00  0.00     0.114 A 
HETATM   20  C   UNK     0       7.747  -3.679  10.269  0.00  0.00     0.101 A 
HETATM   21  N   UNK     0       6.602  -3.419   9.622  0.00  0.00    -0.133 NA
HETATM   22  N   UNK     0       6.361  -4.405   8.813  0.00  0.00    -0.064 NA
BRANCH  20  23
HETATM   23  C   UNK     0       8.402  -2.805  11.257  0.00  0.00     0.044 A 
HETATM   24  C   UNK     0       9.441  -1.786  10.753  0.00  0.00     0.006 A 
HETATM   25  C   UNK     0       8.062  -1.305  11.217  0.00  0.00     0.006 A 
ENDBRANCH  20  23
ENDBRANCH  17  18
ENDBRANCH  15  17
ENDBRANCH   9  14
TORSDOF 4
ENDMDL
