MODEL 1
REMARK VINA RESULT:      -6.6      0.000      0.000
REMARK  5 active torsions:
REMARK  status: ('A' for Active; 'I' for Inactive)
REMARK    1  A    between atoms: C_9  and  N_13 
REMARK       I    between atoms: N_13  and  C_14 
REMARK    2  A    between atoms: C_14  and  C_17 
REMARK    3  A    between atoms: C_17  and  N_18 
REMARK    4  A    between atoms: C_20  and  C_23 
REMARK    5  A    between atoms: C_23  and  C_24 
ROOT
HETATM    1  C   UNK     0       6.964  -6.967  -0.375  0.00  0.00     0.003 A 
HETATM    2  C   UNK     0       6.499  -6.010  -1.295  0.00  0.00     0.000 A 
HETATM    3  C   UNK     0       6.960  -4.685  -1.228  0.00  0.00     0.000 A 
HETATM    4  C   UNK     0       7.901  -4.315  -0.253  0.00  0.00     0.003 A 
HETATM    5  C   UNK     0       8.379  -5.267   0.680  0.00  0.00     0.044 A 
HETATM    6  C   UNK     0       7.886  -6.604   0.635  0.00  0.00     0.044 A 
HETATM    7  C   UNK     0       9.328  -4.924   1.687  0.00  0.00     0.217 C 
HETATM    8  C   UNK     0       9.589  -5.815   2.734  0.00  0.00     0.162 C 
HETATM    9  C   UNK     0       9.086  -7.075   2.723  0.00  0.00     0.146 C 
HETATM   10  C   UNK     0       8.326  -7.527   1.632  0.00  0.00     0.215 C 
HETATM   11  O   UNK     0       8.022  -8.743   1.549  0.00  0.00    -0.285 OA
HETATM   12  O   UNK     0       9.922  -3.818   1.642  0.00  0.00    -0.285 OA
HETATM   13  N   UNK     0      10.320  -5.380   3.754  0.00  0.00    -0.143 N 
ENDROOT
BRANCH   9  14
HETATM   14  N   UNK     0       9.333  -7.881   3.763  0.00  0.00    -0.205 NA
HETATM   15  C   UNK     0       8.556  -8.038   4.875  0.00  0.00     0.281 C 
HETATM   16  O   UNK     0       9.001  -8.825   5.742  0.00  0.00    -0.268 OA
BRANCH  15  17
HETATM   17  C   UNK     0       7.277  -7.342   5.168  0.00  0.00     0.219 C 
BRANCH  17  18
HETATM   18  N   UNK     0       7.504  -6.097   5.838  0.00  0.00    -0.221 N 
HETATM   19  C   UNK     0       8.012  -5.919   7.071  0.00  0.00     0.114 A 
HETATM   20  C   UNK     0       8.076  -4.546   7.267  0.00  0.00     0.102 A 
HETATM   21  N   UNK     0       7.581  -3.986   6.152  0.00  0.00    -0.133 NA
HETATM   22  N   UNK     0       7.257  -4.931   5.325  0.00  0.00    -0.064 NA
BRANCH  20  23
HETATM   23  C   UNK     0       8.590  -3.807   8.445  0.00  0.00     0.062 C 
BRANCH  23  24
HETATM   24  C   UNK     0       7.583  -2.897   9.174  0.00  0.00     0.074 C 
HETATM   25 Br   UNK     0       6.563  -3.507  10.153  0.00  0.00    -0.081 Br
ENDBRANCH  23  24
ENDBRANCH  20  23
ENDBRANCH  17  18
ENDBRANCH  15  17
ENDBRANCH   9  14
TORSDOF 5
ENDMDL
MODEL 2
REMARK VINA RESULT:      -6.5      3.826      7.103
REMARK  5 active torsions:
REMARK  status: ('A' for Active; 'I' for Inactive)
REMARK    1  A    between atoms: C_9  and  N_13 
REMARK       I    between atoms: N_13  and  C_14 
REMARK    2  A    between atoms: C_14  and  C_17 
REMARK    3  A    between atoms: C_17  and  N_18 
REMARK    4  A    between atoms: C_20  and  C_23 
REMARK    5  A    between atoms: C_23  and  C_24 
ROOT
HETATM    1  C   UNK     0       7.467  -6.252   7.435  0.00  0.00     0.003 A 
HETATM    2  C   UNK     0       7.381  -5.382   8.536  0.00  0.00     0.000 A 
HETATM    3  C   UNK     0       7.803  -4.047   8.416  0.00  0.00     0.000 A 
HETATM    4  C   UNK     0       8.295  -3.573   7.189  0.00  0.00     0.003 A 
HETATM    5  C   UNK     0       8.389  -4.436   6.072  0.00  0.00     0.044 A 
HETATM    6  C   UNK     0       7.993  -5.800   6.202  0.00  0.00     0.044 A 
HETATM    7  C   UNK     0       8.891  -3.990   4.814  0.00  0.00     0.217 C 
HETATM    8  C   UNK     0       9.198  -4.919   3.814  0.00  0.00     0.162 C 
HETATM    9  C   UNK     0       8.867  -6.227   3.948  0.00  0.00     0.146 C 
HETATM   10  C   UNK     0       8.165  -6.670   5.082  0.00  0.00     0.215 C 
HETATM   11  O   UNK     0       7.708  -7.839   5.111  0.00  0.00    -0.285 OA
HETATM   12  O   UNK     0       9.070  -2.763   4.607  0.00  0.00    -0.285 OA
HETATM   13  N   UNK     0       9.850  -4.486   2.741  0.00  0.00    -0.143 N 
ENDROOT
BRANCH   9  14
HETATM   14  N   UNK     0       9.212  -7.087   2.982  0.00  0.00    -0.205 NA
HETATM   15  C   UNK     0       8.414  -7.540   1.970  0.00  0.00     0.281 C 
HETATM   16  O   UNK     0       8.940  -8.371   1.195  0.00  0.00    -0.268 OA
BRANCH  15  17
HETATM   17  C   UNK     0       6.993  -7.180   1.734  0.00  0.00     0.219 C 
BRANCH  17  18
HETATM   18  N   UNK     0       6.858  -6.309   0.605  0.00  0.00    -0.221 N 
HETATM   19  C   UNK     0       6.564  -6.658  -0.660  0.00  0.00     0.114 A 
HETATM   20  C   UNK     0       6.507  -5.475  -1.385  0.00  0.00     0.102 A 
HETATM   21  N   UNK     0       6.793  -4.492  -0.517  0.00  0.00    -0.133 NA
HETATM   22  N   UNK     0       6.990  -5.019   0.653  0.00  0.00    -0.064 NA
BRANCH  20  23
HETATM   23  C   UNK     0       6.186  -5.288  -2.819  0.00  0.00     0.062 C 
BRANCH  23  24
HETATM   24  C   UNK     0       7.205  -5.854  -3.827  0.00  0.00     0.074 C 
HETATM   25 Br   UNK     0       6.749  -6.251  -5.243  0.00  0.00    -0.081 Br
ENDBRANCH  23  24
ENDBRANCH  20  23
ENDBRANCH  17  18
ENDBRANCH  15  17
ENDBRANCH   9  14
TORSDOF 5
ENDMDL
MODEL 3
REMARK VINA RESULT:      -6.4      1.506      2.732
REMARK  5 active torsions:
REMARK  status: ('A' for Active; 'I' for Inactive)
REMARK    1  A    between atoms: C_9  and  N_13 
REMARK       I    between atoms: N_13  and  C_14 
REMARK    2  A    between atoms: C_14  and  C_17 
REMARK    3  A    between atoms: C_17  and  N_18 
REMARK    4  A    between atoms: C_20  and  C_23 
REMARK    5  A    between atoms: C_23  and  C_24 
ROOT
HETATM    1  C   UNK     0       8.181  -3.816  -1.224  0.00  0.00     0.003 A 
HETATM    2  C   UNK     0       7.547  -3.877  -2.478  0.00  0.00     0.000 A 
HETATM    3  C   UNK     0       6.780  -5.001  -2.827  0.00  0.00     0.000 A 
HETATM    4  C   UNK     0       6.629  -6.060  -1.917  0.00  0.00     0.003 A 
HETATM    5  C   UNK     0       7.261  -6.014  -0.651  0.00  0.00     0.044 A 
HETATM    6  C   UNK     0       8.068  -4.890  -0.309  0.00  0.00     0.044 A 
HETATM    7  C   UNK     0       7.136  -7.075   0.294  0.00  0.00     0.217 C 
HETATM    8  C   UNK     0       7.963  -7.109   1.421  0.00  0.00     0.162 C 
HETATM    9  C   UNK     0       8.770  -6.063   1.730  0.00  0.00     0.146 C 
HETATM   10  C   UNK     0       8.756  -4.899   0.943  0.00  0.00     0.215 C 
HETATM   11  O   UNK     0       9.367  -3.876   1.339  0.00  0.00    -0.285 OA
HETATM   12  O   UNK     0       6.290  -7.986   0.108  0.00  0.00    -0.285 OA
HETATM   13  N   UNK     0       7.958  -8.210   2.164  0.00  0.00    -0.143 N 
ENDROOT
BRANCH   9  14
HETATM   14  N   UNK     0       9.571  -6.154   2.798  0.00  0.00    -0.205 NA
HETATM   15  C   UNK     0       9.329  -5.651   4.044  0.00  0.00     0.281 C 
HETATM   16  O   UNK     0      10.239  -5.826   4.887  0.00  0.00    -0.268 OA
BRANCH  15  17
HETATM   17  C   UNK     0       8.129  -4.890   4.475  0.00  0.00     0.219 C 
BRANCH  17  18
HETATM   18  N   UNK     0       7.800  -5.167   5.841  0.00  0.00    -0.221 N 
HETATM   19  C   UNK     0       8.147  -4.447   6.923  0.00  0.00     0.114 A 
HETATM   20  C   UNK     0       7.571  -5.084   8.013  0.00  0.00     0.102 A 
HETATM   21  N   UNK     0       6.936  -6.160   7.523  0.00  0.00    -0.133 NA
HETATM   22  N   UNK     0       7.086  -6.177   6.235  0.00  0.00    -0.064 NA
BRANCH  20  23
HETATM   23  C   UNK     0       7.613  -4.687   9.440  0.00  0.00     0.062 C 
BRANCH  23  24
HETATM   24  C   UNK     0       6.875  -3.385   9.810  0.00  0.00     0.074 C 
HETATM   25 Br   UNK     0       5.843  -3.383  10.951  0.00  0.00    -0.081 Br
ENDBRANCH  23  24
ENDBRANCH  20  23
ENDBRANCH  17  18
ENDBRANCH  15  17
ENDBRANCH   9  14
TORSDOF 5
ENDMDL
MODEL 4
REMARK VINA RESULT:      -6.4      1.906      3.121
REMARK  5 active torsions:
REMARK  status: ('A' for Active; 'I' for Inactive)
REMARK    1  A    between atoms: C_9  and  N_13 
REMARK       I    between atoms: N_13  and  C_14 
REMARK    2  A    between atoms: C_14  and  C_17 
REMARK    3  A    between atoms: C_17  and  N_18 
REMARK    4  A    between atoms: C_20  and  C_23 
REMARK    5  A    between atoms: C_23  and  C_24 
ROOT
HETATM    1  C   UNK     0       8.624  -4.028  -1.741  0.00  0.00     0.003 A 
HETATM    2  C   UNK     0       7.577  -4.086  -2.679  0.00  0.00     0.000 A 
HETATM    3  C   UNK     0       6.528  -5.004  -2.509  0.00  0.00     0.000 A 
HETATM    4  C   UNK     0       6.511  -5.855  -1.392  0.00  0.00     0.003 A 
HETATM    5  C   UNK     0       7.557  -5.809  -0.439  0.00  0.00     0.044 A 
HETATM    6  C   UNK     0       8.640  -4.902  -0.628  0.00  0.00     0.044 A 
HETATM    7  C   UNK     0       7.575  -6.664   0.703  0.00  0.00     0.217 C 
HETATM    8  C   UNK     0       8.732  -6.764   1.483  0.00  0.00     0.162 C 
HETATM    9  C   UNK     0       9.787  -5.935   1.280  0.00  0.00     0.146 C 
HETATM   10  C   UNK     0       9.721  -4.925   0.307  0.00  0.00     0.215 C 
HETATM   11  O   UNK     0      10.624  -4.055   0.253  0.00  0.00    -0.285 OA
HETATM   12  O   UNK     0       6.557  -7.336   1.002  0.00  0.00    -0.285 OA
HETATM   13  N   UNK     0       8.779  -7.715   2.409  0.00  0.00    -0.143 N 
ENDROOT
BRANCH   9  14
HETATM   14  N   UNK     0      10.887  -6.091   2.027  0.00  0.00    -0.205 NA
HETATM   15  C   UNK     0      11.203  -5.408   3.166  0.00  0.00     0.281 C 
HETATM   16  O   UNK     0      12.307  -5.696   3.684  0.00  0.00    -0.268 OA
BRANCH  15  17
HETATM   17  C   UNK     0      10.395  -4.343   3.814  0.00  0.00     0.219 C 
BRANCH  17  18
HETATM   18  N   UNK     0       9.271  -4.894   4.511  0.00  0.00    -0.221 N 
HETATM   19  C   UNK     0       9.297  -5.784   5.519  0.00  0.00     0.114 A 
HETATM   20  C   UNK     0       7.975  -5.987   5.890  0.00  0.00     0.102 A 
HETATM   21  N   UNK     0       7.236  -5.227   5.066  0.00  0.00    -0.133 NA
HETATM   22  N   UNK     0       8.034  -4.589   4.267  0.00  0.00    -0.064 NA
BRANCH  20  23
HETATM   23  C   UNK     0       7.443  -6.847   6.973  0.00  0.00     0.062 C 
BRANCH  23  24
HETATM   24  C   UNK     0       7.716  -6.377   8.415  0.00  0.00     0.074 C 
HETATM   25 Br   UNK     0       7.365  -4.938   8.835  0.00  0.00    -0.081 Br
ENDBRANCH  23  24
ENDBRANCH  20  23
ENDBRANCH  17  18
ENDBRANCH  15  17
ENDBRANCH   9  14
TORSDOF 5
ENDMDL
MODEL 5
REMARK VINA RESULT:      -6.4      1.408      2.544
REMARK  5 active torsions:
REMARK  status: ('A' for Active; 'I' for Inactive)
REMARK    1  A    between atoms: C_9  and  N_13 
REMARK       I    between atoms: N_13  and  C_14 
REMARK    2  A    between atoms: C_14  and  C_17 
REMARK    3  A    between atoms: C_17  and  N_18 
REMARK    4  A    between atoms: C_20  and  C_23 
REMARK    5  A    between atoms: C_23  and  C_24 
ROOT
HETATM    1  C   UNK     0       7.226  -4.786   0.414  0.00  0.00     0.003 A 
HETATM    2  C   UNK     0       6.612  -5.106  -0.810  0.00  0.00     0.000 A 
HETATM    3  C   UNK     0       6.555  -6.440  -1.243  0.00  0.00     0.000 A 
HETATM    4  C   UNK     0       7.096  -7.463  -0.447  0.00  0.00     0.003 A 
HETATM    5  C   UNK     0       7.718  -7.158   0.787  0.00  0.00     0.044 A 
HETATM    6  C   UNK     0       7.807  -5.800   1.213  0.00  0.00     0.044 A 
HETATM    7  C   UNK     0       8.284  -8.170   1.617  0.00  0.00     0.217 C 
HETATM    8  C   UNK     0       9.099  -7.814   2.698  0.00  0.00     0.162 C 
HETATM    9  C   UNK     0       9.227  -6.519   3.081  0.00  0.00     0.146 C 
HETATM   10  C   UNK     0       8.504  -5.509   2.426  0.00  0.00     0.215 C 
HETATM   11  O   UNK     0       8.490  -4.347   2.902  0.00  0.00    -0.285 OA
HETATM   12  O   UNK     0       8.061  -9.382   1.372  0.00  0.00    -0.285 OA
HETATM   13  N   UNK     0       9.768  -8.779   3.318  0.00  0.00    -0.143 N 
ENDROOT
BRANCH   9  14
HETATM   14  N   UNK     0      10.046  -6.221   4.097  0.00  0.00    -0.205 NA
HETATM   15  C   UNK     0       9.714  -6.158   5.420  0.00  0.00     0.281 C 
HETATM   16  O   UNK     0      10.639  -5.824   6.197  0.00  0.00    -0.268 OA
BRANCH  15  17
HETATM   17  C   UNK     0       8.373  -6.400   6.010  0.00  0.00     0.219 C 
BRANCH  17  18
HETATM   18  N   UNK     0       7.926  -5.269   6.767  0.00  0.00    -0.221 N 
HETATM   19  C   UNK     0       7.737  -5.205   8.097  0.00  0.00     0.114 A 
HETATM   20  C   UNK     0       7.339  -3.903   8.369  0.00  0.00     0.102 A 
HETATM   21  N   UNK     0       7.289  -3.274   7.184  0.00  0.00    -0.133 NA
HETATM   22  N   UNK     0       7.648  -4.108   6.258  0.00  0.00    -0.064 NA
BRANCH  20  23
HETATM   23  C   UNK     0       7.033  -3.288   9.682  0.00  0.00     0.062 C 
BRANCH  23  24
HETATM   24  C   UNK     0       7.831  -2.022  10.047  0.00  0.00     0.074 C 
HETATM   25 Br   UNK     0       9.297  -2.139  10.502  0.00  0.00    -0.081 Br
ENDBRANCH  23  24
ENDBRANCH  20  23
ENDBRANCH  17  18
ENDBRANCH  15  17
ENDBRANCH   9  14
TORSDOF 5
ENDMDL
MODEL 6
REMARK VINA RESULT:      -6.3      4.162      7.096
REMARK  5 active torsions:
REMARK  status: ('A' for Active; 'I' for Inactive)
REMARK    1  A    between atoms: C_9  and  N_13 
REMARK       I    between atoms: N_13  and  C_14 
REMARK    2  A    between atoms: C_14  and  C_17 
REMARK    3  A    between atoms: C_17  and  N_18 
REMARK    4  A    between atoms: C_20  and  C_23 
REMARK    5  A    between atoms: C_23  and  C_24 
ROOT
HETATM    1  C   UNK     0       7.719  -5.789   5.940  0.00  0.00     0.003 A 
HETATM    2  C   UNK     0       7.961  -4.761   6.868  0.00  0.00     0.000 A 
HETATM    3  C   UNK     0       8.639  -3.596   6.469  0.00  0.00     0.000 A 
HETATM    4  C   UNK     0       9.060  -3.449   5.137  0.00  0.00     0.003 A 
HETATM    5  C   UNK     0       8.824  -4.476   4.192  0.00  0.00     0.044 A 
HETATM    6  C   UNK     0       8.167  -5.672   4.604  0.00  0.00     0.044 A 
HETATM    7  C   UNK     0       9.245  -4.362   2.834  0.00  0.00     0.217 C 
HETATM    8  C   UNK     0       9.216  -5.483   1.997  0.00  0.00     0.162 C 
HETATM    9  C   UNK     0       8.634  -6.640   2.397  0.00  0.00     0.146 C 
HETATM   10  C   UNK     0       8.005  -6.724   3.650  0.00  0.00     0.215 C 
HETATM   11  O   UNK     0       7.317  -7.736   3.933  0.00  0.00    -0.285 OA
HETATM   12  O   UNK     0       9.653  -3.259   2.392  0.00  0.00    -0.285 OA
HETATM   13  N   UNK     0       9.803  -5.387   0.809  0.00  0.00    -0.143 N 
ENDROOT
BRANCH   9  14
HETATM   14  N   UNK     0       8.662  -7.698   1.577  0.00  0.00    -0.205 NA
HETATM   15  C   UNK     0       7.725  -8.028   0.640  0.00  0.00     0.281 C 
HETATM   16  O   UNK     0       7.940  -9.086   0.006  0.00  0.00    -0.268 OA
BRANCH  15  17
HETATM   17  C   UNK     0       6.474  -7.286   0.338  0.00  0.00     0.219 C 
BRANCH  17  18
HETATM   18  N   UNK     0       6.704  -6.245  -0.618  0.00  0.00    -0.221 N 
HETATM   19  C   UNK     0       7.346  -6.350  -1.795  0.00  0.00     0.114 A 
HETATM   20  C   UNK     0       7.285  -5.093  -2.383  0.00  0.00     0.102 A 
HETATM   21  N   UNK     0       6.634  -4.307  -1.512  0.00  0.00    -0.133 NA
HETATM   22  N   UNK     0       6.299  -5.020  -0.482  0.00  0.00    -0.064 NA
BRANCH  20  23
HETATM   23  C   UNK     0       7.808  -4.668  -3.702  0.00  0.00     0.062 C 
BRANCH  23  24
HETATM   24  C   UNK     0       7.873  -5.752  -4.795  0.00  0.00     0.074 C 
HETATM   25 Br   UNK     0       6.592  -6.177  -5.536  0.00  0.00    -0.081 Br
ENDBRANCH  23  24
ENDBRANCH  20  23
ENDBRANCH  17  18
ENDBRANCH  15  17
ENDBRANCH   9  14
TORSDOF 5
ENDMDL
MODEL 7
REMARK VINA RESULT:      -6.3      3.439      7.346
REMARK  5 active torsions:
REMARK  status: ('A' for Active; 'I' for Inactive)
REMARK    1  A    between atoms: C_9  and  N_13 
REMARK       I    between atoms: N_13  and  C_14 
REMARK    2  A    between atoms: C_14  and  C_17 
REMARK    3  A    between atoms: C_17  and  N_18 
REMARK    4  A    between atoms: C_20  and  C_23 
REMARK    5  A    between atoms: C_23  and  C_24 
ROOT
HETATM    1  C   UNK     0       9.748  -3.864   8.455  0.00  0.00     0.003 A 
HETATM    2  C   UNK     0       8.954  -3.205   9.410  0.00  0.00     0.000 A 
HETATM    3  C   UNK     0       7.609  -3.571   9.584  0.00  0.00     0.000 A 
HETATM    4  C   UNK     0       7.058  -4.611   8.816  0.00  0.00     0.003 A 
HETATM    5  C   UNK     0       7.845  -5.284   7.850  0.00  0.00     0.044 A 
HETATM    6  C   UNK     0       9.200  -4.889   7.649  0.00  0.00     0.044 A 
HETATM    7  C   UNK     0       7.316  -6.338   7.048  0.00  0.00     0.217 C 
HETATM    8  C   UNK     0       8.039  -6.809   5.947  0.00  0.00     0.162 C 
HETATM    9  C   UNK     0       9.313  -6.404   5.720  0.00  0.00     0.146 C 
HETATM   10  C   UNK     0       9.952  -5.533   6.618  0.00  0.00     0.215 C 
HETATM   11  O   UNK     0      11.182  -5.310   6.498  0.00  0.00    -0.285 OA
HETATM   12  O   UNK     0       6.196  -6.837   7.324  0.00  0.00    -0.285 OA
HETATM   13  N   UNK     0       7.428  -7.642   5.112  0.00  0.00    -0.143 N 
ENDROOT
BRANCH   9  14
HETATM   14  N   UNK     0       9.953  -6.853   4.634  0.00  0.00    -0.205 NA
HETATM   15  C   UNK     0      10.112  -6.192   3.450  0.00  0.00     0.281 C 
HETATM   16  O   UNK     0      10.720  -6.822   2.554  0.00  0.00    -0.268 OA
BRANCH  15  17
HETATM   17  C   UNK     0       9.601  -4.838   3.115  0.00  0.00     0.219 C 
BRANCH  17  18
HETATM   18  N   UNK     0       8.661  -4.890   2.036  0.00  0.00    -0.221 N 
HETATM   19  C   UNK     0       8.783  -4.322   0.823  0.00  0.00     0.114 A 
HETATM   20  C   UNK     0       7.644  -4.677   0.112  0.00  0.00     0.102 A 
HETATM   21  N   UNK     0       6.898  -5.414   0.949  0.00  0.00    -0.133 NA
HETATM   22  N   UNK     0       7.530  -5.526   2.076  0.00  0.00    -0.064 NA
BRANCH  20  23
HETATM   23  C   UNK     0       7.291  -4.342  -1.287  0.00  0.00     0.062 C 
BRANCH  23  24
HETATM   24  C   UNK     0       6.326  -5.310  -1.999  0.00  0.00     0.074 C 
HETATM   25 Br   UNK     0       6.717  -5.930  -3.353  0.00  0.00    -0.081 Br
ENDBRANCH  23  24
ENDBRANCH  20  23
ENDBRANCH  17  18
ENDBRANCH  15  17
ENDBRANCH   9  14
TORSDOF 5
ENDMDL
MODEL 8
REMARK VINA RESULT:      -6.2      3.326      7.503
REMARK  5 active torsions:
REMARK  status: ('A' for Active; 'I' for Inactive)
REMARK    1  A    between atoms: C_9  and  N_13 
REMARK       I    between atoms: N_13  and  C_14 
REMARK    2  A    between atoms: C_14  and  C_17 
REMARK    3  A    between atoms: C_17  and  N_18 
REMARK    4  A    between atoms: C_20  and  C_23 
REMARK    5  A    between atoms: C_23  and  C_24 
ROOT
HETATM    1  C   UNK     0       6.092  -3.910   9.666  0.00  0.00     0.003 A 
HETATM    2  C   UNK     0       5.777  -2.945  10.639  0.00  0.00     0.000 A 
HETATM    3  C   UNK     0       6.764  -2.057  11.098  0.00  0.00     0.000 A 
HETATM    4  C   UNK     0       8.065  -2.118  10.572  0.00  0.00     0.003 A 
HETATM    5  C   UNK     0       8.397  -3.084   9.592  0.00  0.00     0.044 A 
HETATM    6  C   UNK     0       7.406  -4.008   9.151  0.00  0.00     0.044 A 
HETATM    7  C   UNK     0       9.710  -3.179   9.042  0.00  0.00     0.217 C 
HETATM    8  C   UNK     0      10.065  -4.289   8.267  0.00  0.00     0.162 C 
HETATM    9  C   UNK     0       9.137  -5.199   7.882  0.00  0.00     0.146 C 
HETATM   10  C   UNK     0       7.784  -5.021   8.216  0.00  0.00     0.215 C 
HETATM   11  O   UNK     0       6.914  -5.767   7.703  0.00  0.00    -0.285 OA
HETATM   12  O   UNK     0      10.552  -2.273   9.262  0.00  0.00    -0.285 OA
HETATM   13  N   UNK     0      11.345  -4.440   7.947  0.00  0.00    -0.143 N 
ENDROOT
BRANCH   9  14
HETATM   14  N   UNK     0       9.528  -6.264   7.171  0.00  0.00    -0.205 NA
HETATM   15  C   UNK     0       9.591  -6.359   5.811  0.00  0.00     0.281 C 
HETATM   16  O   UNK     0       9.955  -7.470   5.360  0.00  0.00    -0.268 OA
BRANCH  15  17
HETATM   17  C   UNK     0       9.230  -5.302   4.831  0.00  0.00     0.219 C 
BRANCH  17  18
HETATM   18  N   UNK     0       8.267  -5.778   3.884  0.00  0.00    -0.221 N 
HETATM   19  C   UNK     0       8.475  -6.062   2.586  0.00  0.00     0.114 A 
HETATM   20  C   UNK     0       7.261  -6.522   2.091  0.00  0.00     0.102 A 
HETATM   21  N   UNK     0       6.395  -6.461   3.114  0.00  0.00    -0.133 NA
HETATM   22  N   UNK     0       7.023  -6.022   4.162  0.00  0.00    -0.064 NA
BRANCH  20  23
HETATM   23  C   UNK     0       6.946  -7.001   0.725  0.00  0.00     0.062 C 
BRANCH  23  24
HETATM   24  C   UNK     0       7.562  -6.202  -0.439  0.00  0.00     0.074 C 
HETATM   25 Br   UNK     0       7.131  -4.744  -0.686  0.00  0.00    -0.081 Br
ENDBRANCH  23  24
ENDBRANCH  20  23
ENDBRANCH  17  18
ENDBRANCH  15  17
ENDBRANCH   9  14
TORSDOF 5
ENDMDL
MODEL 9
REMARK VINA RESULT:      -6.2      3.588      7.800
REMARK  5 active torsions:
REMARK  status: ('A' for Active; 'I' for Inactive)
REMARK    1  A    between atoms: C_9  and  N_13 
REMARK       I    between atoms: N_13  and  C_14 
REMARK    2  A    between atoms: C_14  and  C_17 
REMARK    3  A    between atoms: C_17  and  N_18 
REMARK    4  A    between atoms: C_20  and  C_23 
REMARK    5  A    between atoms: C_23  and  C_24 
ROOT
HETATM    1  C   UNK     0       8.654  -2.875   9.013  0.00  0.00     0.003 A 
HETATM    2  C   UNK     0       9.352  -2.605  10.204  0.00  0.00     0.000 A 
HETATM    3  C   UNK     0      10.182  -3.585  10.773  0.00  0.00     0.000 A 
HETATM    4  C   UNK     0      10.333  -4.832  10.144  0.00  0.00     0.003 A 
HETATM    5  C   UNK     0       9.636  -5.119   8.945  0.00  0.00     0.044 A 
HETATM    6  C   UNK     0       8.766  -4.138   8.385  0.00  0.00     0.044 A 
HETATM    7  C   UNK     0       9.759  -6.377   8.284  0.00  0.00     0.217 C 
HETATM    8  C   UNK     0       8.879  -6.713   7.250  0.00  0.00     0.162 C 
HETATM    9  C   UNK     0       8.014  -5.799   6.742  0.00  0.00     0.146 C 
HETATM   10  C   UNK     0       8.018  -4.477   7.216  0.00  0.00     0.215 C 
HETATM   11  O   UNK     0       7.345  -3.602   6.618  0.00  0.00    -0.285 OA
HETATM   12  O   UNK     0      10.651  -7.189   8.638  0.00  0.00    -0.285 OA
HETATM   13  N   UNK     0       8.894  -7.963   6.801  0.00  0.00    -0.143 N 
ENDROOT
BRANCH   9  14
HETATM   14  N   UNK     0       7.165  -6.175   5.778  0.00  0.00    -0.205 NA
HETATM   15  C   UNK     0       7.393  -6.143   4.432  0.00  0.00     0.281 C 
HETATM   16  O   UNK     0       6.439  -6.512   3.711  0.00  0.00    -0.268 OA
BRANCH  15  17
HETATM   17  C   UNK     0       8.630  -5.676   3.754  0.00  0.00     0.219 C 
BRANCH  17  18
HETATM   18  N   UNK     0       8.382  -5.366   2.378  0.00  0.00    -0.221 N 
HETATM   19  C   UNK     0       8.511  -6.191   1.323  0.00  0.00     0.114 A 
HETATM   20  C   UNK     0       8.127  -5.458   0.209  0.00  0.00     0.102 A 
HETATM   21  N   UNK     0       7.816  -4.232   0.659  0.00  0.00    -0.133 NA
HETATM   22  N   UNK     0       7.972  -4.213   1.947  0.00  0.00    -0.064 NA
BRANCH  20  23
HETATM   23  C   UNK     0       8.049  -5.900  -1.203  0.00  0.00     0.062 C 
BRANCH  23  24
HETATM   24  C   UNK     0       6.652  -5.878  -1.851  0.00  0.00     0.074 C 
HETATM   25 Br   UNK     0       6.511  -5.690  -3.373  0.00  0.00    -0.081 Br
ENDBRANCH  23  24
ENDBRANCH  20  23
ENDBRANCH  17  18
ENDBRANCH  15  17
ENDBRANCH   9  14
TORSDOF 5
ENDMDL
