MODEL 1
REMARK VINA RESULT:      -7.6      0.000      0.000
REMARK  4 active torsions:
REMARK  status: ('A' for Active; 'I' for Inactive)
REMARK    1  A    between atoms: C_9  and  N_13 
REMARK       I    between atoms: N_13  and  C_14 
REMARK    2  A    between atoms: C_14  and  C_17 
REMARK    3  A    between atoms: C_17  and  N_18 
REMARK    4  A    between atoms: C_20  and  C_23 
ROOT
HETATM    1  N   UNK     0       9.083  -7.195   2.885  0.00  0.00    -0.205 NA
HETATM    2  C   UNK     0       8.309  -7.648   1.853  0.00  0.00     0.281 C 
HETATM    3  O   UNK     0       8.825  -8.533   1.133  0.00  0.00    -0.268 OA
ENDROOT
BRANCH   1   4
HETATM    4  C   UNK     0       8.735  -6.292   3.808  0.00  0.00     0.146 C 
HETATM    5  C   UNK     0       9.101  -4.998   3.642  0.00  0.00     0.162 C 
HETATM    6  C   UNK     0       8.830  -4.040   4.627  0.00  0.00     0.217 C 
HETATM    7  N   UNK     0       9.758  -4.606   2.557  0.00  0.00    -0.143 N 
HETATM    8  C   UNK     0       8.331  -4.448   5.901  0.00  0.00     0.044 A 
HETATM    9  O   UNK     0       9.044  -2.824   4.397  0.00  0.00    -0.285 OA
HETATM   10  C   UNK     0       8.294  -3.571   7.010  0.00  0.00     0.003 A 
HETATM   11  C   UNK     0       7.888  -5.791   6.058  0.00  0.00     0.044 A 
HETATM   12  C   UNK     0       7.824  -4.019   8.258  0.00  0.00     0.000 A 
HETATM   13  C   UNK     0       7.359  -5.335   8.404  0.00  0.00     0.000 A 
HETATM   14  C   UNK     0       7.382  -6.216   7.310  0.00  0.00     0.003 A 
HETATM   15  C   UNK     0       8.004  -6.679   4.945  0.00  0.00     0.215 C 
HETATM   16  O   UNK     0       7.468  -7.815   4.983  0.00  0.00    -0.285 OA
ENDBRANCH   1   4
BRANCH   2  17
HETATM   17  C   UNK     0       6.923  -7.227   1.525  0.00  0.00     0.219 C 
BRANCH  17  18
HETATM   18  N   UNK     0       6.890  -6.293   0.443  0.00  0.00    -0.221 N 
HETATM   19  C   UNK     0       6.815  -6.584  -0.866  0.00  0.00     0.114 A 
HETATM   20  C   UNK     0       6.737  -5.373  -1.535  0.00  0.00     0.101 A 
HETATM   21  N   UNK     0       6.787  -4.424  -0.585  0.00  0.00    -0.133 NA
HETATM   22  N   UNK     0       6.882  -5.001   0.573  0.00  0.00    -0.064 NA
BRANCH  20  23
HETATM   23  C   UNK     0       6.597  -5.171  -2.998  0.00  0.00     0.044 C 
HETATM   24  C   UNK     0       6.480  -6.479  -3.815  0.00  0.00     0.006 C 
HETATM   25  C   UNK     0       6.843  -6.068  -5.254  0.00  0.00     0.000 C 
HETATM   26  C   UNK     0       7.830  -4.887  -5.122  0.00  0.00     0.000 C 
HETATM   27  C   UNK     0       7.791  -4.429  -3.646  0.00  0.00     0.006 C 
ENDBRANCH  20  23
ENDBRANCH  17  18
ENDBRANCH   2  17
TORSDOF 4
ENDMDL
MODEL 2
REMARK VINA RESULT:      -7.5      2.596      7.903
REMARK  4 active torsions:
REMARK  status: ('A' for Active; 'I' for Inactive)
REMARK    1  A    between atoms: C_9  and  N_13 
REMARK       I    between atoms: N_13  and  C_14 
REMARK    2  A    between atoms: C_14  and  C_17 
REMARK    3  A    between atoms: C_17  and  N_18 
REMARK    4  A    between atoms: C_20  and  C_23 
ROOT
HETATM    1  N   UNK     0       9.503  -7.847   4.024  0.00  0.00    -0.205 NA
HETATM    2  C   UNK     0       8.677  -8.066   5.091  0.00  0.00     0.281 C 
HETATM    3  O   UNK     0       9.142  -8.792   6.000  0.00  0.00    -0.268 OA
ENDROOT
BRANCH   1   4
HETATM    4  C   UNK     0       9.247  -7.076   2.961  0.00  0.00     0.146 C 
HETATM    5  C   UNK     0       9.718  -5.805   2.933  0.00  0.00     0.162 C 
HETATM    6  C   UNK     0       9.399  -4.942   1.878  0.00  0.00     0.217 C 
HETATM    7  N   UNK     0      10.466  -5.331   3.922  0.00  0.00    -0.143 N 
HETATM    8  C   UNK     0       8.422  -5.327   0.911  0.00  0.00     0.044 A 
HETATM    9  O   UNK     0       9.958  -3.821   1.793  0.00  0.00    -0.285 OA
HETATM   10  C   UNK     0       7.869  -4.405  -0.008  0.00  0.00     0.003 A 
HETATM   11  C   UNK     0       7.974  -6.678   0.900  0.00  0.00     0.044 A 
HETATM   12  C   UNK     0       6.886  -4.815  -0.926  0.00  0.00     0.000 A 
HETATM   13  C   UNK     0       6.466  -6.154  -0.956  0.00  0.00     0.000 A 
HETATM   14  C   UNK     0       7.012  -7.084  -0.055  0.00  0.00     0.003 A 
HETATM   15  C   UNK     0       8.491  -7.573   1.885  0.00  0.00     0.215 C 
HETATM   16  O   UNK     0       8.259  -8.805   1.804  0.00  0.00    -0.285 OA
ENDBRANCH   1   4
BRANCH   2  17
HETATM   17  C   UNK     0       7.315  -7.508   5.295  0.00  0.00     0.219 C 
BRANCH  17  18
HETATM   18  N   UNK     0       7.344  -6.280   6.028  0.00  0.00    -0.221 N 
HETATM   19  C   UNK     0       7.434  -6.144   7.361  0.00  0.00     0.114 A 
HETATM   20  C   UNK     0       7.500  -4.783   7.613  0.00  0.00     0.101 A 
HETATM   21  N   UNK     0       7.429  -4.182   6.414  0.00  0.00    -0.133 NA
HETATM   22  N   UNK     0       7.333  -5.095   5.498  0.00  0.00    -0.064 NA
BRANCH  20  23
HETATM   23  C   UNK     0       7.650  -4.129   8.937  0.00  0.00     0.044 C 
HETATM   24  C   UNK     0       6.314  -3.787   9.635  0.00  0.00     0.006 C 
HETATM   25  C   UNK     0       6.688  -2.721  10.681  0.00  0.00     0.000 C 
HETATM   26  C   UNK     0       7.901  -1.961  10.099  0.00  0.00     0.000 C 
HETATM   27  C   UNK     0       8.405  -2.780   8.887  0.00  0.00     0.006 C 
ENDBRANCH  20  23
ENDBRANCH  17  18
ENDBRANCH   2  17
TORSDOF 4
ENDMDL
MODEL 3
REMARK VINA RESULT:      -7.5      1.950      3.203
REMARK  4 active torsions:
REMARK  status: ('A' for Active; 'I' for Inactive)
REMARK    1  A    between atoms: C_9  and  N_13 
REMARK       I    between atoms: N_13  and  C_14 
REMARK    2  A    between atoms: C_14  and  C_17 
REMARK    3  A    between atoms: C_17  and  N_18 
REMARK    4  A    between atoms: C_20  and  C_23 
ROOT
HETATM    1  N   UNK     0      10.077  -6.505   5.149  0.00  0.00    -0.205 NA
HETATM    2  C   UNK     0      10.157  -5.932   3.911  0.00  0.00     0.281 C 
HETATM    3  O   UNK     0      10.846  -6.552   3.068  0.00  0.00    -0.268 OA
ENDROOT
BRANCH   1   4
HETATM    4  C   UNK     0       9.369  -6.057   6.193  0.00  0.00     0.146 C 
HETATM    5  C   UNK     0       8.114  -6.525   6.394  0.00  0.00     0.162 C 
HETATM    6  C   UNK     0       7.312  -6.017   7.423  0.00  0.00     0.217 C 
HETATM    7  N   UNK     0       7.594  -7.453   5.600  0.00  0.00    -0.143 N 
HETATM    8  C   UNK     0       7.736  -4.869   8.158  0.00  0.00     0.044 A 
HETATM    9  O   UNK     0       6.211  -6.559   7.687  0.00  0.00    -0.285 OA
HETATM   10  C   UNK     0       6.863  -4.158   9.013  0.00  0.00     0.003 A 
HETATM   11  C   UNK     0       9.075  -4.415   7.994  0.00  0.00     0.044 A 
HETATM   12  C   UNK     0       7.309  -3.013   9.698  0.00  0.00     0.000 A 
HETATM   13  C   UNK     0       8.639  -2.583   9.558  0.00  0.00     0.000 A 
HETATM   14  C   UNK     0       9.521  -3.284   8.719  0.00  0.00     0.003 A 
HETATM   15  C   UNK     0       9.918  -5.104   7.068  0.00  0.00     0.215 C 
HETATM   16  O   UNK     0      11.147  -4.850   7.022  0.00  0.00    -0.285 OA
ENDBRANCH   1   4
BRANCH   2  17
HETATM   17  C   UNK     0       9.490  -4.684   3.459  0.00  0.00     0.219 C 
BRANCH  17  18
HETATM   18  N   UNK     0       8.526  -4.934   2.432  0.00  0.00    -0.221 N 
HETATM   19  C   UNK     0       8.441  -4.315   1.244  0.00  0.00     0.114 A 
HETATM   20  C   UNK     0       7.409  -4.928   0.553  0.00  0.00     0.101 A 
HETATM   21  N   UNK     0       6.923  -5.871   1.378  0.00  0.00    -0.133 NA
HETATM   22  N   UNK     0       7.603  -5.845   2.483  0.00  0.00    -0.064 NA
BRANCH  20  23
HETATM   23  C   UNK     0       6.956  -4.623  -0.826  0.00  0.00     0.044 C 
HETATM   24  C   UNK     0       6.523  -5.860  -1.645  0.00  0.00     0.006 C 
HETATM   25  C   UNK     0       6.583  -5.393  -3.111  0.00  0.00     0.000 C 
HETATM   26  C   UNK     0       7.688  -4.314  -3.168  0.00  0.00     0.000 C 
HETATM   27  C   UNK     0       8.036  -3.949  -1.706  0.00  0.00     0.006 C 
ENDBRANCH  20  23
ENDBRANCH  17  18
ENDBRANCH   2  17
TORSDOF 4
ENDMDL
MODEL 4
REMARK VINA RESULT:      -7.5      2.234      5.199
REMARK  4 active torsions:
REMARK  status: ('A' for Active; 'I' for Inactive)
REMARK    1  A    between atoms: C_9  and  N_13 
REMARK       I    between atoms: N_13  and  C_14 
REMARK    2  A    between atoms: C_14  and  C_17 
REMARK    3  A    between atoms: C_17  and  N_18 
REMARK    4  A    between atoms: C_20  and  C_23 
ROOT
HETATM    1  N   UNK     0       8.421  -6.714   4.926  0.00  0.00    -0.205 NA
HETATM    2  C   UNK     0       9.239  -5.637   5.123  0.00  0.00     0.281 C 
HETATM    3  O   UNK     0       9.184  -5.111   6.259  0.00  0.00    -0.268 OA
ENDROOT
BRANCH   1   4
HETATM    4  C   UNK     0       8.336  -7.462   3.820  0.00  0.00     0.146 C 
HETATM    5  C   UNK     0       9.240  -8.451   3.618  0.00  0.00     0.162 C 
HETATM    6  C   UNK     0       9.237  -9.198   2.433  0.00  0.00     0.217 C 
HETATM    7  N   UNK     0      10.178  -8.717   4.519  0.00  0.00    -0.143 N 
HETATM    8  C   UNK     0       8.401  -8.806   1.344  0.00  0.00     0.044 A 
HETATM    9  O   UNK     0       9.983 -10.201   2.321  0.00  0.00    -0.285 OA
HETATM   10  C   UNK     0       8.549  -9.350   0.047  0.00  0.00     0.003 A 
HETATM   11  C   UNK     0       7.409  -7.811   1.575  0.00  0.00     0.044 A 
HETATM   12  C   UNK     0       7.726  -8.917  -1.008  0.00  0.00     0.000 A 
HETATM   13  C   UNK     0       6.728  -7.957  -0.772  0.00  0.00     0.000 A 
HETATM   14  C   UNK     0       6.563  -7.413   0.512  0.00  0.00     0.003 A 
HETATM   15  C   UNK     0       7.326  -7.222   2.873  0.00  0.00     0.215 C 
HETATM   16  O   UNK     0       6.361  -6.474   3.168  0.00  0.00    -0.285 OA
ENDBRANCH   1   4
BRANCH   2  17
HETATM   17  C   UNK     0      10.200  -5.056   4.150  0.00  0.00     0.219 C 
BRANCH  17  18
HETATM   18  N   UNK     0       9.549  -4.614   2.955  0.00  0.00    -0.221 N 
HETATM   19  C   UNK     0       9.943  -4.849   1.694  0.00  0.00     0.114 A 
HETATM   20  C   UNK     0       8.977  -4.294   0.870  0.00  0.00     0.101 A 
HETATM   21  N   UNK     0       8.067  -3.742   1.690  0.00  0.00    -0.133 NA
HETATM   22  N   UNK     0       8.438  -3.945   2.916  0.00  0.00    -0.064 NA
BRANCH  20  23
HETATM   23  C   UNK     0       8.944  -4.331  -0.613  0.00  0.00     0.044 C 
HETATM   24  C   UNK     0       7.522  -4.314  -1.221  0.00  0.00     0.006 C 
HETATM   25  C   UNK     0       7.709  -4.847  -2.653  0.00  0.00     0.000 C 
HETATM   26  C   UNK     0       8.915  -5.810  -2.594  0.00  0.00     0.000 C 
HETATM   27  C   UNK     0       9.599  -5.593  -1.224  0.00  0.00     0.006 C 
ENDBRANCH  20  23
ENDBRANCH  17  18
ENDBRANCH   2  17
TORSDOF 4
ENDMDL
MODEL 5
REMARK VINA RESULT:      -7.4      2.380      8.791
REMARK  4 active torsions:
REMARK  status: ('A' for Active; 'I' for Inactive)
REMARK    1  A    between atoms: C_9  and  N_13 
REMARK       I    between atoms: N_13  and  C_14 
REMARK    2  A    between atoms: C_14  and  C_17 
REMARK    3  A    between atoms: C_17  and  N_18 
REMARK    4  A    between atoms: C_20  and  C_23 
ROOT
HETATM    1  N   UNK     0       9.687  -5.866   2.944  0.00  0.00    -0.205 NA
HETATM    2  C   UNK     0       9.548  -5.230   4.146  0.00  0.00     0.281 C 
HETATM    3  O   UNK     0      10.487  -5.392   4.959  0.00  0.00    -0.268 OA
ENDROOT
BRANCH   1   4
HETATM    4  C   UNK     0       8.844  -5.807   1.907  0.00  0.00     0.146 C 
HETATM    5  C   UNK     0       7.960  -6.816   1.712  0.00  0.00     0.162 C 
HETATM    6  C   UNK     0       7.122  -6.833   0.591  0.00  0.00     0.217 C 
HETATM    7  N   UNK     0       7.889  -7.836   2.558  0.00  0.00    -0.143 N 
HETATM    8  C   UNK     0       7.314  -5.884  -0.459  0.00  0.00     0.044 A 
HETATM    9  O   UNK     0       6.212  -7.693   0.499  0.00  0.00    -0.285 OA
HETATM   10  C   UNK     0       6.685  -6.018  -1.718  0.00  0.00     0.003 A 
HETATM   11  C   UNK     0       8.195  -4.789  -0.231  0.00  0.00     0.044 A 
HETATM   12  C   UNK     0       6.923  -5.079  -2.738  0.00  0.00     0.000 A 
HETATM   13  C   UNK     0       7.769  -3.983  -2.502  0.00  0.00     0.000 A 
HETATM   14  C   UNK     0       8.394  -3.832  -1.254  0.00  0.00     0.003 A 
HETATM   15  C   UNK     0       8.877  -4.715   1.022  0.00  0.00     0.215 C 
HETATM   16  O   UNK     0       9.521  -3.683   1.331  0.00  0.00    -0.285 OA
ENDBRANCH   1   4
BRANCH   2  17
HETATM   17  C   UNK     0       8.428  -4.350   4.566  0.00  0.00     0.219 C 
BRANCH  17  18
HETATM   18  N   UNK     0       8.029  -4.600   5.917  0.00  0.00    -0.221 N 
HETATM   19  C   UNK     0       8.201  -3.782   6.968  0.00  0.00     0.114 A 
HETATM   20  C   UNK     0       7.599  -4.402   8.051  0.00  0.00     0.101 A 
HETATM   21  N   UNK     0       7.116  -5.567   7.587  0.00  0.00    -0.133 NA
HETATM   22  N   UNK     0       7.391  -5.655   6.322  0.00  0.00    -0.064 NA
BRANCH  20  23
HETATM   23  C   UNK     0       7.487  -3.872   9.432  0.00  0.00     0.044 C 
HETATM   24  C   UNK     0       6.037  -3.600   9.897  0.00  0.00     0.006 C 
HETATM   25  C   UNK     0       6.189  -2.632  11.085  0.00  0.00     0.000 C 
HETATM   26  C   UNK     0       7.472  -1.817  10.808  0.00  0.00     0.000 C 
HETATM   27  C   UNK     0       8.209  -2.519   9.644  0.00  0.00     0.006 C 
ENDBRANCH  20  23
ENDBRANCH  17  18
ENDBRANCH   2  17
TORSDOF 4
ENDMDL
MODEL 6
REMARK VINA RESULT:      -7.4      2.123      8.499
REMARK  4 active torsions:
REMARK  status: ('A' for Active; 'I' for Inactive)
REMARK    1  A    between atoms: C_9  and  N_13 
REMARK       I    between atoms: N_13  and  C_14 
REMARK    2  A    between atoms: C_14  and  C_17 
REMARK    3  A    between atoms: C_17  and  N_18 
REMARK    4  A    between atoms: C_20  and  C_23 
ROOT
HETATM    1  N   UNK     0       9.433  -6.808   2.741  0.00  0.00    -0.205 NA
HETATM    2  C   UNK     0       9.082  -6.836   4.062  0.00  0.00     0.281 C 
HETATM    3  O   UNK     0      10.025  -6.993   4.872  0.00  0.00    -0.268 OA
ENDROOT
BRANCH   1   4
HETATM    4  C   UNK     0       8.615  -6.609   1.702  0.00  0.00     0.146 C 
HETATM    5  C   UNK     0       7.965  -7.666   1.157  0.00  0.00     0.162 C 
HETATM    6  C   UNK     0       7.168  -7.511   0.015  0.00  0.00     0.217 C 
HETATM    7  N   UNK     0       8.092  -8.885   1.666  0.00  0.00    -0.143 N 
HETATM    8  C   UNK     0       7.178  -6.275  -0.699  0.00  0.00     0.044 A 
HETATM    9  O   UNK     0       6.460  -8.465  -0.391  0.00  0.00    -0.285 OA
HETATM   10  C   UNK     0       6.613  -6.148  -1.990  0.00  0.00     0.003 A 
HETATM   11  C   UNK     0       7.806  -5.148  -0.098  0.00  0.00     0.044 A 
HETATM   12  C   UNK     0       6.669  -4.921  -2.676  0.00  0.00     0.000 A 
HETATM   13  C   UNK     0       7.262  -3.802  -2.069  0.00  0.00     0.000 A 
HETATM   14  C   UNK     0       7.820  -3.911  -0.785  0.00  0.00     0.003 A 
HETATM   15  C   UNK     0       8.435  -5.319   1.173  0.00  0.00     0.215 C 
HETATM   16  O   UNK     0       8.845  -4.320   1.815  0.00  0.00    -0.285 OA
ENDBRANCH   1   4
BRANCH   2  17
HETATM   17  C   UNK     0       7.720  -6.665   4.628  0.00  0.00     0.219 C 
BRANCH  17  18
HETATM   18  N   UNK     0       7.666  -5.601   5.582  0.00  0.00    -0.221 N 
HETATM   19  C   UNK     0       7.685  -5.720   6.919  0.00  0.00     0.114 A 
HETATM   20  C   UNK     0       7.687  -4.432   7.429  0.00  0.00     0.101 A 
HETATM   21  N   UNK     0       7.652  -3.614   6.364  0.00  0.00    -0.133 NA
HETATM   22  N   UNK     0       7.635  -4.337   5.287  0.00  0.00    -0.064 NA
BRANCH  20  23
HETATM   23  C   UNK     0       7.747  -4.040   8.859  0.00  0.00     0.044 C 
HETATM   24  C   UNK     0       6.367  -3.820   9.520  0.00  0.00     0.006 C 
HETATM   25  C   UNK     0       6.669  -2.974  10.770  0.00  0.00     0.000 C 
HETATM   26  C   UNK     0       7.916  -2.132  10.423  0.00  0.00     0.000 C 
HETATM   27  C   UNK     0       8.502  -2.713   9.115  0.00  0.00     0.006 C 
ENDBRANCH  20  23
ENDBRANCH  17  18
ENDBRANCH   2  17
TORSDOF 4
ENDMDL
MODEL 7
REMARK VINA RESULT:      -7.3      2.265      3.564
REMARK  4 active torsions:
REMARK  status: ('A' for Active; 'I' for Inactive)
REMARK    1  A    between atoms: C_9  and  N_13 
REMARK       I    between atoms: N_13  and  C_14 
REMARK    2  A    between atoms: C_14  and  C_17 
REMARK    3  A    between atoms: C_17  and  N_18 
REMARK    4  A    between atoms: C_20  and  C_23 
ROOT
HETATM    1  N   UNK     0       7.198  -6.144   5.798  0.00  0.00    -0.205 NA
HETATM    2  C   UNK     0       7.438  -6.215   4.454  0.00  0.00     0.281 C 
HETATM    3  O   UNK     0       6.462  -6.551   3.744  0.00  0.00    -0.268 OA
ENDROOT
BRANCH   1   4
HETATM    4  C   UNK     0       8.065  -5.768   6.745  0.00  0.00     0.146 C 
HETATM    5  C   UNK     0       8.907  -6.687   7.278  0.00  0.00     0.162 C 
HETATM    6  C   UNK     0       9.767  -6.351   8.331  0.00  0.00     0.217 C 
HETATM    7  N   UNK     0       8.915  -7.941   6.842  0.00  0.00    -0.143 N 
HETATM    8  C   UNK     0       9.639  -5.088   8.982  0.00  0.00     0.044 A 
HETATM    9  O   UNK     0      10.639  -7.169   8.714  0.00  0.00    -0.285 OA
HETATM   10  C   UNK     0      10.287  -4.803  10.206  0.00  0.00     0.003 A 
HETATM   11  C   UNK     0       8.803  -4.100   8.389  0.00  0.00     0.044 A 
HETATM   12  C   UNK     0      10.113  -3.556  10.834  0.00  0.00     0.000 A 
HETATM   13  C   UNK     0       9.312  -2.572  10.233  0.00  0.00     0.000 A 
HETATM   14  C   UNK     0       8.668  -2.837   9.013  0.00  0.00     0.003 A 
HETATM   15  C   UNK     0       8.099  -4.435   7.192  0.00  0.00     0.215 C 
HETATM   16  O   UNK     0       7.494  -3.546   6.544  0.00  0.00    -0.285 OA
ENDBRANCH   1   4
BRANCH   2  17
HETATM   17  C   UNK     0       8.712  -5.906   3.757  0.00  0.00     0.219 C 
BRANCH  17  18
HETATM   18  N   UNK     0       8.490  -5.361   2.453  0.00  0.00    -0.221 N 
HETATM   19  C   UNK     0       8.560  -6.021   1.286  0.00  0.00     0.114 A 
HETATM   20  C   UNK     0       8.201  -5.116   0.300  0.00  0.00     0.101 A 
HETATM   21  N   UNK     0       7.954  -3.958   0.935  0.00  0.00    -0.133 NA
HETATM   22  N   UNK     0       8.138  -4.136   2.207  0.00  0.00    -0.064 NA
BRANCH  20  23
HETATM   23  C   UNK     0       8.086  -5.383  -1.155  0.00  0.00     0.044 C 
HETATM   24  C   UNK     0       7.930  -4.116  -2.027  0.00  0.00     0.006 C 
HETATM   25  C   UNK     0       7.347  -4.632  -3.355  0.00  0.00     0.000 C 
HETATM   26  C   UNK     0       6.513  -5.882  -2.996  0.00  0.00     0.000 C 
HETATM   27  C   UNK     0       6.866  -6.255  -1.537  0.00  0.00     0.006 C 
ENDBRANCH  20  23
ENDBRANCH  17  18
ENDBRANCH   2  17
TORSDOF 4
ENDMDL
MODEL 8
REMARK VINA RESULT:      -7.3      2.632      8.769
REMARK  4 active torsions:
REMARK  status: ('A' for Active; 'I' for Inactive)
REMARK    1  A    between atoms: C_9  and  N_13 
REMARK       I    between atoms: N_13  and  C_14 
REMARK    2  A    between atoms: C_14  and  C_17 
REMARK    3  A    between atoms: C_17  and  N_18 
REMARK    4  A    between atoms: C_20  and  C_23 
ROOT
HETATM    1  N   UNK     0      10.148  -6.047   3.915  0.00  0.00    -0.205 NA
HETATM    2  C   UNK     0       9.915  -5.969   5.259  0.00  0.00     0.281 C 
HETATM    3  O   UNK     0      10.862  -5.529   5.951  0.00  0.00    -0.268 OA
ENDROOT
BRANCH   1   4
HETATM    4  C   UNK     0       9.280  -6.440   2.975  0.00  0.00     0.146 C 
HETATM    5  C   UNK     0       9.179  -7.758   2.675  0.00  0.00     0.162 C 
HETATM    6  C   UNK     0       8.347  -8.199   1.638  0.00  0.00     0.217 C 
HETATM    7  N   UNK     0       9.893  -8.666   3.329  0.00  0.00    -0.143 N 
HETATM    8  C   UNK     0       7.735  -7.252   0.762  0.00  0.00     0.044 A 
HETATM    9  O   UNK     0       8.153  -9.427   1.467  0.00  0.00    -0.285 OA
HETATM   10  C   UNK     0       7.112  -7.639  -0.447  0.00  0.00     0.003 A 
HETATM   11  C   UNK     0       7.787  -5.872   1.111  0.00  0.00     0.044 A 
HETATM   12  C   UNK     0       6.547  -6.673  -1.300  0.00  0.00     0.000 A 
HETATM   13  C   UNK     0       6.573  -5.316  -0.941  0.00  0.00     0.000 A 
HETATM   14  C   UNK     0       7.181  -4.917   0.261  0.00  0.00     0.003 A 
HETATM   15  C   UNK     0       8.487  -5.498   2.299  0.00  0.00     0.215 C 
HETATM   16  O   UNK     0       8.408  -4.322   2.734  0.00  0.00    -0.285 OA
ENDBRANCH   1   4
BRANCH   2  17
HETATM   17  C   UNK     0       8.657  -6.316   5.969  0.00  0.00     0.219 C 
BRANCH  17  18
HETATM   18  N   UNK     0       8.123  -5.200   6.687  0.00  0.00    -0.221 N 
HETATM   19  C   UNK     0       8.026  -5.076   8.021  0.00  0.00     0.114 A 
HETATM   20  C   UNK     0       7.518  -3.810   8.263  0.00  0.00     0.101 A 
HETATM   21  N   UNK     0       7.323  -3.255   7.055  0.00  0.00    -0.133 NA
HETATM   22  N   UNK     0       7.686  -4.104   6.144  0.00  0.00    -0.064 NA
BRANCH  20  23
HETATM   23  C   UNK     0       7.270  -3.189   9.587  0.00  0.00     0.044 C 
HETATM   24  C   UNK     0       8.245  -3.641  10.698  0.00  0.00     0.006 C 
HETATM   25  C   UNK     0       7.522  -3.289  12.011  0.00  0.00     0.000 C 
HETATM   26  C   UNK     0       6.012  -3.391  11.706  0.00  0.00     0.000 C 
HETATM   27  C   UNK     0       5.869  -3.494  10.169  0.00  0.00     0.006 C 
ENDBRANCH  20  23
ENDBRANCH  17  18
ENDBRANCH   2  17
TORSDOF 4
ENDMDL
MODEL 9
REMARK VINA RESULT:      -7.2      4.571      6.853
REMARK  4 active torsions:
REMARK  status: ('A' for Active; 'I' for Inactive)
REMARK    1  A    between atoms: C_9  and  N_13 
REMARK       I    between atoms: N_13  and  C_14 
REMARK    2  A    between atoms: C_14  and  C_17 
REMARK    3  A    between atoms: C_17  and  N_18 
REMARK    4  A    between atoms: C_20  and  C_23 
ROOT
HETATM    1  N   UNK     0       7.480  -4.978   9.683  0.00  0.00    -0.205 NA
HETATM    2  C   UNK     0       7.539  -3.616   9.585  0.00  0.00     0.281 C 
HETATM    3  O   UNK     0       6.732  -2.982  10.304  0.00  0.00    -0.268 OA
ENDROOT
BRANCH   1   4
HETATM    4  C   UNK     0       8.265  -5.859   9.053  0.00  0.00     0.146 C 
HETATM    5  C   UNK     0       9.527  -6.064   9.502  0.00  0.00     0.162 C 
HETATM    6  C   UNK     0      10.406  -6.913   8.817  0.00  0.00     0.217 C 
HETATM    7  N   UNK     0       9.980  -5.439  10.582  0.00  0.00    -0.143 N 
HETATM    8  C   UNK     0      10.047  -7.429   7.536  0.00  0.00     0.044 A 
HETATM    9  O   UNK     0      11.518  -7.205   9.322  0.00  0.00    -0.285 OA
HETATM   10  C   UNK     0      10.987  -8.062   6.689  0.00  0.00     0.003 A 
HETATM   11  C   UNK     0       8.704  -7.269   7.091  0.00  0.00     0.044 A 
HETATM   12  C   UNK     0      10.602  -8.531   5.420  0.00  0.00     0.000 A 
HETATM   13  C   UNK     0       9.271  -8.399   4.995  0.00  0.00     0.000 A 
HETATM   14  C   UNK     0       8.324  -7.780   5.828  0.00  0.00     0.003 A 
HETATM   15  C   UNK     0       7.791  -6.561   7.931  0.00  0.00     0.215 C 
HETATM   16  O   UNK     0       6.564  -6.548   7.661  0.00  0.00    -0.285 OA
ENDBRANCH   1   4
BRANCH   2  17
HETATM   17  C   UNK     0       8.475  -2.821   8.749  0.00  0.00     0.219 C 
BRANCH  17  18
HETATM   18  N   UNK     0       8.408  -3.193   7.370  0.00  0.00    -0.221 N 
HETATM   19  C   UNK     0       9.447  -3.412   6.547  0.00  0.00     0.114 A 
HETATM   20  C   UNK     0       8.911  -3.815   5.335  0.00  0.00     0.101 A 
HETATM   21  N   UNK     0       7.577  -3.797   5.498  0.00  0.00    -0.133 NA
HETATM   22  N   UNK     0       7.313  -3.420   6.711  0.00  0.00    -0.064 NA
BRANCH  20  23
HETATM   23  C   UNK     0       9.660  -4.214   4.118  0.00  0.00     0.044 C 
HETATM   24  C   UNK     0       8.903  -5.195   3.194  0.00  0.00     0.006 C 
HETATM   25  C   UNK     0      10.003  -5.829   2.323  0.00  0.00     0.000 C 
HETATM   26  C   UNK     0      11.283  -5.831   3.188  0.00  0.00     0.000 C 
HETATM   27  C   UNK     0      10.999  -4.932   4.414  0.00  0.00     0.006 C 
ENDBRANCH  20  23
ENDBRANCH  17  18
ENDBRANCH   2  17
TORSDOF 4
ENDMDL
