MODEL 1
REMARK VINA RESULT:      -7.8      0.000      0.000
REMARK  5 active torsions:
REMARK  status: ('A' for Active; 'I' for Inactive)
REMARK    1  A    between atoms: C_9  and  N_13 
REMARK       I    between atoms: N_13  and  C_14 
REMARK    2  A    between atoms: C_14  and  C_17 
REMARK    3  A    between atoms: C_17  and  N_18 
REMARK    4  A    between atoms: C_20  and  C_23 
REMARK    5  A    between atoms: C_23  and  C_24 
ROOT
HETATM    1  N   UNK     0       9.453  -7.866   4.048  0.00  0.00    -0.205 NA
HETATM    2  C   UNK     0       8.690  -8.037   5.167  0.00  0.00     0.281 C 
HETATM    3  O   UNK     0       9.167  -8.799   6.038  0.00  0.00    -0.268 OA
ENDROOT
BRANCH   2   4
HETATM    4  C   UNK     0       7.391  -7.379   5.463  0.00  0.00     0.219 C 
BRANCH   4   5
HETATM    5  N   UNK     0       7.585  -6.062   5.989  0.00  0.00    -0.221 N 
HETATM    6  C   UNK     0       8.192  -5.729   7.143  0.00  0.00     0.114 A 
HETATM    7  C   UNK     0       8.171  -4.342   7.206  0.00  0.00     0.101 A 
HETATM    8  N   UNK     0       7.533  -3.929   6.099  0.00  0.00    -0.133 NA
HETATM    9  N   UNK     0       7.204  -4.971   5.399  0.00  0.00    -0.064 NA
BRANCH   7  10
HETATM   10  C   UNK     0       8.735  -3.459   8.253  0.00  0.00     0.049 C 
BRANCH  10  11
HETATM   11  C   UNK     0       7.673  -2.827   9.215  0.00  0.00     0.006 C 
HETATM   12  C   UNK     0       8.359  -2.219  10.484  0.00  0.00     0.000 C 
HETATM   13  C   UNK     0       7.344  -1.627  11.501  0.00  0.00     0.000 C 
HETATM   14  C   UNK     0       6.262  -2.661  11.903  0.00  0.00     0.000 C 
HETATM   15  C   UNK     0       5.554  -3.251  10.657  0.00  0.00     0.000 C 
HETATM   16  C   UNK     0       6.572  -3.850   9.649  0.00  0.00     0.000 C 
ENDBRANCH  10  11
ENDBRANCH   7  10
ENDBRANCH   4   5
ENDBRANCH   2   4
BRANCH   1  17
HETATM   17  C   UNK     0       9.172  -7.080   3.001  0.00  0.00     0.146 C 
HETATM   18  C   UNK     0       9.671  -5.820   2.974  0.00  0.00     0.162 C 
HETATM   19  C   UNK     0       9.376  -4.948   1.919  0.00  0.00     0.217 C 
HETATM   20  N   UNK     0      10.432  -5.364   3.962  0.00  0.00    -0.143 N 
HETATM   21  C   UNK     0       8.396  -5.312   0.948  0.00  0.00     0.044 A 
HETATM   22  O   UNK     0       9.964  -3.842   1.835  0.00  0.00    -0.285 OA
HETATM   23  C   UNK     0       7.887  -4.377   0.014  0.00  0.00     0.003 A 
HETATM   24  C   UNK     0       7.906  -6.649   0.943  0.00  0.00     0.044 A 
HETATM   25  C   UNK     0       6.917  -4.766  -0.925  0.00  0.00     0.000 A 
HETATM   26  C   UNK     0       6.458  -6.094  -0.953  0.00  0.00     0.000 A 
HETATM   27  C   UNK     0       6.954  -7.033  -0.032  0.00  0.00     0.003 A 
HETATM   28  C   UNK     0       8.379  -7.555   1.942  0.00  0.00     0.215 C 
HETATM   29  O   UNK     0       8.076  -8.772   1.891  0.00  0.00    -0.285 OA
ENDBRANCH   1  17
TORSDOF 5
ENDMDL
MODEL 2
REMARK VINA RESULT:      -7.4      2.275      8.608
REMARK  5 active torsions:
REMARK  status: ('A' for Active; 'I' for Inactive)
REMARK    1  A    between atoms: C_9  and  N_13 
REMARK       I    between atoms: N_13  and  C_14 
REMARK    2  A    between atoms: C_14  and  C_17 
REMARK    3  A    between atoms: C_17  and  N_18 
REMARK    4  A    between atoms: C_20  and  C_23 
REMARK    5  A    between atoms: C_23  and  C_24 
ROOT
HETATM    1  N   UNK     0       9.465  -6.189   7.146  0.00  0.00    -0.205 NA
HETATM    2  C   UNK     0       9.511  -6.257   5.784  0.00  0.00     0.281 C 
HETATM    3  O   UNK     0       9.866  -7.359   5.307  0.00  0.00    -0.268 OA
ENDROOT
BRANCH   2   4
HETATM    4  C   UNK     0       9.143  -5.180   4.829  0.00  0.00     0.219 C 
BRANCH   4   5
HETATM    5  N   UNK     0       8.299  -5.678   3.785  0.00  0.00    -0.221 N 
HETATM    6  C   UNK     0       8.665  -6.013   2.534  0.00  0.00     0.114 A 
HETATM    7  C   UNK     0       7.517  -6.476   1.906  0.00  0.00     0.101 A 
HETATM    8  N   UNK     0       6.529  -6.370   2.808  0.00  0.00    -0.133 NA
HETATM    9  N   UNK     0       7.026  -5.900   3.911  0.00  0.00    -0.064 NA
BRANCH   7  10
HETATM   10  C   UNK     0       7.369  -7.001   0.528  0.00  0.00     0.049 C 
BRANCH  10  11
HETATM   11  C   UNK     0       6.911  -5.940  -0.528  0.00  0.00     0.006 C 
HETATM   12  C   UNK     0       6.754  -6.591  -1.943  0.00  0.00     0.000 C 
HETATM   13  C   UNK     0       6.353  -5.569  -3.043  0.00  0.00     0.000 C 
HETATM   14  C   UNK     0       7.331  -4.367  -3.096  0.00  0.00     0.000 C 
HETATM   15  C   UNK     0       7.475  -3.695  -1.707  0.00  0.00     0.000 C 
HETATM   16  C   UNK     0       7.884  -4.718  -0.614  0.00  0.00     0.000 C 
ENDBRANCH  10  11
ENDBRANCH   7  10
ENDBRANCH   4   5
ENDBRANCH   2   4
BRANCH   1  17
HETATM   17  C   UNK     0       9.087  -5.136   7.881  0.00  0.00     0.146 C 
HETATM   18  C   UNK     0      10.024  -4.236   8.269  0.00  0.00     0.162 C 
HETATM   19  C   UNK     0       9.684  -3.138   9.070  0.00  0.00     0.217 C 
HETATM   20  N   UNK     0      11.298  -4.383   7.927  0.00  0.00    -0.143 N 
HETATM   21  C   UNK     0       8.380  -3.052   9.641  0.00  0.00     0.044 A 
HETATM   22  O   UNK     0      10.530  -2.238   9.293  0.00  0.00    -0.285 OA
HETATM   23  C   UNK     0       8.065  -2.103  10.645  0.00  0.00     0.003 A 
HETATM   24  C   UNK     0       7.379  -3.964   9.200  0.00  0.00     0.044 A 
HETATM   25  C   UNK     0       6.772  -2.048  11.193  0.00  0.00     0.000 A 
HETATM   26  C   UNK     0       5.777  -2.926  10.733  0.00  0.00     0.000 A 
HETATM   27  C   UNK     0       6.073  -3.873   9.737  0.00  0.00     0.003 A 
HETATM   28  C   UNK     0       7.740  -4.961   8.241  0.00  0.00     0.215 C 
HETATM   29  O   UNK     0       6.860  -5.695   7.727  0.00  0.00    -0.285 OA
ENDBRANCH   1  17
TORSDOF 5
ENDMDL
MODEL 3
REMARK VINA RESULT:      -7.4      1.400      2.616
REMARK  5 active torsions:
REMARK  status: ('A' for Active; 'I' for Inactive)
REMARK    1  A    between atoms: C_9  and  N_13 
REMARK       I    between atoms: N_13  and  C_14 
REMARK    2  A    between atoms: C_14  and  C_17 
REMARK    3  A    between atoms: C_17  and  N_18 
REMARK    4  A    between atoms: C_20  and  C_23 
REMARK    5  A    between atoms: C_23  and  C_24 
ROOT
HETATM    1  N   UNK     0       9.331  -6.767   2.499  0.00  0.00    -0.205 NA
HETATM    2  C   UNK     0       8.909  -6.757   3.797  0.00  0.00     0.281 C 
HETATM    3  O   UNK     0       9.802  -6.913   4.660  0.00  0.00    -0.268 OA
ENDROOT
BRANCH   2   4
HETATM    4  C   UNK     0       7.520  -6.537   4.276  0.00  0.00     0.219 C 
BRANCH   4   5
HETATM    5  N   UNK     0       7.503  -5.768   5.483  0.00  0.00    -0.221 N 
HETATM    6  C   UNK     0       7.541  -6.234   6.744  0.00  0.00     0.114 A 
HETATM    7  C   UNK     0       7.542  -5.118   7.570  0.00  0.00     0.101 A 
HETATM    8  N   UNK     0       7.481  -4.052   6.756  0.00  0.00    -0.133 NA
HETATM    9  N   UNK     0       7.465  -4.471   5.528  0.00  0.00    -0.064 NA
BRANCH   7  10
HETATM   10  C   UNK     0       7.608  -5.067   9.049  0.00  0.00     0.049 C 
BRANCH  10  11
HETATM   11  C   UNK     0       7.245  -3.676   9.670  0.00  0.00     0.006 C 
HETATM   12  C   UNK     0       8.537  -2.856  10.001  0.00  0.00     0.000 C 
HETATM   13  C   UNK     0       8.235  -1.487  10.673  0.00  0.00     0.000 C 
HETATM   14  C   UNK     0       7.347  -1.648  11.933  0.00  0.00     0.000 C 
HETATM   15  C   UNK     0       6.051  -2.433  11.614  0.00  0.00     0.000 C 
HETATM   16  C   UNK     0       6.358  -3.804  10.952  0.00  0.00     0.000 C 
ENDBRANCH  10  11
ENDBRANCH   7  10
ENDBRANCH   4   5
ENDBRANCH   2   4
BRANCH   1  17
HETATM   17  C   UNK     0       8.572  -6.589   1.410  0.00  0.00     0.146 C 
HETATM   18  C   UNK     0       7.954  -7.662   0.857  0.00  0.00     0.162 C 
HETATM   19  C   UNK     0       7.181  -7.532  -0.302  0.00  0.00     0.217 C 
HETATM   20  N   UNK     0       8.088  -8.873   1.382  0.00  0.00    -0.143 N 
HETATM   21  C   UNK     0       7.181  -6.301  -1.024  0.00  0.00     0.044 A 
HETATM   22  O   UNK     0       6.497  -8.502  -0.713  0.00  0.00    -0.285 OA
HETATM   23  C   UNK     0       6.619  -6.195  -2.320  0.00  0.00     0.003 A 
HETATM   24  C   UNK     0       7.786  -5.160  -0.425  0.00  0.00     0.044 A 
HETATM   25  C   UNK     0       6.642  -4.969  -3.007  0.00  0.00     0.000 A 
HETATM   26  C   UNK     0       7.209  -3.835  -2.402  0.00  0.00     0.000 A 
HETATM   27  C   UNK     0       7.771  -3.925  -1.117  0.00  0.00     0.003 A 
HETATM   28  C   UNK     0       8.412  -5.309   0.851  0.00  0.00     0.215 C 
HETATM   29  O   UNK     0       8.837  -4.303   1.472  0.00  0.00    -0.285 OA
ENDBRANCH   1  17
TORSDOF 5
ENDMDL
MODEL 4
REMARK VINA RESULT:      -7.2      2.961      8.990
REMARK  5 active torsions:
REMARK  status: ('A' for Active; 'I' for Inactive)
REMARK    1  A    between atoms: C_9  and  N_13 
REMARK       I    between atoms: N_13  and  C_14 
REMARK    2  A    between atoms: C_14  and  C_17 
REMARK    3  A    between atoms: C_17  and  N_18 
REMARK    4  A    between atoms: C_20  and  C_23 
REMARK    5  A    between atoms: C_23  and  C_24 
ROOT
HETATM    1  N   UNK     0       9.114  -7.083   2.930  0.00  0.00    -0.205 NA
HETATM    2  C   UNK     0       8.311  -7.514   1.914  0.00  0.00     0.281 C 
HETATM    3  O   UNK     0       8.810  -8.374   1.153  0.00  0.00    -0.268 OA
ENDROOT
BRANCH   2   4
HETATM    4  C   UNK     0       6.907  -7.100   1.658  0.00  0.00     0.219 C 
BRANCH   4   5
HETATM    5  N   UNK     0       6.810  -6.299   0.475  0.00  0.00    -0.221 N 
HETATM    6  C   UNK     0       6.625  -6.730  -0.786  0.00  0.00     0.114 A 
HETATM    7  C   UNK     0       6.560  -5.592  -1.579  0.00  0.00     0.101 A 
HETATM    8  N   UNK     0       6.733  -4.551  -0.751  0.00  0.00    -0.133 NA
HETATM    9  N   UNK     0       6.873  -5.002   0.458  0.00  0.00    -0.064 NA
BRANCH   7  10
HETATM   10  C   UNK     0       6.335  -5.500  -3.040  0.00  0.00     0.049 C 
BRANCH  10  11
HETATM   11  C   UNK     0       7.540  -4.914  -3.850  0.00  0.00     0.006 C 
HETATM   12  C   UNK     0       7.336  -5.126  -5.388  0.00  0.00     0.000 C 
HETATM   13  C   UNK     0       8.532  -4.611  -6.237  0.00  0.00     0.000 C 
HETATM   14  C   UNK     0       9.877  -5.224  -5.770  0.00  0.00     0.000 C 
HETATM   15  C   UNK     0      10.105  -4.997  -4.254  0.00  0.00     0.000 C 
HETATM   16  C   UNK     0       8.912  -5.522  -3.410  0.00  0.00     0.000 C 
ENDBRANCH  10  11
ENDBRANCH   7  10
ENDBRANCH   4   5
ENDBRANCH   2   4
BRANCH   1  17
HETATM   17  C   UNK     0       8.794  -6.199   3.883  0.00  0.00     0.146 C 
HETATM   18  C   UNK     0       9.137  -4.898   3.714  0.00  0.00     0.162 C 
HETATM   19  C   UNK     0       8.856  -3.944   4.699  0.00  0.00     0.217 C 
HETATM   20  N   UNK     0       9.775  -4.495   2.622  0.00  0.00    -0.143 N 
HETATM   21  C   UNK     0       8.370  -4.358   5.974  0.00  0.00     0.044 A 
HETATM   22  O   UNK     0       9.044  -2.725   4.463  0.00  0.00    -0.285 OA
HETATM   23  C   UNK     0       8.305  -3.469   7.075  0.00  0.00     0.003 A 
HETATM   24  C   UNK     0       7.963  -5.713   6.141  0.00  0.00     0.044 A 
HETATM   25  C   UNK     0       7.827  -3.911   8.320  0.00  0.00     0.000 A 
HETATM   26  C   UNK     0       7.393  -5.238   8.475  0.00  0.00     0.000 A 
HETATM   27  C   UNK     0       7.452  -6.133   7.393  0.00  0.00     0.003 A 
HETATM   28  C   UNK     0       8.107  -6.611   5.038  0.00  0.00     0.215 C 
HETATM   29  O   UNK     0       7.637  -7.773   5.100  0.00  0.00    -0.285 OA
ENDBRANCH   1  17
TORSDOF 5
ENDMDL
MODEL 5
REMARK VINA RESULT:      -7.2      1.870      3.332
REMARK  5 active torsions:
REMARK  status: ('A' for Active; 'I' for Inactive)
REMARK    1  A    between atoms: C_9  and  N_13 
REMARK       I    between atoms: N_13  and  C_14 
REMARK    2  A    between atoms: C_14  and  C_17 
REMARK    3  A    between atoms: C_17  and  N_18 
REMARK    4  A    between atoms: C_20  and  C_23 
REMARK    5  A    between atoms: C_23  and  C_24 
ROOT
HETATM    1  N   UNK     0      10.783  -5.933   2.018  0.00  0.00    -0.205 NA
HETATM    2  C   UNK     0      11.039  -5.247   3.170  0.00  0.00     0.281 C 
HETATM    3  O   UNK     0      12.150  -5.472   3.700  0.00  0.00    -0.268 OA
ENDROOT
BRANCH   2   4
HETATM    4  C   UNK     0      10.156  -4.243   3.818  0.00  0.00     0.219 C 
BRANCH   4   5
HETATM    5  N   UNK     0       9.118  -4.874   4.573  0.00  0.00    -0.221 N 
HETATM    6  C   UNK     0       9.265  -5.695   5.629  0.00  0.00     0.114 A 
HETATM    7  C   UNK     0       7.983  -6.024   6.047  0.00  0.00     0.101 A 
HETATM    8  N   UNK     0       7.145  -5.400   5.203  0.00  0.00    -0.133 NA
HETATM    9  N   UNK     0       7.849  -4.724   4.347  0.00  0.00    -0.064 NA
BRANCH   7  10
HETATM   10  C   UNK     0       7.575  -6.873   7.190  0.00  0.00     0.049 C 
BRANCH  10  11
HETATM   11  C   UNK     0       7.822  -6.234   8.598  0.00  0.00     0.006 C 
HETATM   12  C   UNK     0       7.323  -4.750   8.633  0.00  0.00     0.000 C 
HETATM   13  C   UNK     0       7.595  -4.048   9.993  0.00  0.00     0.000 C 
HETATM   14  C   UNK     0       9.088  -4.137  10.398  0.00  0.00     0.000 C 
HETATM   15  C   UNK     0       9.588  -5.603  10.395  0.00  0.00     0.000 C 
HETATM   16  C   UNK     0       9.324  -6.297   9.032  0.00  0.00     0.000 C 
ENDBRANCH  10  11
ENDBRANCH   7  10
ENDBRANCH   4   5
ENDBRANCH   2   4
BRANCH   1  17
HETATM   17  C   UNK     0       9.685  -5.837   1.257  0.00  0.00     0.146 C 
HETATM   18  C   UNK     0       8.673  -6.718   1.452  0.00  0.00     0.162 C 
HETATM   19  C   UNK     0       7.521  -6.681   0.657  0.00  0.00     0.217 C 
HETATM   20  N   UNK     0       8.755  -7.660   2.383  0.00  0.00    -0.143 N 
HETATM   21  C   UNK     0       7.474  -5.834  -0.490  0.00  0.00     0.044 A 
HETATM   22  O   UNK     0       6.535  -7.402   0.947  0.00  0.00    -0.285 OA
HETATM   23  C   UNK     0       6.443  -5.940  -1.456  0.00  0.00     0.003 A 
HETATM   24  C   UNK     0       8.511  -4.875  -0.672  0.00  0.00     0.044 A 
HETATM   25  C   UNK     0       6.430  -5.095  -2.578  0.00  0.00     0.000 A 
HETATM   26  C   UNK     0       7.434  -4.126  -2.740  0.00  0.00     0.000 A 
HETATM   27  C   UNK     0       8.464  -4.008  -1.790  0.00  0.00     0.003 A 
HETATM   28  C   UNK     0       9.580  -4.837   0.276  0.00  0.00     0.215 C 
HETATM   29  O   UNK     0      10.439  -3.922   0.228  0.00  0.00    -0.285 OA
ENDBRANCH   1  17
TORSDOF 5
ENDMDL
MODEL 6
REMARK VINA RESULT:      -7.1      3.007      5.490
REMARK  5 active torsions:
REMARK  status: ('A' for Active; 'I' for Inactive)
REMARK    1  A    between atoms: C_9  and  N_13 
REMARK       I    between atoms: N_13  and  C_14 
REMARK    2  A    between atoms: C_14  and  C_17 
REMARK    3  A    between atoms: C_17  and  N_18 
REMARK    4  A    between atoms: C_20  and  C_23 
REMARK    5  A    between atoms: C_23  and  C_24 
ROOT
HETATM    1  N   UNK     0       7.712  -4.288  -0.447  0.00  0.00    -0.205 NA
HETATM    2  C   UNK     0       6.982  -5.408  -0.725  0.00  0.00     0.281 C 
HETATM    3  O   UNK     0       5.852  -5.209  -1.227  0.00  0.00    -0.268 OA
ENDROOT
BRANCH   2   4
HETATM    4  C   UNK     0       7.413  -6.817  -0.534  0.00  0.00     0.219 C 
BRANCH   4   5
HETATM    5  N   UNK     0       7.642  -7.106   0.849  0.00  0.00    -0.221 N 
HETATM    6  C   UNK     0       6.766  -6.978   1.863  0.00  0.00     0.114 A 
HETATM    7  C   UNK     0       7.428  -7.411   3.004  0.00  0.00     0.101 A 
HETATM    8  N   UNK     0       8.665  -7.750   2.611  0.00  0.00    -0.133 NA
HETATM    9  N   UNK     0       8.758  -7.563   1.330  0.00  0.00    -0.064 NA
BRANCH   7  10
HETATM   10  C   UNK     0       6.909  -7.508   4.388  0.00  0.00     0.049 C 
BRANCH  10  11
HETATM   11  C   UNK     0       7.776  -6.769   5.463  0.00  0.00     0.006 C 
HETATM   12  C   UNK     0       7.344  -7.181   6.910  0.00  0.00     0.000 C 
HETATM   13  C   UNK     0       8.137  -6.434   8.019  0.00  0.00     0.000 C 
HETATM   14  C   UNK     0       8.065  -4.896   7.840  0.00  0.00     0.000 C 
HETATM   15  C   UNK     0       8.516  -4.470   6.420  0.00  0.00     0.000 C 
HETATM   16  C   UNK     0       7.715  -5.212   5.317  0.00  0.00     0.000 C 
ENDBRANCH  10  11
ENDBRANCH   7  10
ENDBRANCH   4   5
ENDBRANCH   2   4
BRANCH   1  17
HETATM   17  C   UNK     0       8.951  -4.246   0.059  0.00  0.00     0.146 C 
HETATM   18  C   UNK     0      10.007  -4.369  -0.783  0.00  0.00     0.162 C 
HETATM   19  C   UNK     0      11.321  -4.368  -0.298  0.00  0.00     0.217 C 
HETATM   20  N   UNK     0       9.827  -4.523  -2.089  0.00  0.00    -0.143 N 
HETATM   21  C   UNK     0      11.561  -4.423   1.107  0.00  0.00     0.044 A 
HETATM   22  O   UNK     0      12.286  -4.332  -1.101  0.00  0.00    -0.285 OA
HETATM   23  C   UNK     0      12.852  -4.670   1.635  0.00  0.00     0.003 A 
HETATM   24  C   UNK     0      10.461  -4.245   1.994  0.00  0.00     0.044 A 
HETATM   25  C   UNK     0      13.053  -4.725   3.025  0.00  0.00     0.000 A 
HETATM   26  C   UNK     0      11.975  -4.515   3.900  0.00  0.00     0.000 A 
HETATM   27  C   UNK     0      10.687  -4.269   3.391  0.00  0.00     0.003 A 
HETATM   28  C   UNK     0       9.156  -4.071   1.438  0.00  0.00     0.215 C 
HETATM   29  O   UNK     0       8.184  -3.778   2.177  0.00  0.00    -0.285 OA
ENDBRANCH   1  17
TORSDOF 5
ENDMDL
MODEL 7
REMARK VINA RESULT:      -7.1      3.114      7.331
REMARK  5 active torsions:
REMARK  status: ('A' for Active; 'I' for Inactive)
REMARK    1  A    between atoms: C_9  and  N_13 
REMARK       I    between atoms: N_13  and  C_14 
REMARK    2  A    between atoms: C_14  and  C_17 
REMARK    3  A    between atoms: C_17  and  N_18 
REMARK    4  A    between atoms: C_20  and  C_23 
REMARK    5  A    between atoms: C_23  and  C_24 
ROOT
HETATM    1  N   UNK     0       7.614  -5.926   5.499  0.00  0.00    -0.205 NA
HETATM    2  C   UNK     0       8.185  -4.693   5.625  0.00  0.00     0.281 C 
HETATM    3  O   UNK     0       7.635  -3.921   6.443  0.00  0.00    -0.268 OA
ENDROOT
BRANCH   2   4
HETATM    4  C   UNK     0       9.403  -4.205   4.929  0.00  0.00     0.219 C 
BRANCH   4   5
HETATM    5  N   UNK     0       9.244  -4.256   3.507  0.00  0.00    -0.221 N 
HETATM    6  C   UNK     0      10.054  -4.861   2.620  0.00  0.00     0.114 A 
HETATM    7  C   UNK     0       9.473  -4.673   1.373  0.00  0.00     0.101 A 
HETATM    8  N   UNK     0       8.363  -3.948   1.585  0.00  0.00    -0.133 NA
HETATM    9  N   UNK     0       8.254  -3.723   2.859  0.00  0.00    -0.064 NA
BRANCH   7  10
HETATM   10  C   UNK     0       9.940  -5.164   0.056  0.00  0.00     0.049 C 
BRANCH  10  11
HETATM   11  C   UNK     0       8.808  -5.341  -1.012  0.00  0.00     0.006 C 
HETATM   12  C   UNK     0       9.127  -6.536  -1.972  0.00  0.00     0.000 C 
HETATM   13  C   UNK     0       8.062  -6.722  -3.088  0.00  0.00     0.000 C 
HETATM   14  C   UNK     0       7.835  -5.415  -3.891  0.00  0.00     0.000 C 
HETATM   15  C   UNK     0       7.491  -4.230  -2.955  0.00  0.00     0.000 C 
HETATM   16  C   UNK     0       8.563  -4.042  -1.848  0.00  0.00     0.000 C 
ENDBRANCH  10  11
ENDBRANCH   7  10
ENDBRANCH   4   5
ENDBRANCH   2   4
BRANCH   1  17
HETATM   17  C   UNK     0       8.038  -6.928   4.718  0.00  0.00     0.146 C 
HETATM   18  C   UNK     0       9.025  -7.739   5.170  0.00  0.00     0.162 C 
HETATM   19  C   UNK     0       9.528  -8.777   4.376  0.00  0.00     0.217 C 
HETATM   20  N   UNK     0       9.566  -7.557   6.368  0.00  0.00    -0.143 N 
HETATM   21  C   UNK     0       9.135  -8.881   3.008  0.00  0.00     0.044 A 
HETATM   22  O   UNK     0      10.333  -9.608   4.864  0.00  0.00    -0.285 OA
HETATM   23  C   UNK     0       9.794  -9.752   2.106  0.00  0.00     0.003 A 
HETATM   24  C   UNK     0       8.065  -8.065   2.542  0.00  0.00     0.044 A 
HETATM   25  C   UNK     0       9.388  -9.825   0.763  0.00  0.00     0.000 A 
HETATM   26  C   UNK     0       8.310  -9.045   0.311  0.00  0.00     0.000 A 
HETATM   27  C   UNK     0       7.646  -8.176   1.195  0.00  0.00     0.003 A 
HETATM   28  C   UNK     0       7.465  -7.140   3.452  0.00  0.00     0.215 C 
HETATM   29  O   UNK     0       6.436  -6.502   3.122  0.00  0.00    -0.285 OA
ENDBRANCH   1  17
TORSDOF 5
ENDMDL
MODEL 8
REMARK VINA RESULT:      -7.0      3.824      5.923
REMARK  5 active torsions:
REMARK  status: ('A' for Active; 'I' for Inactive)
REMARK    1  A    between atoms: C_9  and  N_13 
REMARK       I    between atoms: N_13  and  C_14 
REMARK    2  A    between atoms: C_14  and  C_17 
REMARK    3  A    between atoms: C_17  and  N_18 
REMARK    4  A    between atoms: C_20  and  C_23 
REMARK    5  A    between atoms: C_23  and  C_24 
ROOT
HETATM    1  N   UNK     0       8.103  -4.117   0.231  0.00  0.00    -0.205 NA
HETATM    2  C   UNK     0       7.265  -5.171   0.005  0.00  0.00     0.281 C 
HETATM    3  O   UNK     0       6.196  -4.897  -0.587  0.00  0.00    -0.268 OA
ENDROOT
BRANCH   2   4
HETATM    4  C   UNK     0       7.516  -6.594   0.350  0.00  0.00     0.219 C 
BRANCH   4   5
HETATM    5  N   UNK     0       7.363  -6.822   1.755  0.00  0.00    -0.221 N 
HETATM    6  C   UNK     0       8.123  -7.610   2.538  0.00  0.00     0.114 A 
HETATM    7  C   UNK     0       7.616  -7.482   3.824  0.00  0.00     0.101 A 
HETATM    8  N   UNK     0       6.571  -6.645   3.731  0.00  0.00    -0.133 NA
HETATM    9  N   UNK     0       6.452  -6.268   2.495  0.00  0.00    -0.064 NA
BRANCH   7  10
HETATM   10  C   UNK     0       8.105  -8.111   5.073  0.00  0.00     0.049 C 
BRANCH  10  11
HETATM   11  C   UNK     0       9.534  -7.650   5.520  0.00  0.00     0.006 C 
HETATM   12  C   UNK     0      10.616  -8.702   5.106  0.00  0.00     0.000 C 
HETATM   13  C   UNK     0      12.048  -8.320   5.574  0.00  0.00     0.000 C 
HETATM   14  C   UNK     0      12.101  -8.047   7.099  0.00  0.00     0.000 C 
HETATM   15  C   UNK     0      11.053  -6.986   7.520  0.00  0.00     0.000 C 
HETATM   16  C   UNK     0       9.623  -7.377   7.058  0.00  0.00     0.000 C 
ENDBRANCH  10  11
ENDBRANCH   7  10
ENDBRANCH   4   5
ENDBRANCH   2   4
BRANCH   1  17
HETATM   17  C   UNK     0       9.308  -4.165   0.813  0.00  0.00     0.146 C 
HETATM   18  C   UNK     0      10.407  -4.316   0.034  0.00  0.00     0.162 C 
HETATM   19  C   UNK     0      11.685  -4.408   0.598  0.00  0.00     0.217 C 
HETATM   20  N   UNK     0      10.303  -4.410  -1.286  0.00  0.00    -0.143 N 
HETATM   21  C   UNK     0      11.832  -4.528   2.012  0.00  0.00     0.044 A 
HETATM   22  O   UNK     0      12.700  -4.396  -0.141  0.00  0.00    -0.285 OA
HETATM   23  C   UNK     0      13.071  -4.868   2.609  0.00  0.00     0.003 A 
HETATM   24  C   UNK     0      10.689  -4.322   2.836  0.00  0.00     0.044 A 
HETATM   25  C   UNK     0      13.180  -4.986   4.005  0.00  0.00     0.000 A 
HETATM   26  C   UNK     0      12.061  -4.748   4.819  0.00  0.00     0.000 A 
HETATM   27  C   UNK     0      10.824  -4.410   4.243  0.00  0.00     0.003 A 
HETATM   28  C   UNK     0       9.433  -4.053   2.208  0.00  0.00     0.215 C 
HETATM   29  O   UNK     0       8.434  -3.733   2.898  0.00  0.00    -0.285 OA
ENDBRANCH   1  17
TORSDOF 5
ENDMDL
MODEL 9
REMARK VINA RESULT:      -7.0      1.381      2.694
REMARK  5 active torsions:
REMARK  status: ('A' for Active; 'I' for Inactive)
REMARK    1  A    between atoms: C_9  and  N_13 
REMARK       I    between atoms: N_13  and  C_14 
REMARK    2  A    between atoms: C_14  and  C_17 
REMARK    3  A    between atoms: C_17  and  N_18 
REMARK    4  A    between atoms: C_20  and  C_23 
REMARK    5  A    between atoms: C_23  and  C_24 
ROOT
HETATM    1  N   UNK     0      10.064  -6.027   3.929  0.00  0.00    -0.205 NA
HETATM    2  C   UNK     0       9.765  -5.965   5.259  0.00  0.00     0.281 C 
HETATM    3  O   UNK     0      10.690  -5.575   6.006  0.00  0.00    -0.268 OA
ENDROOT
BRANCH   2   4
HETATM    4  C   UNK     0       8.453  -6.267   5.888  0.00  0.00     0.219 C 
BRANCH   4   5
HETATM    5  N   UNK     0       7.988  -5.165   6.674  0.00  0.00    -0.221 N 
HETATM    6  C   UNK     0       7.817  -5.132   8.008  0.00  0.00     0.114 A 
HETATM    7  C   UNK     0       7.389  -3.847   8.313  0.00  0.00     0.101 A 
HETATM    8  N   UNK     0       7.307  -3.195   7.143  0.00  0.00    -0.133 NA
HETATM    9  N   UNK     0       7.674  -4.000   6.194  0.00  0.00    -0.064 NA
BRANCH   7  10
HETATM   10  C   UNK     0       7.087  -3.269   9.643  0.00  0.00     0.049 C 
BRANCH  10  11
HETATM   11  C   UNK     0       8.053  -2.120  10.090  0.00  0.00     0.006 C 
HETATM   12  C   UNK     0       9.533  -2.626  10.149  0.00  0.00     0.000 C 
HETATM   13  C   UNK     0      10.529  -1.538  10.641  0.00  0.00     0.000 C 
HETATM   14  C   UNK     0      10.098  -0.937  12.003  0.00  0.00     0.000 C 
HETATM   15  C   UNK     0       8.643  -0.407  11.951  0.00  0.00     0.000 C 
HETATM   16  C   UNK     0       7.651  -1.500  11.468  0.00  0.00     0.000 C 
ENDBRANCH  10  11
ENDBRANCH   7  10
ENDBRANCH   4   5
ENDBRANCH   2   4
BRANCH   1  17
HETATM   17  C   UNK     0       9.235  -6.380   2.938  0.00  0.00     0.146 C 
HETATM   18  C   UNK     0       9.119  -7.692   2.616  0.00  0.00     0.162 C 
HETATM   19  C   UNK     0       8.294  -8.107   1.564  0.00  0.00     0.217 C 
HETATM   20  N   UNK     0       9.808  -8.620   3.268  0.00  0.00    -0.143 N 
HETATM   21  C   UNK     0       7.704  -7.139   0.698  0.00  0.00     0.044 A 
HETATM   22  O   UNK     0       8.083  -9.331   1.377  0.00  0.00    -0.285 OA
HETATM   23  C   UNK     0       7.069  -7.509  -0.514  0.00  0.00     0.003 A 
HETATM   24  C   UNK     0       7.781  -5.764   1.059  0.00  0.00     0.044 A 
HETATM   25  C   UNK     0       6.504  -6.530  -1.348  0.00  0.00     0.000 A 
HETATM   26  C   UNK     0       6.550  -5.177  -0.975  0.00  0.00     0.000 A 
HETATM   27  C   UNK     0       7.176  -4.794   0.224  0.00  0.00     0.003 A 
HETATM   28  C   UNK     0       8.491  -5.409   2.248  0.00  0.00     0.215 C 
HETATM   29  O   UNK     0       8.467  -4.227   2.672  0.00  0.00    -0.285 OA
ENDBRANCH   1  17
TORSDOF 5
ENDMDL
