MODEL 1
REMARK VINA RESULT:      -7.3      0.000      0.000
REMARK  6 active torsions:
REMARK  status: ('A' for Active; 'I' for Inactive)
REMARK    1  A    between atoms: C_9  and  N_13 
REMARK       I    between atoms: N_13  and  C_14 
REMARK    2  A    between atoms: C_14  and  C_17 
REMARK    3  A    between atoms: C_17  and  N_18 
REMARK    4  A    between atoms: C_20  and  C_23 
REMARK    5  A    between atoms: C_23  and  C_25 
REMARK    6  A    between atoms: C_25  and  C_26 
ROOT
HETATM    1  N   UNK     0       9.264  -6.860   2.637  0.00  0.00    -0.205 NA
HETATM    2  C   UNK     0       8.897  -6.860   3.952  0.00  0.00     0.281 C 
HETATM    3  O   UNK     0       9.818  -7.055   4.778  0.00  0.00    -0.268 OA
ENDROOT
BRANCH   1   4
HETATM    4  C   UNK     0       8.442  -6.675   1.599  0.00  0.00     0.146 C 
HETATM    5  C   UNK     0       7.879  -7.748   0.995  0.00  0.00     0.162 C 
HETATM    6  C   UNK     0       7.117  -7.586  -0.175  0.00  0.00     0.217 C 
HETATM    7  N   UNK     0       8.078  -8.973   1.482  0.00  0.00    -0.143 N 
HETATM    8  C   UNK     0       7.090  -6.316  -0.840  0.00  0.00     0.044 A 
HETATM    9  O   UNK     0       6.506  -8.567  -0.665  0.00  0.00    -0.285 OA
HETATM   10  C   UNK     0       6.550  -6.151  -2.141  0.00  0.00     0.003 A 
HETATM   11  C   UNK     0       7.659  -5.191  -0.178  0.00  0.00     0.044 A 
HETATM   12  C   UNK     0       6.615  -4.905  -2.789  0.00  0.00     0.000 A 
HETATM   13  C   UNK     0       7.201  -3.803  -2.142  0.00  0.00     0.000 A 
HETATM   14  C   UNK     0       7.712  -3.940  -0.839  0.00  0.00     0.003 A 
HETATM   15  C   UNK     0       8.194  -5.376   1.129  0.00  0.00     0.215 C 
HETATM   16  O   UNK     0       8.466  -4.389   1.854  0.00  0.00    -0.285 OA
ENDBRANCH   1   4
BRANCH   2  17
HETATM   17  C   UNK     0       7.533  -6.624   4.493  0.00  0.00     0.219 C 
BRANCH  17  18
HETATM   18  N   UNK     0       7.549  -5.673   5.558  0.00  0.00    -0.221 N 
HETATM   19  C   UNK     0       7.618  -5.944   6.873  0.00  0.00     0.114 A 
HETATM   20  C   UNK     0       7.598  -4.719   7.525  0.00  0.00     0.101 A 
HETATM   21  N   UNK     0       7.538  -3.789   6.558  0.00  0.00    -0.133 NA
HETATM   22  N   UNK     0       7.514  -4.386   5.406  0.00  0.00    -0.064 NA
BRANCH  20  23
HETATM   23  C   UNK     0       7.601  -4.468   8.990  0.00  0.00     0.044 C 
HETATM   24  C   UNK     0       8.774  -5.230   9.666  0.00  0.00     0.006 C 
BRANCH  23  25
HETATM   25  C   UNK     0       7.654  -2.943   9.319  0.00  0.00     0.006 C 
BRANCH  25  26
HETATM   26  C   UNK     0       6.843  -2.554  10.588  0.00  0.00     0.000 C 
HETATM   27  C   UNK     0       5.503  -3.310  10.713  0.00  0.00     0.000 C 
ENDBRANCH  25  26
ENDBRANCH  23  25
ENDBRANCH  20  23
ENDBRANCH  17  18
ENDBRANCH   2  17
TORSDOF 6
ENDMDL
MODEL 2
REMARK VINA RESULT:      -7.1      1.364      2.604
REMARK  6 active torsions:
REMARK  status: ('A' for Active; 'I' for Inactive)
REMARK    1  A    between atoms: C_9  and  N_13 
REMARK       I    between atoms: N_13  and  C_14 
REMARK    2  A    between atoms: C_14  and  C_17 
REMARK    3  A    between atoms: C_17  and  N_18 
REMARK    4  A    between atoms: C_20  and  C_23 
REMARK    5  A    between atoms: C_23  and  C_25 
REMARK    6  A    between atoms: C_25  and  C_26 
ROOT
HETATM    1  N   UNK     0       9.356  -7.920   3.940  0.00  0.00    -0.205 NA
HETATM    2  C   UNK     0       8.509  -8.001   5.009  0.00  0.00     0.281 C 
HETATM    3  O   UNK     0       8.832  -8.815   5.903  0.00  0.00    -0.268 OA
ENDROOT
BRANCH   1   4
HETATM    4  C   UNK     0       9.196  -7.123   2.880  0.00  0.00     0.146 C 
HETATM    5  C   UNK     0       9.734  -5.880   2.894  0.00  0.00     0.162 C 
HETATM    6  C   UNK     0       9.470  -4.980   1.848  0.00  0.00     0.217 C 
HETATM    7  N   UNK     0      10.485  -5.486   3.922  0.00  0.00    -0.143 N 
HETATM    8  C   UNK     0       8.481  -5.301   0.860  0.00  0.00     0.044 A 
HETATM    9  O   UNK     0      10.061  -3.873   1.810  0.00  0.00    -0.285 OA
HETATM   10  C   UNK     0       7.995  -4.346  -0.067  0.00  0.00     0.003 A 
HETATM   11  C   UNK     0       7.948  -6.621   0.839  0.00  0.00     0.044 A 
HETATM   12  C   UNK     0       6.968  -4.681  -0.967  0.00  0.00     0.000 A 
HETATM   13  C   UNK     0       6.426  -5.978  -0.967  0.00  0.00     0.000 A 
HETATM   14  C   UNK     0       6.918  -6.948  -0.076  0.00  0.00     0.003 A 
HETATM   15  C   UNK     0       8.450  -7.568   1.778  0.00  0.00     0.215 C 
HETATM   16  O   UNK     0       8.214  -8.792   1.640  0.00  0.00    -0.285 OA
ENDBRANCH   1   4
BRANCH   2  17
HETATM   17  C   UNK     0       7.272  -7.204   5.224  0.00  0.00     0.219 C 
BRANCH  17  18
HETATM   18  N   UNK     0       7.548  -5.987   5.917  0.00  0.00    -0.221 N 
HETATM   19  C   UNK     0       8.092  -5.865   7.140  0.00  0.00     0.114 A 
HETATM   20  C   UNK     0       8.161  -4.505   7.403  0.00  0.00     0.101 A 
HETATM   21  N   UNK     0       7.672  -3.894   6.311  0.00  0.00    -0.133 NA
HETATM   22  N   UNK     0       7.321  -4.798   5.449  0.00  0.00    -0.064 NA
BRANCH  20  23
HETATM   23  C   UNK     0       8.637  -3.842   8.646  0.00  0.00     0.044 C 
HETATM   24  C   UNK     0       9.922  -3.017   8.359  0.00  0.00     0.006 C 
BRANCH  23  25
HETATM   25  C   UNK     0       7.527  -2.954   9.293  0.00  0.00     0.006 C 
BRANCH  25  26
HETATM   26  C   UNK     0       6.232  -3.738   9.644  0.00  0.00     0.000 C 
HETATM   27  C   UNK     0       5.570  -3.270  10.957  0.00  0.00     0.000 C 
ENDBRANCH  25  26
ENDBRANCH  23  25
ENDBRANCH  20  23
ENDBRANCH  17  18
ENDBRANCH   2  17
TORSDOF 6
ENDMDL
MODEL 3
REMARK VINA RESULT:      -7.0      2.220      8.681
REMARK  6 active torsions:
REMARK  status: ('A' for Active; 'I' for Inactive)
REMARK    1  A    between atoms: C_9  and  N_13 
REMARK       I    between atoms: N_13  and  C_14 
REMARK    2  A    between atoms: C_14  and  C_17 
REMARK    3  A    between atoms: C_17  and  N_18 
REMARK    4  A    between atoms: C_20  and  C_23 
REMARK    5  A    between atoms: C_23  and  C_25 
REMARK    6  A    between atoms: C_25  and  C_26 
ROOT
HETATM    1  N   UNK     0       9.030  -7.097   2.929  0.00  0.00    -0.205 NA
HETATM    2  C   UNK     0       8.252  -7.552   1.903  0.00  0.00     0.281 C 
HETATM    3  O   UNK     0       8.768  -8.423   1.167  0.00  0.00    -0.268 OA
ENDROOT
BRANCH   1   4
HETATM    4  C   UNK     0       8.674  -6.170   3.823  0.00  0.00     0.146 C 
HETATM    5  C   UNK     0       9.070  -4.887   3.647  0.00  0.00     0.162 C 
HETATM    6  C   UNK     0       8.819  -3.924   4.639  0.00  0.00     0.217 C 
HETATM    7  N   UNK     0       9.738  -4.537   2.548  0.00  0.00    -0.143 N 
HETATM    8  C   UNK     0       8.317  -4.330   5.920  0.00  0.00     0.044 A 
HETATM    9  O   UNK     0       9.087  -2.717   4.421  0.00  0.00    -0.285 OA
HETATM   10  C   UNK     0       8.277  -3.453   7.033  0.00  0.00     0.003 A 
HETATM   11  C   UNK     0       7.876  -5.675   6.080  0.00  0.00     0.044 A 
HETATM   12  C   UNK     0       7.851  -3.915   8.290  0.00  0.00     0.000 A 
HETATM   13  C   UNK     0       7.441  -5.249   8.451  0.00  0.00     0.000 A 
HETATM   14  C   UNK     0       7.444  -6.125   7.350  0.00  0.00     0.003 A 
HETATM   15  C   UNK     0       7.923  -6.540   4.949  0.00  0.00     0.215 C 
HETATM   16  O   UNK     0       7.316  -7.638   4.959  0.00  0.00    -0.285 OA
ENDBRANCH   1   4
BRANCH   2  17
HETATM   17  C   UNK     0       6.857  -7.138   1.595  0.00  0.00     0.219 C 
BRANCH  17  18
HETATM   18  N   UNK     0       6.810  -6.246   0.480  0.00  0.00    -0.221 N 
HETATM   19  C   UNK     0       6.699  -6.588  -0.815  0.00  0.00     0.114 A 
HETATM   20  C   UNK     0       6.702  -5.401  -1.533  0.00  0.00     0.101 A 
HETATM   21  N   UNK     0       6.796  -4.420  -0.620  0.00  0.00    -0.133 NA
HETATM   22  N   UNK     0       6.855  -4.952   0.561  0.00  0.00    -0.064 NA
BRANCH  20  23
HETATM   23  C   UNK     0       6.654  -5.230  -3.009  0.00  0.00     0.044 C 
HETATM   24  C   UNK     0       7.838  -4.346  -3.489  0.00  0.00     0.006 C 
BRANCH  23  25
HETATM   25  C   UNK     0       6.636  -6.603  -3.753  0.00  0.00     0.006 C 
BRANCH  25  26
HETATM   26  C   UNK     0       7.216  -6.534  -5.195  0.00  0.00     0.000 C 
HETATM   27  C   UNK     0       6.141  -6.671  -6.294  0.00  0.00     0.000 C 
ENDBRANCH  25  26
ENDBRANCH  23  25
ENDBRANCH  20  23
ENDBRANCH  17  18
ENDBRANCH   2  17
TORSDOF 6
ENDMDL
MODEL 4
REMARK VINA RESULT:      -7.0      2.199      8.907
REMARK  6 active torsions:
REMARK  status: ('A' for Active; 'I' for Inactive)
REMARK    1  A    between atoms: C_9  and  N_13 
REMARK       I    between atoms: N_13  and  C_14 
REMARK    2  A    between atoms: C_14  and  C_17 
REMARK    3  A    between atoms: C_17  and  N_18 
REMARK    4  A    between atoms: C_20  and  C_23 
REMARK    5  A    between atoms: C_23  and  C_25 
REMARK    6  A    between atoms: C_25  and  C_26 
ROOT
HETATM    1  N   UNK     0       9.513  -6.148   6.931  0.00  0.00    -0.205 NA
HETATM    2  C   UNK     0       9.622  -6.232   5.573  0.00  0.00     0.281 C 
HETATM    3  O   UNK     0       9.949  -7.351   5.117  0.00  0.00    -0.268 OA
ENDROOT
BRANCH   1   4
HETATM    4  C   UNK     0       9.181  -5.051   7.619  0.00  0.00     0.146 C 
HETATM    5  C   UNK     0      10.152  -4.192   8.013  0.00  0.00     0.162 C 
HETATM    6  C   UNK     0       9.841  -3.104   8.846  0.00  0.00     0.217 C 
HETATM    7  N   UNK     0      11.417  -4.397   7.648  0.00  0.00    -0.143 N 
HETATM    8  C   UNK     0       8.538  -3.005   9.438  0.00  0.00     0.044 A 
HETATM    9  O   UNK     0      10.721  -2.250   9.116  0.00  0.00    -0.285 OA
HETATM   10  C   UNK     0       8.241  -2.080  10.471  0.00  0.00     0.003 A 
HETATM   11  C   UNK     0       7.521  -3.895   8.991  0.00  0.00     0.044 A 
HETATM   12  C   UNK     0       6.973  -2.071  11.078  0.00  0.00     0.000 A 
HETATM   13  C   UNK     0       5.979  -2.968  10.651  0.00  0.00     0.000 A 
HETATM   14  C   UNK     0       6.246  -3.870   9.606  0.00  0.00     0.003 A 
HETATM   15  C   UNK     0       7.838  -4.816   7.952  0.00  0.00     0.215 C 
HETATM   16  O   UNK     0       6.930  -5.434   7.345  0.00  0.00    -0.285 OA
ENDBRANCH   1   4
BRANCH   2  17
HETATM   17  C   UNK     0       9.364  -5.144   4.592  0.00  0.00     0.219 C 
BRANCH  17  18
HETATM   18  N   UNK     0       8.477  -5.572   3.558  0.00  0.00    -0.221 N 
HETATM   19  C   UNK     0       8.757  -5.654   2.245  0.00  0.00     0.114 A 
HETATM   20  C   UNK     0       7.600  -6.106   1.627  0.00  0.00     0.101 A 
HETATM   21  N   UNK     0       6.704  -6.285   2.611  0.00  0.00    -0.133 NA
HETATM   22  N   UNK     0       7.254  -5.964   3.741  0.00  0.00    -0.064 NA
BRANCH  20  23
HETATM   23  C   UNK     0       7.368  -6.316   0.174  0.00  0.00     0.044 C 
HETATM   24  C   UNK     0       6.598  -7.644  -0.063  0.00  0.00     0.006 C 
BRANCH  23  25
HETATM   25  C   UNK     0       6.622  -5.107  -0.477  0.00  0.00     0.006 C 
BRANCH  25  26
HETATM   26  C   UNK     0       6.476  -5.228  -2.020  0.00  0.00     0.000 C 
HETATM   27  C   UNK     0       7.421  -4.289  -2.800  0.00  0.00     0.000 C 
ENDBRANCH  25  26
ENDBRANCH  23  25
ENDBRANCH  20  23
ENDBRANCH  17  18
ENDBRANCH   2  17
TORSDOF 6
ENDMDL
MODEL 5
REMARK VINA RESULT:      -6.9      2.331      8.311
REMARK  6 active torsions:
REMARK  status: ('A' for Active; 'I' for Inactive)
REMARK    1  A    between atoms: C_9  and  N_13 
REMARK       I    between atoms: N_13  and  C_14 
REMARK    2  A    between atoms: C_14  and  C_17 
REMARK    3  A    between atoms: C_17  and  N_18 
REMARK    4  A    between atoms: C_20  and  C_23 
REMARK    5  A    between atoms: C_23  and  C_25 
REMARK    6  A    between atoms: C_25  and  C_26 
ROOT
HETATM    1  N   UNK     0      10.195  -6.604   4.985  0.00  0.00    -0.205 NA
HETATM    2  C   UNK     0      10.288  -5.946   3.792  0.00  0.00     0.281 C 
HETATM    3  O   UNK     0      11.002  -6.490   2.920  0.00  0.00    -0.268 OA
ENDROOT
BRANCH   1   4
HETATM    4  C   UNK     0       9.491  -6.197   6.046  0.00  0.00     0.146 C 
HETATM    5  C   UNK     0       8.220  -6.634   6.210  0.00  0.00     0.162 C 
HETATM    6  C   UNK     0       7.421  -6.119   7.244  0.00  0.00     0.217 C 
HETATM    7  N   UNK     0       7.704  -7.527   5.366  0.00  0.00    -0.143 N 
HETATM    8  C   UNK     0       7.876  -4.994   8.008  0.00  0.00     0.044 A 
HETATM    9  O   UNK     0       6.285  -6.609   7.460  0.00  0.00    -0.285 OA
HETATM   10  C   UNK     0       7.026  -4.278   8.888  0.00  0.00     0.003 A 
HETATM   11  C   UNK     0       9.225  -4.566   7.846  0.00  0.00     0.044 A 
HETATM   12  C   UNK     0       7.492  -3.134   9.558  0.00  0.00     0.000 A 
HETATM   13  C   UNK     0       8.815  -2.699   9.376  0.00  0.00     0.000 A 
HETATM   14  C   UNK     0       9.683  -3.415   8.532  0.00  0.00     0.003 A 
HETATM   15  C   UNK     0      10.064  -5.299   6.959  0.00  0.00     0.215 C 
HETATM   16  O   UNK     0      11.308  -5.134   6.973  0.00  0.00    -0.285 OA
ENDBRANCH   1   4
BRANCH   2  17
HETATM   17  C   UNK     0       9.608  -4.676   3.423  0.00  0.00     0.219 C 
BRANCH  17  18
HETATM   18  N   UNK     0       8.684  -4.870   2.351  0.00  0.00    -0.221 N 
HETATM   19  C   UNK     0       8.736  -4.300   1.135  0.00  0.00     0.114 A 
HETATM   20  C   UNK     0       7.635  -4.772   0.435  0.00  0.00     0.101 A 
HETATM   21  N   UNK     0       7.002  -5.611   1.270  0.00  0.00    -0.133 NA
HETATM   22  N   UNK     0       7.648  -5.650   2.394  0.00  0.00    -0.064 NA
BRANCH  20  23
HETATM   23  C   UNK     0       7.206  -4.405  -0.940  0.00  0.00     0.044 C 
HETATM   24  C   UNK     0       8.443  -4.103  -1.829  0.00  0.00     0.006 C 
BRANCH  23  25
HETATM   25  C   UNK     0       6.305  -5.508  -1.582  0.00  0.00     0.006 C 
BRANCH  25  26
HETATM   26  C   UNK     0       6.554  -5.702  -3.105  0.00  0.00     0.000 C 
HETATM   27  C   UNK     0       7.059  -7.115  -3.467  0.00  0.00     0.000 C 
ENDBRANCH  25  26
ENDBRANCH  23  25
ENDBRANCH  20  23
ENDBRANCH  17  18
ENDBRANCH   2  17
TORSDOF 6
ENDMDL
MODEL 6
REMARK VINA RESULT:      -6.9      2.174      8.888
REMARK  6 active torsions:
REMARK  status: ('A' for Active; 'I' for Inactive)
REMARK    1  A    between atoms: C_9  and  N_13 
REMARK       I    between atoms: N_13  and  C_14 
REMARK    2  A    between atoms: C_14  and  C_17 
REMARK    3  A    between atoms: C_17  and  N_18 
REMARK    4  A    between atoms: C_20  and  C_23 
REMARK    5  A    between atoms: C_23  and  C_25 
REMARK    6  A    between atoms: C_25  and  C_26 
ROOT
HETATM    1  N   UNK     0       7.295  -5.798   6.320  0.00  0.00    -0.205 NA
HETATM    2  C   UNK     0       7.544  -5.853   4.978  0.00  0.00     0.281 C 
HETATM    3  O   UNK     0       6.656  -6.391   4.278  0.00  0.00    -0.268 OA
ENDROOT
BRANCH   1   4
HETATM    4  C   UNK     0       8.108  -5.271   7.241  0.00  0.00     0.146 C 
HETATM    5  C   UNK     0       9.083  -6.038   7.786  0.00  0.00     0.162 C 
HETATM    6  C   UNK     0       9.862  -5.546   8.846  0.00  0.00     0.217 C 
HETATM    7  N   UNK     0       9.281  -7.281   7.348  0.00  0.00    -0.143 N 
HETATM    8  C   UNK     0       9.508  -4.311   9.483  0.00  0.00     0.044 A 
HETATM    9  O   UNK     0      10.835  -6.216   9.271  0.00  0.00    -0.285 OA
HETATM   10  C   UNK     0      10.096  -3.887  10.701  0.00  0.00     0.003 A 
HETATM   11  C   UNK     0       8.503  -3.501   8.880  0.00  0.00     0.044 A 
HETATM   12  C   UNK     0       9.663  -2.708  11.331  0.00  0.00     0.000 A 
HETATM   13  C   UNK     0       8.653  -1.925  10.747  0.00  0.00     0.000 A 
HETATM   14  C   UNK     0       8.081  -2.312   9.522  0.00  0.00     0.003 A 
HETATM   15  C   UNK     0       7.925  -3.943   7.655  0.00  0.00     0.215 C 
HETATM   16  O   UNK     0       7.238  -3.162   6.954  0.00  0.00    -0.285 OA
ENDBRANCH   1   4
BRANCH   2  17
HETATM   17  C   UNK     0       8.739  -5.318   4.274  0.00  0.00     0.219 C 
BRANCH  17  18
HETATM   18  N   UNK     0       8.483  -5.126   2.882  0.00  0.00    -0.221 N 
HETATM   19  C   UNK     0       8.522  -6.066   1.922  0.00  0.00     0.114 A 
HETATM   20  C   UNK     0       8.217  -5.422   0.732  0.00  0.00     0.101 A 
HETATM   21  N   UNK     0       7.994  -4.138   1.056  0.00  0.00    -0.133 NA
HETATM   22  N   UNK     0       8.156  -3.995   2.335  0.00  0.00    -0.064 NA
BRANCH  20  23
HETATM   23  C   UNK     0       8.178  -6.006  -0.634  0.00  0.00     0.044 C 
HETATM   24  C   UNK     0       8.616  -7.496  -0.597  0.00  0.00     0.006 C 
BRANCH  23  25
HETATM   25  C   UNK     0       6.772  -5.847  -1.295  0.00  0.00     0.006 C 
BRANCH  25  26
HETATM   26  C   UNK     0       6.794  -5.003  -2.601  0.00  0.00     0.000 C 
HETATM   27  C   UNK     0       7.239  -3.542  -2.378  0.00  0.00     0.000 C 
ENDBRANCH  25  26
ENDBRANCH  23  25
ENDBRANCH  20  23
ENDBRANCH  17  18
ENDBRANCH   2  17
TORSDOF 6
ENDMDL
MODEL 7
REMARK VINA RESULT:      -6.8      1.297      1.610
REMARK  6 active torsions:
REMARK  status: ('A' for Active; 'I' for Inactive)
REMARK    1  A    between atoms: C_9  and  N_13 
REMARK       I    between atoms: N_13  and  C_14 
REMARK    2  A    between atoms: C_14  and  C_17 
REMARK    3  A    between atoms: C_17  and  N_18 
REMARK    4  A    between atoms: C_20  and  C_23 
REMARK    5  A    between atoms: C_23  and  C_25 
REMARK    6  A    between atoms: C_25  and  C_26 
ROOT
HETATM    1  N   UNK     0       9.953  -5.943   3.598  0.00  0.00    -0.205 NA
HETATM    2  C   UNK     0       9.686  -5.917   4.937  0.00  0.00     0.281 C 
HETATM    3  O   UNK     0      10.638  -5.582   5.679  0.00  0.00    -0.268 OA
ENDROOT
BRANCH   1   4
HETATM    4  C   UNK     0       9.084  -6.275   2.638  0.00  0.00     0.146 C 
HETATM    5  C   UNK     0       8.941  -7.576   2.289  0.00  0.00     0.162 C 
HETATM    6  C   UNK     0       8.133  -7.932   1.197  0.00  0.00     0.217 C 
HETATM    7  N   UNK     0       9.600  -8.524   2.953  0.00  0.00    -0.143 N 
HETATM    8  C   UNK     0       7.610  -6.915   0.331  0.00  0.00     0.044 A 
HETATM    9  O   UNK     0       7.914  -9.143   0.948  0.00  0.00    -0.285 OA
HETATM   10  C   UNK     0       7.001  -7.215  -0.914  0.00  0.00     0.003 A 
HETATM   11  C   UNK     0       7.741  -5.554   0.728  0.00  0.00     0.044 A 
HETATM   12  C   UNK     0       6.574  -6.184  -1.767  0.00  0.00     0.000 A 
HETATM   13  C   UNK     0       6.729  -4.841  -1.384  0.00  0.00     0.000 A 
HETATM   14  C   UNK     0       7.300  -4.524  -0.138  0.00  0.00     0.003 A 
HETATM   15  C   UNK     0       8.354  -5.272   1.982  0.00  0.00     0.215 C 
HETATM   16  O   UNK     0       8.264  -4.131   2.496  0.00  0.00    -0.285 OA
ENDBRANCH   1   4
BRANCH   2  17
HETATM   17  C   UNK     0       8.384  -6.215   5.589  0.00  0.00     0.219 C 
BRANCH  17  18
HETATM   18  N   UNK     0       7.996  -5.172   6.485  0.00  0.00    -0.221 N 
HETATM   19  C   UNK     0       7.930  -5.250   7.825  0.00  0.00     0.114 A 
HETATM   20  C   UNK     0       7.500  -4.007   8.267  0.00  0.00     0.101 A 
HETATM   21  N   UNK     0       7.355  -3.255   7.164  0.00  0.00    -0.133 NA
HETATM   22  N   UNK     0       7.659  -3.972   6.126  0.00  0.00    -0.064 NA
BRANCH  20  23
HETATM   23  C   UNK     0       7.215  -3.587   9.664  0.00  0.00     0.044 C 
HETATM   24  C   UNK     0       7.906  -4.549  10.669  0.00  0.00     0.006 C 
BRANCH  23  25
HETATM   25  C   UNK     0       7.634  -2.104   9.923  0.00  0.00     0.006 C 
BRANCH  25  26
HETATM   26  C   UNK     0       7.598  -1.704  11.425  0.00  0.00     0.000 C 
HETATM   27  C   UNK     0       8.427  -0.441  11.742  0.00  0.00     0.000 C 
ENDBRANCH  25  26
ENDBRANCH  23  25
ENDBRANCH  20  23
ENDBRANCH  17  18
ENDBRANCH   2  17
TORSDOF 6
ENDMDL
MODEL 8
REMARK VINA RESULT:      -6.7     11.073     13.297
REMARK  6 active torsions:
REMARK  status: ('A' for Active; 'I' for Inactive)
REMARK    1  A    between atoms: C_9  and  N_13 
REMARK       I    between atoms: N_13  and  C_14 
REMARK    2  A    between atoms: C_14  and  C_17 
REMARK    3  A    between atoms: C_17  and  N_18 
REMARK    4  A    between atoms: C_20  and  C_23 
REMARK    5  A    between atoms: C_23  and  C_25 
REMARK    6  A    between atoms: C_25  and  C_26 
ROOT
HETATM    1  N   UNK     0      -2.774  -8.258  -4.208  0.00  0.00    -0.205 NA
HETATM    2  C   UNK     0      -3.320  -7.577  -3.157  0.00  0.00     0.281 C 
HETATM    3  O   UNK     0      -3.227  -6.329  -3.205  0.00  0.00    -0.268 OA
ENDROOT
BRANCH   1   4
HETATM    4  C   UNK     0      -2.762  -9.587  -4.352  0.00  0.00     0.146 C 
HETATM    5  C   UNK     0      -3.755 -10.191  -5.046  0.00  0.00     0.162 C 
HETATM    6  C   UNK     0      -3.832 -11.593  -5.099  0.00  0.00     0.217 C 
HETATM    7  N   UNK     0      -4.692  -9.460  -5.649  0.00  0.00    -0.143 N 
HETATM    8  C   UNK     0      -2.978 -12.389  -4.265  0.00  0.00     0.044 A 
HETATM    9  O   UNK     0      -4.686 -12.146  -5.834  0.00  0.00    -0.285 OA
HETATM   10  C   UNK     0      -3.172 -13.782  -4.089  0.00  0.00     0.003 A 
HETATM   11  C   UNK     0      -1.919 -11.743  -3.566  0.00  0.00     0.044 A 
HETATM   12  C   UNK     0      -2.360 -14.509  -3.201  0.00  0.00     0.000 A 
HETATM   13  C   UNK     0      -1.333 -13.863  -2.493  0.00  0.00     0.000 A 
HETATM   14  C   UNK     0      -1.105 -12.488  -2.681  0.00  0.00     0.003 A 
HETATM   15  C   UNK     0      -1.739 -10.342  -3.758  0.00  0.00     0.215 C 
HETATM   16  O   UNK     0      -0.684  -9.776  -3.383  0.00  0.00    -0.285 OA
ENDBRANCH   1   4
BRANCH   2  17
HETATM   17  C   UNK     0      -4.031  -8.165  -1.991  0.00  0.00     0.219 C 
BRANCH  17  18
HETATM   18  N   UNK     0      -3.116  -8.739  -1.056  0.00  0.00    -0.221 N 
HETATM   19  C   UNK     0      -3.276  -9.890  -0.382  0.00  0.00     0.114 A 
HETATM   20  C   UNK     0      -2.147 -10.039   0.410  0.00  0.00     0.101 A 
HETATM   21  N   UNK     0      -1.371  -8.975   0.146  0.00  0.00    -0.133 NA
HETATM   22  N   UNK     0      -1.970  -8.227  -0.727  0.00  0.00    -0.064 NA
BRANCH  20  23
HETATM   23  C   UNK     0      -1.856 -11.122   1.385  0.00  0.00     0.044 C 
HETATM   24  C   UNK     0      -2.316 -12.495   0.821  0.00  0.00     0.006 C 
BRANCH  23  25
HETATM   25  C   UNK     0      -0.347 -11.154   1.787  0.00  0.00     0.006 C 
BRANCH  25  26
HETATM   26  C   UNK     0      -0.007 -12.257   2.830  0.00  0.00     0.000 C 
HETATM   27  C   UNK     0       1.106 -13.218   2.362  0.00  0.00     0.000 C 
ENDBRANCH  25  26
ENDBRANCH  23  25
ENDBRANCH  20  23
ENDBRANCH  17  18
ENDBRANCH   2  17
TORSDOF 6
ENDMDL
MODEL 9
REMARK VINA RESULT:      -6.6      2.591      8.097
REMARK  6 active torsions:
REMARK  status: ('A' for Active; 'I' for Inactive)
REMARK    1  A    between atoms: C_9  and  N_13 
REMARK       I    between atoms: N_13  and  C_14 
REMARK    2  A    between atoms: C_14  and  C_17 
REMARK    3  A    between atoms: C_17  and  N_18 
REMARK    4  A    between atoms: C_20  and  C_23 
REMARK    5  A    between atoms: C_23  and  C_25 
REMARK    6  A    between atoms: C_25  and  C_26 
ROOT
HETATM    1  N   UNK     0      11.375  -5.260   3.537  0.00  0.00    -0.205 NA
HETATM    2  C   UNK     0      11.439  -4.581   2.354  0.00  0.00     0.281 C 
HETATM    3  O   UNK     0      12.399  -4.873   1.606  0.00  0.00    -0.268 OA
ENDROOT
BRANCH   1   4
HETATM    4  C   UNK     0      10.438  -5.100   4.477  0.00  0.00     0.146 C 
HETATM    5  C   UNK     0      10.588  -4.127   5.408  0.00  0.00     0.162 C 
HETATM    6  C   UNK     0       9.684  -4.025   6.479  0.00  0.00     0.217 C 
HETATM    7  N   UNK     0      11.619  -3.286   5.338  0.00  0.00    -0.143 N 
HETATM    8  C   UNK     0       8.715  -5.060   6.699  0.00  0.00     0.044 A 
HETATM    9  O   UNK     0       9.762  -3.056   7.273  0.00  0.00    -0.285 OA
HETATM   10  C   UNK     0       7.948  -5.142   7.889  0.00  0.00     0.003 A 
HETATM   11  C   UNK     0       8.549  -6.057   5.697  0.00  0.00     0.044 A 
HETATM   12  C   UNK     0       7.067  -6.217   8.097  0.00  0.00     0.000 A 
HETATM   13  C   UNK     0       6.924  -7.213   7.117  0.00  0.00     0.000 A 
HETATM   14  C   UNK     0       7.653  -7.131   5.917  0.00  0.00     0.003 A 
HETATM   15  C   UNK     0       9.328  -5.957   4.509  0.00  0.00     0.215 C 
HETATM   16  O   UNK     0       9.042  -6.643   3.497  0.00  0.00    -0.285 OA
ENDBRANCH   1   4
BRANCH   2  17
HETATM   17  C   UNK     0      10.474  -3.563   1.862  0.00  0.00     0.219 C 
BRANCH  17  18
HETATM   18  N   UNK     0       9.312  -4.172   1.299  0.00  0.00    -0.221 N 
HETATM   19  C   UNK     0       9.282  -5.070   0.299  0.00  0.00     0.114 A 
HETATM   20  C   UNK     0       7.945  -5.370   0.084  0.00  0.00     0.101 A 
HETATM   21  N   UNK     0       7.257  -4.647   0.983  0.00  0.00    -0.133 NA
HETATM   22  N   UNK     0       8.094  -3.951   1.688  0.00  0.00    -0.064 NA
BRANCH  20  23
HETATM   23  C   UNK     0       7.369  -6.271  -0.948  0.00  0.00     0.044 C 
HETATM   24  C   UNK     0       6.621  -7.455  -0.275  0.00  0.00     0.006 C 
BRANCH  23  25
HETATM   25  C   UNK     0       6.437  -5.503  -1.938  0.00  0.00     0.006 C 
BRANCH  25  26
HETATM   26  C   UNK     0       7.160  -4.364  -2.712  0.00  0.00     0.000 C 
HETATM   27  C   UNK     0       7.703  -4.808  -4.087  0.00  0.00     0.000 C 
ENDBRANCH  25  26
ENDBRANCH  23  25
ENDBRANCH  20  23
ENDBRANCH  17  18
ENDBRANCH   2  17
TORSDOF 6
ENDMDL
