MODEL 1
REMARK VINA RESULT:      -7.6      0.000      0.000
REMARK  6 active torsions:
REMARK  status: ('A' for Active; 'I' for Inactive)
REMARK    1  A    between atoms: C_9  and  N_13 
REMARK       I    between atoms: N_13  and  C_14 
REMARK    2  A    between atoms: C_14  and  C_17 
REMARK    3  A    between atoms: C_17  and  N_18 
REMARK    4  A    between atoms: C_20  and  C_23 
REMARK    5  A    between atoms: C_23  and  O_24 
REMARK    6  A    between atoms: O_24  and  C_26 
ROOT
HETATM    1  N   UNK     0       8.441  -6.368   2.748  0.00  0.00    -0.205 NA
HETATM    2  C   UNK     0       7.678  -6.438   3.881  0.00  0.00     0.281 C 
HETATM    3  O   UNK     0       6.423  -6.443   3.834  0.00  0.00    -0.268 OA
ENDROOT
BRANCH   1   4
HETATM    4  C   UNK     0       7.967  -6.383   1.495  0.00  0.00     0.146 C 
HETATM    5  C   UNK     0       7.671  -7.563   0.901  0.00  0.00     0.162 C 
HETATM    6  C   UNK     0       7.244  -7.613  -0.435  0.00  0.00     0.217 C 
HETATM    7  N   UNK     0       7.811  -8.700   1.572  0.00  0.00    -0.143 N 
HETATM    8  C   UNK     0       7.210  -6.420  -1.224  0.00  0.00     0.044 A 
HETATM    9  O   UNK     0       6.902  -8.710  -0.940  0.00  0.00    -0.285 OA
HETATM   10  C   UNK     0       6.919  -6.436  -2.609  0.00  0.00     0.003 A 
HETATM   11  C   UNK     0       7.485  -5.177  -0.588  0.00  0.00     0.044 A 
HETATM   12  C   UNK     0       6.916  -5.245  -3.355  0.00  0.00     0.000 A 
HETATM   13  C   UNK     0       7.193  -4.021  -2.727  0.00  0.00     0.000 A 
HETATM   14  C   UNK     0       7.469  -3.985  -1.351  0.00  0.00     0.003 A 
HETATM   15  C   UNK     0       7.766  -5.175   0.808  0.00  0.00     0.215 C 
HETATM   16  O   UNK     0       7.800  -4.088   1.437  0.00  0.00    -0.285 OA
ENDBRANCH   1   4
BRANCH   2  17
HETATM   17  C   UNK     0       8.348  -6.514   5.194  0.00  0.00     0.219 C 
BRANCH  17  18
HETATM   18  N   UNK     0       8.048  -5.376   6.002  0.00  0.00    -0.221 N 
HETATM   19  C   UNK     0       8.090  -5.306   7.342  0.00  0.00     0.124 A 
HETATM   20  C   UNK     0       7.694  -4.018   7.675  0.00  0.00     0.186 A 
HETATM   21  N   UNK     0       7.447  -3.394   6.513  0.00  0.00    -0.123 NA
HETATM   22  N   UNK     0       7.669  -4.223   5.542  0.00  0.00    -0.063 NA
BRANCH  20  23
HETATM   23  C   UNK     0       7.572  -3.440   8.948  0.00  0.00     0.317 C 
HETATM   24  O   UNK     0       8.262  -2.431   9.225  0.00  0.00    -0.257 OA
BRANCH  23  25
HETATM   25  O   UNK     0       6.723  -3.976   9.873  0.00  0.00    -0.297 OA
BRANCH  25  26
HETATM   26  C   UNK     0       5.736  -3.255  10.621  0.00  0.00     0.152 C 
HETATM   27  C   UNK     0       6.261  -2.968  12.038  0.00  0.00     0.035 C 
ENDBRANCH  25  26
ENDBRANCH  23  25
ENDBRANCH  20  23
ENDBRANCH  17  18
ENDBRANCH   2  17
TORSDOF 6
ENDMDL
MODEL 2
REMARK VINA RESULT:      -7.5      1.795      2.488
REMARK  6 active torsions:
REMARK  status: ('A' for Active; 'I' for Inactive)
REMARK    1  A    between atoms: C_9  and  N_13 
REMARK       I    between atoms: N_13  and  C_14 
REMARK    2  A    between atoms: C_14  and  C_17 
REMARK    3  A    between atoms: C_17  and  N_18 
REMARK    4  A    between atoms: C_20  and  C_23 
REMARK    5  A    between atoms: C_23  and  O_24 
REMARK    6  A    between atoms: O_24  and  C_26 
ROOT
HETATM    1  N   UNK     0       7.586  -4.560   0.935  0.00  0.00    -0.205 NA
HETATM    2  C   UNK     0       8.825  -4.444   1.501  0.00  0.00     0.281 C 
HETATM    3  O   UNK     0       9.813  -5.084   1.065  0.00  0.00    -0.268 OA
ENDROOT
BRANCH   1   4
HETATM    4  C   UNK     0       7.300  -5.273  -0.163  0.00  0.00     0.146 C 
HETATM    5  C   UNK     0       7.036  -6.597  -0.054  0.00  0.00     0.162 C 
HETATM    6  C   UNK     0       6.806  -7.384  -1.194  0.00  0.00     0.217 C 
HETATM    7  N   UNK     0       7.019  -7.178   1.139  0.00  0.00    -0.143 N 
HETATM    8  C   UNK     0       6.948  -6.816  -2.499  0.00  0.00     0.044 A 
HETATM    9  O   UNK     0       6.486  -8.591  -1.064  0.00  0.00    -0.285 OA
HETATM   10  C   UNK     0       6.862  -7.597  -3.678  0.00  0.00     0.003 A 
HETATM   11  C   UNK     0       7.189  -5.418  -2.610  0.00  0.00     0.044 A 
HETATM   12  C   UNK     0       7.028  -7.006  -4.942  0.00  0.00     0.000 A 
HETATM   13  C   UNK     0       7.272  -5.628  -5.049  0.00  0.00     0.000 A 
HETATM   14  C   UNK     0       7.345  -4.837  -3.891  0.00  0.00     0.003 A 
HETATM   15  C   UNK     0       7.263  -4.645  -1.417  0.00  0.00     0.215 C 
HETATM   16  O   UNK     0       7.259  -3.390  -1.484  0.00  0.00    -0.285 OA
ENDBRANCH   1   4
BRANCH   2  17
HETATM   17  C   UNK     0       9.007  -3.539   2.652  0.00  0.00     0.219 C 
BRANCH  17  18
HETATM   18  N   UNK     0       8.481  -4.106   3.853  0.00  0.00    -0.221 N 
HETATM   19  C   UNK     0       8.696  -3.679   5.107  0.00  0.00     0.124 A 
HETATM   20  C   UNK     0       8.007  -4.552   5.937  0.00  0.00     0.186 A 
HETATM   21  N   UNK     0       7.417  -5.445   5.128  0.00  0.00    -0.123 NA
HETATM   22  N   UNK     0       7.714  -5.152   3.900  0.00  0.00    -0.063 NA
BRANCH  20  23
HETATM   23  C   UNK     0       7.912  -4.538   7.337  0.00  0.00     0.317 C 
HETATM   24  O   UNK     0       8.496  -5.431   7.994  0.00  0.00    -0.257 OA
BRANCH  23  25
HETATM   25  O   UNK     0       7.185  -3.573   7.971  0.00  0.00    -0.297 OA
BRANCH  25  26
HETATM   26  C   UNK     0       7.054  -3.419   9.390  0.00  0.00     0.152 C 
HETATM   27  C   UNK     0       7.787  -2.148   9.849  0.00  0.00     0.035 C 
ENDBRANCH  25  26
ENDBRANCH  23  25
ENDBRANCH  20  23
ENDBRANCH  17  18
ENDBRANCH   2  17
TORSDOF 6
ENDMDL
MODEL 3
REMARK VINA RESULT:      -7.3      1.508      2.468
REMARK  6 active torsions:
REMARK  status: ('A' for Active; 'I' for Inactive)
REMARK    1  A    between atoms: C_9  and  N_13 
REMARK       I    between atoms: N_13  and  C_14 
REMARK    2  A    between atoms: C_14  and  C_17 
REMARK    3  A    between atoms: C_17  and  N_18 
REMARK    4  A    between atoms: C_20  and  C_23 
REMARK    5  A    between atoms: C_23  and  O_24 
REMARK    6  A    between atoms: O_24  and  C_26 
ROOT
HETATM    1  N   UNK     0       6.909  -6.234   2.137  0.00  0.00    -0.205 NA
HETATM    2  C   UNK     0       7.457  -7.131   3.012  0.00  0.00     0.281 C 
HETATM    3  O   UNK     0       8.480  -7.798   2.721  0.00  0.00    -0.268 OA
ENDROOT
BRANCH   1   4
HETATM    4  C   UNK     0       7.422  -5.906   0.943  0.00  0.00     0.146 C 
HETATM    5  C   UNK     0       8.401  -4.973   0.865  0.00  0.00     0.162 C 
HETATM    6  C   UNK     0       8.905  -4.556  -0.377  0.00  0.00     0.217 C 
HETATM    7  N   UNK     0       8.879  -4.415   1.970  0.00  0.00    -0.143 N 
HETATM    8  C   UNK     0       8.319  -5.040  -1.589  0.00  0.00     0.044 A 
HETATM    9  O   UNK     0       9.864  -3.748  -0.421  0.00  0.00    -0.285 OA
HETATM   10  C   UNK     0       8.697  -4.548  -2.862  0.00  0.00     0.003 A 
HETATM   11  C   UNK     0       7.317  -6.047  -1.505  0.00  0.00     0.044 A 
HETATM   12  C   UNK     0       8.084  -5.035  -4.029  0.00  0.00     0.000 A 
HETATM   13  C   UNK     0       7.091  -6.024  -3.943  0.00  0.00     0.000 A 
HETATM   14  C   UNK     0       6.715  -6.533  -2.690  0.00  0.00     0.003 A 
HETATM   15  C   UNK     0       6.953  -6.539  -0.219  0.00  0.00     0.215 C 
HETATM   16  O   UNK     0       6.238  -7.567  -0.122  0.00  0.00    -0.285 OA
ENDBRANCH   1   4
BRANCH   2  17
HETATM   17  C   UNK     0       6.832  -7.315   4.336  0.00  0.00     0.219 C 
BRANCH  17  18
HETATM   18  N   UNK     0       7.239  -6.299   5.253  0.00  0.00    -0.221 N 
HETATM   19  C   UNK     0       7.641  -6.473   6.522  0.00  0.00     0.124 A 
HETATM   20  C   UNK     0       7.905  -5.205   7.022  0.00  0.00     0.186 A 
HETATM   21  N   UNK     0       7.653  -4.351   6.019  0.00  0.00    -0.123 NA
HETATM   22  N   UNK     0       7.264  -5.029   4.984  0.00  0.00    -0.063 NA
BRANCH  20  23
HETATM   23  C   UNK     0       8.355  -4.844   8.301  0.00  0.00     0.317 C 
HETATM   24  O   UNK     0       9.327  -5.459   8.798  0.00  0.00    -0.257 OA
BRANCH  23  25
HETATM   25  O   UNK     0       7.736  -3.845   8.995  0.00  0.00    -0.297 OA
BRANCH  25  26
HETATM   26  C   UNK     0       6.383  -3.869   9.470  0.00  0.00     0.152 C 
HETATM   27  C   UNK     0       6.356  -3.607  10.985  0.00  0.00     0.035 C 
ENDBRANCH  25  26
ENDBRANCH  23  25
ENDBRANCH  20  23
ENDBRANCH  17  18
ENDBRANCH   2  17
TORSDOF 6
ENDMDL
MODEL 4
REMARK VINA RESULT:      -7.2      2.005      3.288
REMARK  6 active torsions:
REMARK  status: ('A' for Active; 'I' for Inactive)
REMARK    1  A    between atoms: C_9  and  N_13 
REMARK       I    between atoms: N_13  and  C_14 
REMARK    2  A    between atoms: C_14  and  C_17 
REMARK    3  A    between atoms: C_17  and  N_18 
REMARK    4  A    between atoms: C_20  and  C_23 
REMARK    5  A    between atoms: C_23  and  O_24 
REMARK    6  A    between atoms: O_24  and  C_26 
ROOT
HETATM    1  N   UNK     0       7.696  -7.281   1.003  0.00  0.00    -0.205 NA
HETATM    2  C   UNK     0       8.863  -7.112   1.697  0.00  0.00     0.281 C 
HETATM    3  O   UNK     0       9.899  -6.665   1.148  0.00  0.00    -0.268 OA
ENDROOT
BRANCH   1   4
HETATM    4  C   UNK     0       7.497  -6.926  -0.274  0.00  0.00     0.146 C 
HETATM    5  C   UNK     0       7.091  -5.667  -0.566  0.00  0.00     0.162 C 
HETATM    6  C   UNK     0       6.804  -5.289  -1.886  0.00  0.00     0.217 C 
HETATM    7  N   UNK     0       6.930  -4.777   0.405  0.00  0.00    -0.143 N 
HETATM    8  C   UNK     0       6.839  -6.260  -2.936  0.00  0.00     0.044 A 
HETATM    9  O   UNK     0       6.505  -4.097  -2.143  0.00  0.00    -0.285 OA
HETATM   10  C   UNK     0       6.427  -5.962  -4.258  0.00  0.00     0.003 A 
HETATM   11  C   UNK     0       7.302  -7.571  -2.634  0.00  0.00     0.044 A 
HETATM   12  C   UNK     0       6.457  -6.950  -5.257  0.00  0.00     0.000 A 
HETATM   13  C   UNK     0       6.908  -8.244  -4.955  0.00  0.00     0.000 A 
HETATM   14  C   UNK     0       7.334  -8.552  -3.653  0.00  0.00     0.003 A 
HETATM   15  C   UNK     0       7.722  -7.853  -1.303  0.00  0.00     0.215 C 
HETATM   16  O   UNK     0       8.332  -8.923  -1.053  0.00  0.00    -0.285 OA
ENDBRANCH   1   4
BRANCH   2  17
HETATM   17  C   UNK     0       8.902  -7.461   3.130  0.00  0.00     0.219 C 
BRANCH  17  18
HETATM   18  N   UNK     0       8.388  -6.403   3.940  0.00  0.00    -0.221 N 
HETATM   19  C   UNK     0       9.099  -5.483   4.612  0.00  0.00     0.124 A 
HETATM   20  C   UNK     0       8.175  -4.686   5.273  0.00  0.00     0.186 A 
HETATM   21  N   UNK     0       6.968  -5.172   4.950  0.00  0.00    -0.123 NA
HETATM   22  N   UNK     0       7.126  -6.186   4.158  0.00  0.00    -0.063 NA
BRANCH  20  23
HETATM   23  C   UNK     0       8.410  -3.582   6.108  0.00  0.00     0.317 C 
HETATM   24  O   UNK     0       9.519  -3.004   6.052  0.00  0.00    -0.257 OA
BRANCH  23  25
HETATM   25  O   UNK     0       7.445  -3.153   6.973  0.00  0.00    -0.297 OA
BRANCH  25  26
HETATM   26  C   UNK     0       7.538  -3.166   8.404  0.00  0.00     0.152 C 
HETATM   27  C   UNK     0       7.431  -4.609   8.922  0.00  0.00     0.035 C 
ENDBRANCH  25  26
ENDBRANCH  23  25
ENDBRANCH  20  23
ENDBRANCH  17  18
ENDBRANCH   2  17
TORSDOF 6
ENDMDL
MODEL 5
REMARK VINA RESULT:      -7.1      2.319      8.934
REMARK  6 active torsions:
REMARK  status: ('A' for Active; 'I' for Inactive)
REMARK    1  A    between atoms: C_9  and  N_13 
REMARK       I    between atoms: N_13  and  C_14 
REMARK    2  A    between atoms: C_14  and  C_17 
REMARK    3  A    between atoms: C_17  and  N_18 
REMARK    4  A    between atoms: C_20  and  C_23 
REMARK    5  A    between atoms: C_23  and  O_24 
REMARK    6  A    between atoms: O_24  and  C_26 
ROOT
HETATM    1  N   UNK     0       8.422  -4.197   3.555  0.00  0.00    -0.205 NA
HETATM    2  C   UNK     0       9.412  -4.556   2.681  0.00  0.00     0.281 C 
HETATM    3  O   UNK     0      10.380  -5.270   3.037  0.00  0.00    -0.268 OA
ENDROOT
BRANCH   1   4
HETATM    4  C   UNK     0       8.322  -4.617   4.823  0.00  0.00     0.146 C 
HETATM    5  C   UNK     0       7.675  -5.774   5.100  0.00  0.00     0.162 C 
HETATM    6  C   UNK     0       7.491  -6.199   6.425  0.00  0.00     0.217 C 
HETATM    7  N   UNK     0       7.178  -6.511   4.115  0.00  0.00    -0.143 N 
HETATM    8  C   UNK     0       7.897  -5.362   7.512  0.00  0.00     0.044 A 
HETATM    9  O   UNK     0       6.957  -7.312   6.654  0.00  0.00    -0.285 OA
HETATM   10  C   UNK     0       7.611  -5.682   8.861  0.00  0.00     0.003 A 
HETATM   11  C   UNK     0       8.609  -4.166   7.219  0.00  0.00     0.044 A 
HETATM   12  C   UNK     0       8.010  -4.823   9.901  0.00  0.00     0.000 A 
HETATM   13  C   UNK     0       8.706  -3.641   9.609  0.00  0.00     0.000 A 
HETATM   14  C   UNK     0       9.011  -3.317   8.277  0.00  0.00     0.003 A 
HETATM   15  C   UNK     0       8.898  -3.863   5.858  0.00  0.00     0.215 C 
HETATM   16  O   UNK     0       9.702  -2.938   5.580  0.00  0.00    -0.285 OA
ENDBRANCH   1   4
BRANCH   2  17
HETATM   17  C   UNK     0       9.335  -4.094   1.281  0.00  0.00     0.219 C 
BRANCH  17  18
HETATM   18  N   UNK     0       8.347  -4.817   0.545  0.00  0.00    -0.221 N 
HETATM   19  C   UNK     0       8.558  -5.852  -0.283  0.00  0.00     0.124 A 
HETATM   20  C   UNK     0       7.313  -6.205  -0.786  0.00  0.00     0.186 A 
HETATM   21  N   UNK     0       6.434  -5.363  -0.223  0.00  0.00    -0.123 NA
HETATM   22  N   UNK     0       7.076  -4.556   0.563  0.00  0.00    -0.063 NA
BRANCH  20  23
HETATM   23  C   UNK     0       6.992  -7.229  -1.690  0.00  0.00     0.317 C 
HETATM   24  O   UNK     0       6.623  -8.339  -1.243  0.00  0.00    -0.257 OA
BRANCH  23  25
HETATM   25  O   UNK     0       7.090  -7.019  -3.035  0.00  0.00    -0.297 OA
BRANCH  25  26
HETATM   26  C   UNK     0       6.385  -6.018  -3.780  0.00  0.00     0.152 C 
HETATM   27  C   UNK     0       7.358  -5.277  -4.712  0.00  0.00     0.035 C 
ENDBRANCH  25  26
ENDBRANCH  23  25
ENDBRANCH  20  23
ENDBRANCH  17  18
ENDBRANCH   2  17
TORSDOF 6
ENDMDL
MODEL 6
REMARK VINA RESULT:      -7.1      1.564      2.405
REMARK  6 active torsions:
REMARK  status: ('A' for Active; 'I' for Inactive)
REMARK    1  A    between atoms: C_9  and  N_13 
REMARK       I    between atoms: N_13  and  C_14 
REMARK    2  A    between atoms: C_14  and  C_17 
REMARK    3  A    between atoms: C_17  and  N_18 
REMARK    4  A    between atoms: C_20  and  C_23 
REMARK    5  A    between atoms: C_23  and  O_24 
REMARK    6  A    between atoms: O_24  and  C_26 
ROOT
HETATM    1  N   UNK     0       8.727  -6.673   3.280  0.00  0.00    -0.205 NA
HETATM    2  C   UNK     0       8.014  -6.183   4.339  0.00  0.00     0.281 C 
HETATM    3  O   UNK     0       7.367  -5.111   4.261  0.00  0.00    -0.268 OA
ENDROOT
BRANCH   1   4
HETATM    4  C   UNK     0       8.754  -6.136   2.052  0.00  0.00     0.146 C 
HETATM    5  C   UNK     0       9.764  -5.303   1.704  0.00  0.00     0.162 C 
HETATM    6  C   UNK     0       9.778  -4.670   0.452  0.00  0.00     0.217 C 
HETATM    7  N   UNK     0      10.745  -5.050   2.561  0.00  0.00    -0.143 N 
HETATM    8  C   UNK     0       8.670  -4.817  -0.441  0.00  0.00     0.044 A 
HETATM    9  O   UNK     0      10.762  -3.963   0.121  0.00  0.00    -0.285 OA
HETATM   10  C   UNK     0       8.574  -4.092  -1.654  0.00  0.00     0.003 A 
HETATM   11  C   UNK     0       7.630  -5.721  -0.090  0.00  0.00     0.044 A 
HETATM   12  C   UNK     0       7.458  -4.249  -2.496  0.00  0.00     0.000 A 
HETATM   13  C   UNK     0       6.430  -5.137  -2.143  0.00  0.00     0.000 A 
HETATM   14  C   UNK     0       6.518  -5.874  -0.952  0.00  0.00     0.003 A 
HETATM   15  C   UNK     0       7.745  -6.450   1.128  0.00  0.00     0.215 C 
HETATM   16  O   UNK     0       6.962  -7.404   1.363  0.00  0.00    -0.285 OA
ENDBRANCH   1   4
BRANCH   2  17
HETATM   17  C   UNK     0       8.001  -6.940   5.606  0.00  0.00     0.219 C 
BRANCH  17  18
HETATM   18  N   UNK     0       7.781  -6.083   6.726  0.00  0.00    -0.221 N 
HETATM   19  C   UNK     0       8.630  -5.166   7.218  0.00  0.00     0.124 A 
HETATM   20  C   UNK     0       7.997  -4.603   8.318  0.00  0.00     0.186 A 
HETATM   21  N   UNK     0       6.805  -5.212   8.412  0.00  0.00    -0.123 NA
HETATM   22  N   UNK     0       6.706  -6.080   7.454  0.00  0.00    -0.063 NA
BRANCH  20  23
HETATM   23  C   UNK     0       8.464  -3.597   9.177  0.00  0.00     0.317 C 
HETATM   24  O   UNK     0       9.384  -2.842   8.784  0.00  0.00    -0.257 OA
BRANCH  23  25
HETATM   25  O   UNK     0       7.930  -3.449  10.424  0.00  0.00    -0.297 OA
BRANCH  25  26
HETATM   26  C   UNK     0       7.004  -2.431  10.824  0.00  0.00     0.152 C 
HETATM   27  C   UNK     0       5.585  -3.018  10.909  0.00  0.00     0.035 C 
ENDBRANCH  25  26
ENDBRANCH  23  25
ENDBRANCH  20  23
ENDBRANCH  17  18
ENDBRANCH   2  17
TORSDOF 6
ENDMDL
MODEL 7
REMARK VINA RESULT:      -7.1      1.919      3.062
REMARK  6 active torsions:
REMARK  status: ('A' for Active; 'I' for Inactive)
REMARK    1  A    between atoms: C_9  and  N_13 
REMARK       I    between atoms: N_13  and  C_14 
REMARK    2  A    between atoms: C_14  and  C_17 
REMARK    3  A    between atoms: C_17  and  N_18 
REMARK    4  A    between atoms: C_20  and  C_23 
REMARK    5  A    between atoms: C_23  and  O_24 
REMARK    6  A    between atoms: O_24  and  C_26 
ROOT
HETATM    1  N   UNK     0       6.945  -6.282   2.130  0.00  0.00    -0.205 NA
HETATM    2  C   UNK     0       7.462  -7.205   2.996  0.00  0.00     0.281 C 
HETATM    3  O   UNK     0       8.455  -7.911   2.695  0.00  0.00    -0.268 OA
ENDROOT
BRANCH   1   4
HETATM    4  C   UNK     0       7.464  -5.968   0.935  0.00  0.00     0.146 C 
HETATM    5  C   UNK     0       8.447  -5.040   0.851  0.00  0.00     0.162 C 
HETATM    6  C   UNK     0       8.956  -4.639  -0.394  0.00  0.00     0.217 C 
HETATM    7  N   UNK     0       8.924  -4.474   1.952  0.00  0.00    -0.143 N 
HETATM    8  C   UNK     0       8.372  -5.132  -1.603  0.00  0.00     0.044 A 
HETATM    9  O   UNK     0       9.920  -3.835  -0.443  0.00  0.00    -0.285 OA
HETATM   10  C   UNK     0       8.758  -4.655  -2.879  0.00  0.00     0.003 A 
HETATM   11  C   UNK     0       7.366  -6.134  -1.512  0.00  0.00     0.044 A 
HETATM   12  C   UNK     0       8.145  -5.150  -4.044  0.00  0.00     0.000 A 
HETATM   13  C   UNK     0       7.149  -6.134  -3.951  0.00  0.00     0.000 A 
HETATM   14  C   UNK     0       6.766  -6.628  -2.695  0.00  0.00     0.003 A 
HETATM   15  C   UNK     0       6.996  -6.611  -0.222  0.00  0.00     0.215 C 
HETATM   16  O   UNK     0       6.276  -7.635  -0.117  0.00  0.00    -0.285 OA
ENDBRANCH   1   4
BRANCH   2  17
HETATM   17  C   UNK     0       6.838  -7.372   4.323  0.00  0.00     0.219 C 
BRANCH  17  18
HETATM   18  N   UNK     0       7.257  -6.351   5.231  0.00  0.00    -0.221 N 
HETATM   19  C   UNK     0       7.722  -6.524   6.478  0.00  0.00     0.124 A 
HETATM   20  C   UNK     0       7.973  -5.253   6.977  0.00  0.00     0.186 A 
HETATM   21  N   UNK     0       7.649  -4.399   5.995  0.00  0.00    -0.123 NA
HETATM   22  N   UNK     0       7.233  -5.079   4.973  0.00  0.00    -0.063 NA
BRANCH  20  23
HETATM   23  C   UNK     0       8.470  -4.889   8.238  0.00  0.00     0.317 C 
HETATM   24  O   UNK     0       7.986  -5.429   9.260  0.00  0.00    -0.257 OA
BRANCH  23  25
HETATM   25  O   UNK     0       9.459  -3.955   8.348  0.00  0.00    -0.297 OA
BRANCH  25  26
HETATM   26  C   UNK     0      10.781  -4.067   7.804  0.00  0.00     0.152 C 
HETATM   27  C   UNK     0      11.000  -2.984   6.735  0.00  0.00     0.035 C 
ENDBRANCH  25  26
ENDBRANCH  23  25
ENDBRANCH  20  23
ENDBRANCH  17  18
ENDBRANCH   2  17
TORSDOF 6
ENDMDL
MODEL 8
REMARK VINA RESULT:      -7.0     11.428     12.772
REMARK  6 active torsions:
REMARK  status: ('A' for Active; 'I' for Inactive)
REMARK    1  A    between atoms: C_9  and  N_13 
REMARK       I    between atoms: N_13  and  C_14 
REMARK    2  A    between atoms: C_14  and  C_17 
REMARK    3  A    between atoms: C_17  and  N_18 
REMARK    4  A    between atoms: C_20  and  C_23 
REMARK    5  A    between atoms: C_23  and  O_24 
REMARK    6  A    between atoms: O_24  and  C_26 
ROOT
HETATM    1  N   UNK     0       5.375   5.391   5.466  0.00  0.00    -0.205 NA
HETATM    2  C   UNK     0       5.529   6.275   6.498  0.00  0.00     0.281 C 
HETATM    3  O   UNK     0       5.793   7.486   6.297  0.00  0.00    -0.268 OA
ENDROOT
BRANCH   1   4
HETATM    4  C   UNK     0       5.400   5.710   4.165  0.00  0.00     0.146 C 
HETATM    5  C   UNK     0       6.475   5.378   3.411  0.00  0.00     0.162 C 
HETATM    6  C   UNK     0       6.560   5.763   2.065  0.00  0.00     0.217 C 
HETATM    7  N   UNK     0       7.483   4.703   3.949  0.00  0.00    -0.143 N 
HETATM    8  C   UNK     0       5.554   6.604   1.492  0.00  0.00     0.044 A 
HETATM    9  O   UNK     0       7.529   5.378   1.366  0.00  0.00    -0.285 OA
HETATM   10  C   UNK     0       5.662   7.132   0.183  0.00  0.00     0.003 A 
HETATM   11  C   UNK     0       4.407   6.920   2.274  0.00  0.00     0.044 A 
HETATM   12  C   UNK     0       4.661   7.971  -0.337  0.00  0.00     0.000 A 
HETATM   13  C   UNK     0       3.535   8.286   0.438  0.00  0.00     0.000 A 
HETATM   14  C   UNK     0       3.404   7.759   1.733  0.00  0.00     0.003 A 
HETATM   15  C   UNK     0       4.307   6.374   3.585  0.00  0.00     0.215 C 
HETATM   16  O   UNK     0       3.223   6.455   4.215  0.00  0.00    -0.285 OA
ENDBRANCH   1   4
BRANCH   2  17
HETATM   17  C   UNK     0       5.376   5.793   7.884  0.00  0.00     0.219 C 
BRANCH  17  18
HETATM   18  N   UNK     0       4.035   5.952   8.349  0.00  0.00    -0.221 N 
HETATM   19  C   UNK     0       3.546   6.978   9.064  0.00  0.00     0.124 A 
HETATM   20  C   UNK     0       2.211   6.682   9.303  0.00  0.00     0.186 A 
HETATM   21  N   UNK     0       1.981   5.501   8.710  0.00  0.00    -0.123 NA
HETATM   22  N   UNK     0       3.079   5.096   8.151  0.00  0.00    -0.063 NA
BRANCH  20  23
HETATM   23  C   UNK     0       1.259   7.436  10.006  0.00  0.00     0.317 C 
HETATM   24  O   UNK     0       1.017   8.607   9.633  0.00  0.00    -0.257 OA
BRANCH  23  25
HETATM   25  O   UNK     0       0.614   6.903  11.085  0.00  0.00    -0.297 OA
BRANCH  25  26
HETATM   26  C   UNK     0      -0.746   6.450  11.108  0.00  0.00     0.152 C 
HETATM   27  C   UNK     0      -0.785   4.913  11.149  0.00  0.00     0.035 C 
ENDBRANCH  25  26
ENDBRANCH  23  25
ENDBRANCH  20  23
ENDBRANCH  17  18
ENDBRANCH   2  17
TORSDOF 6
ENDMDL
MODEL 9
REMARK VINA RESULT:      -7.0      2.374      9.360
REMARK  6 active torsions:
REMARK  status: ('A' for Active; 'I' for Inactive)
REMARK    1  A    between atoms: C_9  and  N_13 
REMARK       I    between atoms: N_13  and  C_14 
REMARK    2  A    between atoms: C_14  and  C_17 
REMARK    3  A    between atoms: C_17  and  N_18 
REMARK    4  A    between atoms: C_20  and  C_23 
REMARK    5  A    between atoms: C_23  and  O_24 
REMARK    6  A    between atoms: O_24  and  C_26 
ROOT
HETATM    1  N   UNK     0       9.811  -4.366   5.008  0.00  0.00    -0.205 NA
HETATM    2  C   UNK     0       9.745  -3.648   3.846  0.00  0.00     0.281 C 
HETATM    3  O   UNK     0       9.373  -2.450   3.830  0.00  0.00    -0.268 OA
ENDROOT
BRANCH   1   4
HETATM    4  C   UNK     0       9.580  -3.877   6.234  0.00  0.00     0.146 C 
HETATM    5  C   UNK     0      10.582  -3.276   6.919  0.00  0.00     0.162 C 
HETATM    6  C   UNK     0      10.388  -2.820   8.232  0.00  0.00     0.217 C 
HETATM    7  N   UNK     0      11.778  -3.136   6.362  0.00  0.00    -0.143 N 
HETATM    8  C   UNK     0       9.152  -3.075   8.906  0.00  0.00     0.044 A 
HETATM    9  O   UNK     0      11.307  -2.198   8.818  0.00  0.00    -0.285 OA
HETATM   10  C   UNK     0       8.955  -2.759  10.272  0.00  0.00     0.003 A 
HETATM   11  C   UNK     0       8.089  -3.673   8.173  0.00  0.00     0.044 A 
HETATM   12  C   UNK     0       7.732  -3.044  10.904  0.00  0.00     0.000 A 
HETATM   13  C   UNK     0       6.687  -3.639  10.181  0.00  0.00     0.000 A 
HETATM   14  C   UNK     0       6.861  -3.945   8.822  0.00  0.00     0.003 A 
HETATM   15  C   UNK     0       8.298  -3.977   6.797  0.00  0.00     0.215 C 
HETATM   16  O   UNK     0       7.323  -4.301   6.073  0.00  0.00    -0.285 OA
ENDBRANCH   1   4
BRANCH   2  17
HETATM   17  C   UNK     0      10.126  -4.299   2.578  0.00  0.00     0.219 C 
BRANCH  17  18
HETATM   18  N   UNK     0       8.983  -4.577   1.767  0.00  0.00    -0.221 N 
HETATM   19  C   UNK     0       8.842  -4.316   0.458  0.00  0.00     0.124 A 
HETATM   20  C   UNK     0       7.563  -4.733   0.116  0.00  0.00     0.186 A 
HETATM   21  N   UNK     0       7.020  -5.224   1.240  0.00  0.00    -0.123 NA
HETATM   22  N   UNK     0       7.887  -5.121   2.199  0.00  0.00    -0.063 NA
BRANCH  20  23
HETATM   23  C   UNK     0       6.930  -4.681  -1.136  0.00  0.00     0.317 C 
HETATM   24  O   UNK     0       6.935  -3.603  -1.773  0.00  0.00    -0.257 OA
BRANCH  23  25
HETATM   25  O   UNK     0       6.310  -5.786  -1.644  0.00  0.00    -0.297 OA
BRANCH  25  26
HETATM   26  C   UNK     0       6.962  -6.988  -2.073  0.00  0.00     0.152 C 
HETATM   27  C   UNK     0       8.106  -6.646  -3.042  0.00  0.00     0.035 C 
ENDBRANCH  25  26
ENDBRANCH  23  25
ENDBRANCH  20  23
ENDBRANCH  17  18
ENDBRANCH   2  17
TORSDOF 6
ENDMDL
