MODEL 1
REMARK VINA RESULT:      -8.8      0.000      0.000
REMARK  3 active torsions:
REMARK  status: ('A' for Active; 'I' for Inactive)
REMARK    1  A    between atoms: C_9  and  N_13 
REMARK       I    between atoms: N_13  and  C_14 
REMARK    2  A    between atoms: C_14  and  C_17 
REMARK    3  A    between atoms: C_17  and  N_18 
ROOT
HETATM    1  N   UNK     0       8.650  -6.184   3.096  0.00  0.00    -0.205 NA
HETATM    2  C   UNK     0       7.895  -6.139   4.233  0.00  0.00     0.281 C 
HETATM    3  O   UNK     0       6.640  -6.120   4.193  0.00  0.00    -0.268 OA
ENDROOT
BRANCH   1   4
HETATM    4  C   UNK     0       8.184  -6.255   1.837  0.00  0.00     0.146 A 
HETATM    5  C   UNK     0       7.885  -7.470   1.312  0.00  0.00     0.162 A 
HETATM    6  C   UNK     0       7.412  -7.599  -0.001  0.00  0.00     0.217 A 
HETATM    7  N   UNK     0       8.052  -8.574   2.029  0.00  0.00    -0.143 N 
HETATM    8  C   UNK     0       7.313  -6.454  -0.847  0.00  0.00     0.044 A 
HETATM    9  O   UNK     0       7.075  -8.728  -0.435  0.00  0.00    -0.285 OA
HETATM   10  C   UNK     0       6.956  -6.561  -2.214  0.00  0.00     0.003 A 
HETATM   11  C   UNK     0       7.587  -5.172  -0.295  0.00  0.00     0.044 A 
HETATM   12  C   UNK     0       6.861  -5.414  -3.020  0.00  0.00     0.000 A 
HETATM   13  C   UNK     0       7.109  -4.147  -2.471  0.00  0.00     0.000 A 
HETATM   14  C   UNK     0       7.466  -4.024  -1.117  0.00  0.00     0.003 A 
HETATM   15  C   UNK     0       7.979  -5.088   1.077  0.00  0.00     0.215 A 
HETATM   16  O   UNK     0       8.107  -3.961   1.617  0.00  0.00    -0.285 OA
ENDBRANCH   1   4
BRANCH   2  17
HETATM   17  C   UNK     0       8.556  -6.123   5.552  0.00  0.00     0.219 C 
BRANCH  17  18
HETATM   18  N   UNK     0       8.086  -5.098   6.436  0.00  0.00    -0.221 N 
HETATM   19  C   UNK     0       8.001  -5.149   7.776  0.00  0.00     0.118 A 
HETATM   20  C   UNK     0       7.625  -3.878   8.193  0.00  0.00     0.123 A 
HETATM   21  N   UNK     0       7.465  -3.158   7.071  0.00  0.00    -0.129 NA
HETATM   22  C   UNK     0       7.475  -3.392   9.515  0.00  0.00     0.021 A 
HETATM   23  N   UNK     0       7.738  -3.908   6.051  0.00  0.00    -0.063 NA
HETATM   24  C   UNK     0       7.819  -2.053   9.825  0.00  0.00     0.002 A 
HETATM   25  C   UNK     0       6.991  -4.223  10.554  0.00  0.00     0.002 A 
HETATM   26  C   UNK     0       7.689  -1.560  11.138  0.00  0.00     0.000 A 
HETATM   27  C   UNK     0       7.197  -2.395  12.156  0.00  0.00     0.000 A 
HETATM   28  C   UNK     0       6.849  -3.727  11.864  0.00  0.00     0.000 A 
ENDBRANCH  17  18
ENDBRANCH   2  17
TORSDOF 3
ENDMDL
MODEL 2
REMARK VINA RESULT:      -8.4      2.026      3.621
REMARK  3 active torsions:
REMARK  status: ('A' for Active; 'I' for Inactive)
REMARK    1  A    between atoms: C_9  and  N_13 
REMARK       I    between atoms: N_13  and  C_14 
REMARK    2  A    between atoms: C_14  and  C_17 
REMARK    3  A    between atoms: C_17  and  N_18 
ROOT
HETATM    1  N   UNK     0       6.919  -7.659   0.819  0.00  0.00    -0.205 NA
HETATM    2  C   UNK     0       8.009  -7.695   1.640  0.00  0.00     0.281 C 
HETATM    3  O   UNK     0       9.148  -7.350   1.242  0.00  0.00    -0.268 OA
ENDROOT
BRANCH   1   4
HETATM    4  C   UNK     0       6.900  -7.231  -0.455  0.00  0.00     0.146 A 
HETATM    5  C   UNK     0       6.733  -5.908  -0.705  0.00  0.00     0.162 A 
HETATM    6  C   UNK     0       6.691  -5.413  -2.016  0.00  0.00     0.217 A 
HETATM    7  N   UNK     0       6.589  -5.046   0.295  0.00  0.00    -0.143 N 
HETATM    8  C   UNK     0       6.738  -6.309  -3.125  0.00  0.00     0.044 A 
HETATM    9  O   UNK     0       6.609  -4.176  -2.214  0.00  0.00    -0.285 OA
HETATM   10  C   UNK     0       6.576  -5.860  -4.458  0.00  0.00     0.003 A 
HETATM   11  C   UNK     0       6.951  -7.694  -2.876  0.00  0.00     0.044 A 
HETATM   12  C   UNK     0       6.634  -6.766  -5.531  0.00  0.00     0.000 A 
HETATM   13  C   UNK     0       6.865  -8.128  -5.288  0.00  0.00     0.000 A 
HETATM   14  C   UNK     0       7.027  -8.591  -3.970  0.00  0.00     0.003 A 
HETATM   15  C   UNK     0       7.079  -8.133  -1.521  0.00  0.00     0.215 A 
HETATM   16  O   UNK     0       7.387  -9.327  -1.284  0.00  0.00    -0.285 OA
ENDBRANCH   1   4
BRANCH   2  17
HETATM   17  C   UNK     0       7.857  -8.137   3.041  0.00  0.00     0.219 C 
BRANCH  17  18
HETATM   18  N   UNK     0       7.661  -7.073   3.978  0.00  0.00    -0.221 N 
HETATM   19  C   UNK     0       8.013  -7.050   5.276  0.00  0.00     0.118 A 
HETATM   20  C   UNK     0       7.749  -5.763   5.730  0.00  0.00     0.123 A 
HETATM   21  N   UNK     0       7.212  -5.110   4.686  0.00  0.00    -0.129 NA
HETATM   22  C   UNK     0       8.016  -5.206   7.004  0.00  0.00     0.021 A 
HETATM   23  N   UNK     0       7.169  -5.912   3.670  0.00  0.00    -0.063 NA
HETATM   24  C   UNK     0       8.396  -3.846   7.122  0.00  0.00     0.002 A 
HETATM   25  C   UNK     0       7.919  -5.985   8.182  0.00  0.00     0.002 A 
HETATM   26  C   UNK     0       8.678  -3.283   8.381  0.00  0.00     0.000 A 
HETATM   27  C   UNK     0       8.568  -4.067   9.542  0.00  0.00     0.000 A 
HETATM   28  C   UNK     0       8.189  -5.418   9.442  0.00  0.00     0.000 A 
ENDBRANCH  17  18
ENDBRANCH   2  17
TORSDOF 3
ENDMDL
MODEL 3
REMARK VINA RESULT:      -8.3      2.157      9.862
REMARK  3 active torsions:
REMARK  status: ('A' for Active; 'I' for Inactive)
REMARK    1  A    between atoms: C_9  and  N_13 
REMARK       I    between atoms: N_13  and  C_14 
REMARK    2  A    between atoms: C_14  and  C_17 
REMARK    3  A    between atoms: C_17  and  N_18 
ROOT
HETATM    1  N   UNK     0       8.960  -5.329   6.859  0.00  0.00    -0.205 NA
HETATM    2  C   UNK     0       8.684  -5.070   5.548  0.00  0.00     0.281 C 
HETATM    3  O   UNK     0       8.188  -3.977   5.181  0.00  0.00    -0.268 OA
ENDROOT
BRANCH   1   4
HETATM    4  C   UNK     0       8.792  -4.482   7.888  0.00  0.00     0.146 A 
HETATM    5  C   UNK     0       9.818  -3.674   8.253  0.00  0.00     0.162 A 
HETATM    6  C   UNK     0       9.698  -2.783   9.329  0.00  0.00     0.217 A 
HETATM    7  N   UNK     0      10.976  -3.720   7.604  0.00  0.00    -0.143 N 
HETATM    8  C   UNK     0       8.512  -2.768  10.121  0.00  0.00     0.044 A 
HETATM    9  O   UNK     0      10.640  -1.997   9.597  0.00  0.00    -0.285 OA
HETATM   10  C   UNK     0       8.401  -1.971  11.287  0.00  0.00     0.003 A 
HETATM   11  C   UNK     0       7.415  -3.583   9.726  0.00  0.00     0.044 A 
HETATM   12  C   UNK     0       7.217  -1.972  12.044  0.00  0.00     0.000 A 
HETATM   13  C   UNK     0       6.126  -2.759  11.642  0.00  0.00     0.000 A 
HETATM   14  C   UNK     0       6.221  -3.556  10.488  0.00  0.00     0.003 A 
HETATM   15  C   UNK     0       7.559  -4.405   8.565  0.00  0.00     0.215 A 
HETATM   16  O   UNK     0       6.567  -5.039   8.128  0.00  0.00    -0.285 OA
ENDBRANCH   1   4
BRANCH   2  17
HETATM   17  C   UNK     0       8.981  -6.088   4.520  0.00  0.00     0.219 C 
BRANCH  17  18
HETATM   18  N   UNK     0       8.165  -5.997   3.347  0.00  0.00    -0.221 N 
HETATM   19  C   UNK     0       8.484  -5.429   2.170  0.00  0.00     0.118 A 
HETATM   20  C   UNK     0       7.436  -5.713   1.302  0.00  0.00     0.123 A 
HETATM   21  N   UNK     0       6.534  -6.395   2.028  0.00  0.00    -0.129 NA
HETATM   22  C   UNK     0       7.324  -5.405  -0.076  0.00  0.00     0.021 A 
HETATM   23  N   UNK     0       6.992  -6.540   3.231  0.00  0.00    -0.063 NA
HETATM   24  C   UNK     0       6.672  -6.303  -0.956  0.00  0.00     0.002 A 
HETATM   25  C   UNK     0       7.863  -4.208  -0.608  0.00  0.00     0.002 A 
HETATM   26  C   UNK     0       6.567  -6.016  -2.331  0.00  0.00     0.000 A 
HETATM   27  C   UNK     0       7.098  -4.819  -2.842  0.00  0.00     0.000 A 
HETATM   28  C   UNK     0       7.746  -3.916  -1.980  0.00  0.00     0.000 A 
ENDBRANCH  17  18
ENDBRANCH   2  17
TORSDOF 3
ENDMDL
MODEL 4
REMARK VINA RESULT:      -8.3      2.705      9.665
REMARK  3 active torsions:
REMARK  status: ('A' for Active; 'I' for Inactive)
REMARK    1  A    between atoms: C_9  and  N_13 
REMARK       I    between atoms: N_13  and  C_14 
REMARK    2  A    between atoms: C_14  and  C_17 
REMARK    3  A    between atoms: C_17  and  N_18 
ROOT
HETATM    1  N   UNK     0       7.318  -4.891   7.372  0.00  0.00    -0.205 NA
HETATM    2  C   UNK     0       7.441  -6.250   7.419  0.00  0.00     0.281 C 
HETATM    3  O   UNK     0       7.962  -6.833   8.400  0.00  0.00    -0.268 OA
ENDROOT
BRANCH   1   4
HETATM    4  C   UNK     0       7.678  -4.029   8.338  0.00  0.00     0.146 A 
HETATM    5  C   UNK     0       8.943  -3.538   8.347  0.00  0.00     0.162 A 
HETATM    6  C   UNK     0       9.372  -2.649   9.342  0.00  0.00     0.217 A 
HETATM    7  N   UNK     0       9.815  -3.905   7.416  0.00  0.00    -0.143 N 
HETATM    8  C   UNK     0       8.506  -2.303  10.421  0.00  0.00     0.044 A 
HETATM    9  O   UNK     0      10.525  -2.155   9.283  0.00  0.00    -0.285 OA
HETATM   10  C   UNK     0       8.943  -1.506  11.508  0.00  0.00     0.003 A 
HETATM   11  C   UNK     0       7.166  -2.781  10.402  0.00  0.00     0.044 A 
HETATM   12  C   UNK     0       8.064  -1.177  12.553  0.00  0.00     0.000 A 
HETATM   13  C   UNK     0       6.736  -1.629  12.524  0.00  0.00     0.000 A 
HETATM   14  C   UNK     0       6.287  -2.422  11.454  0.00  0.00     0.003 A 
HETATM   15  C   UNK     0       6.752  -3.612   9.314  0.00  0.00     0.215 A 
HETATM   16  O   UNK     0       5.546  -3.944   9.212  0.00  0.00    -0.285 OA
ENDBRANCH   1   4
BRANCH   2  17
HETATM   17  C   UNK     0       6.942  -7.070   6.297  0.00  0.00     0.219 C 
BRANCH  17  18
HETATM   18  N   UNK     0       7.486  -6.716   5.020  0.00  0.00    -0.221 N 
HETATM   19  C   UNK     0       6.902  -6.851   3.816  0.00  0.00     0.118 A 
HETATM   20  C   UNK     0       7.752  -6.243   2.900  0.00  0.00     0.123 A 
HETATM   21  N   UNK     0       8.813  -5.823   3.608  0.00  0.00    -0.129 NA
HETATM   22  C   UNK     0       7.556  -6.048   1.511  0.00  0.00     0.021 A 
HETATM   23  N   UNK     0       8.628  -6.123   4.854  0.00  0.00    -0.063 NA
HETATM   24  C   UNK     0       8.041  -4.876   0.880  0.00  0.00     0.002 A 
HETATM   25  C   UNK     0       6.870  -7.004   0.723  0.00  0.00     0.002 A 
HETATM   26  C   UNK     0       7.841  -4.662  -0.497  0.00  0.00     0.000 A 
HETATM   27  C   UNK     0       7.166  -5.626  -1.267  0.00  0.00     0.000 A 
HETATM   28  C   UNK     0       6.681  -6.796  -0.656  0.00  0.00     0.000 A 
ENDBRANCH  17  18
ENDBRANCH   2  17
TORSDOF 3
ENDMDL
MODEL 5
REMARK VINA RESULT:      -8.2      1.572      2.481
REMARK  3 active torsions:
REMARK  status: ('A' for Active; 'I' for Inactive)
REMARK    1  A    between atoms: C_9  and  N_13 
REMARK       I    between atoms: N_13  and  C_14 
REMARK    2  A    between atoms: C_14  and  C_17 
REMARK    3  A    between atoms: C_17  and  N_18 
ROOT
HETATM    1  N   UNK     0       8.569  -6.475   3.655  0.00  0.00    -0.205 NA
HETATM    2  C   UNK     0       7.921  -5.963   4.743  0.00  0.00     0.281 C 
HETATM    3  O   UNK     0       7.295  -4.877   4.688  0.00  0.00    -0.268 OA
ENDROOT
BRANCH   1   4
HETATM    4  C   UNK     0       8.593  -5.941   2.422  0.00  0.00     0.146 A 
HETATM    5  C   UNK     0       9.615  -5.118   2.080  0.00  0.00     0.162 A 
HETATM    6  C   UNK     0       9.678  -4.522   0.812  0.00  0.00     0.217 A 
HETATM    7  N   UNK     0      10.579  -4.840   2.950  0.00  0.00    -0.143 N 
HETATM    8  C   UNK     0       8.616  -4.706  -0.122  0.00  0.00     0.044 A 
HETATM    9  O   UNK     0      10.673  -3.823   0.499  0.00  0.00    -0.285 OA
HETATM   10  C   UNK     0       8.585  -4.025  -1.364  0.00  0.00     0.003 A 
HETATM   11  C   UNK     0       7.559  -5.598   0.211  0.00  0.00     0.044 A 
HETATM   12  C   UNK     0       7.528  -4.232  -2.267  0.00  0.00     0.000 A 
HETATM   13  C   UNK     0       6.496  -5.128  -1.948  0.00  0.00     0.000 A 
HETATM   14  C   UNK     0       6.512  -5.811  -0.720  0.00  0.00     0.003 A 
HETATM   15  C   UNK     0       7.591  -6.250   1.483  0.00  0.00     0.215 A 
HETATM   16  O   UNK     0       6.736  -7.131   1.749  0.00  0.00    -0.285 OA
ENDBRANCH   1   4
BRANCH   2  17
HETATM   17  C   UNK     0       7.939  -6.702   6.022  0.00  0.00     0.219 C 
BRANCH  17  18
HETATM   18  N   UNK     0       7.745  -5.881   7.179  0.00  0.00    -0.221 N 
HETATM   19  C   UNK     0       8.647  -5.083   7.777  0.00  0.00     0.118 A 
HETATM   20  C   UNK     0       7.961  -4.388   8.765  0.00  0.00     0.123 A 
HETATM   21  N   UNK     0       6.699  -4.847   8.726  0.00  0.00    -0.129 NA
HETATM   22  C   UNK     0       8.443  -3.369   9.623  0.00  0.00     0.021 A 
HETATM   23  N   UNK     0       6.606  -5.731   7.784  0.00  0.00    -0.063 NA
HETATM   24  C   UNK     0       7.597  -2.299  10.005  0.00  0.00     0.002 A 
HETATM   25  C   UNK     0       9.772  -3.387  10.112  0.00  0.00     0.002 A 
HETATM   26  C   UNK     0       8.067  -1.272  10.846  0.00  0.00     0.000 A 
HETATM   27  C   UNK     0       9.386  -1.310  11.330  0.00  0.00     0.000 A 
HETATM   28  C   UNK     0      10.238  -2.367  10.962  0.00  0.00     0.000 A 
ENDBRANCH  17  18
ENDBRANCH   2  17
TORSDOF 3
ENDMDL
MODEL 6
REMARK VINA RESULT:      -8.2      1.739      2.491
REMARK  3 active torsions:
REMARK  status: ('A' for Active; 'I' for Inactive)
REMARK    1  A    between atoms: C_9  and  N_13 
REMARK       I    between atoms: N_13  and  C_14 
REMARK    2  A    between atoms: C_14  and  C_17 
REMARK    3  A    between atoms: C_17  and  N_18 
ROOT
HETATM    1  N   UNK     0       7.839  -4.178   1.292  0.00  0.00    -0.205 NA
HETATM    2  C   UNK     0       9.028  -4.140   1.964  0.00  0.00     0.281 C 
HETATM    3  O   UNK     0       9.978  -4.904   1.668  0.00  0.00    -0.268 OA
ENDROOT
BRANCH   1   4
HETATM    4  C   UNK     0       7.546  -4.966   0.244  0.00  0.00     0.146 A 
HETATM    5  C   UNK     0       7.099  -6.226   0.471  0.00  0.00     0.162 A 
HETATM    6  C   UNK     0       6.794  -7.093  -0.588  0.00  0.00     0.217 A 
HETATM    7  N   UNK     0       6.956  -6.678   1.711  0.00  0.00    -0.143 N 
HETATM    8  C   UNK     0       7.028  -6.692  -1.936  0.00  0.00     0.044 A 
HETATM    9  O   UNK     0       6.314  -8.228  -0.347  0.00  0.00    -0.285 OA
HETATM   10  C   UNK     0       6.848  -7.581  -3.025  0.00  0.00     0.003 A 
HETATM   11  C   UNK     0       7.459  -5.359  -2.188  0.00  0.00     0.044 A 
HETATM   12  C   UNK     0       7.080  -7.154  -4.343  0.00  0.00     0.000 A 
HETATM   13  C   UNK     0       7.484  -5.834  -4.594  0.00  0.00     0.000 A 
HETATM   14  C   UNK     0       7.669  -4.939  -3.525  0.00  0.00     0.003 A 
HETATM   15  C   UNK     0       7.668  -4.487  -1.075  0.00  0.00     0.215 A 
HETATM   16  O   UNK     0       7.930  -3.276  -1.277  0.00  0.00    -0.285 OA
ENDBRANCH   1   4
BRANCH   2  17
HETATM   17  C   UNK     0       9.219  -3.173   3.063  0.00  0.00     0.219 C 
BRANCH  17  18
HETATM   18  N   UNK     0       8.806  -3.651   4.348  0.00  0.00    -0.221 N 
HETATM   19  C   UNK     0       9.122  -3.141   5.551  0.00  0.00     0.118 A 
HETATM   20  C   UNK     0       8.377  -3.851   6.485  0.00  0.00     0.123 A 
HETATM   21  N   UNK     0       7.695  -4.772   5.785  0.00  0.00    -0.129 NA
HETATM   22  C   UNK     0       8.293  -3.647   7.884  0.00  0.00     0.021 A 
HETATM   23  N   UNK     0       7.975  -4.632   4.528  0.00  0.00    -0.063 NA
HETATM   24  C   UNK     0       7.069  -3.868   8.564  0.00  0.00     0.002 A 
HETATM   25  C   UNK     0       9.413  -3.215   8.634  0.00  0.00     0.002 A 
HETATM   26  C   UNK     0       6.967  -3.656   9.952  0.00  0.00     0.000 A 
HETATM   27  C   UNK     0       8.091  -3.236  10.684  0.00  0.00     0.000 A 
HETATM   28  C   UNK     0       9.314  -3.015  10.024  0.00  0.00     0.000 A 
ENDBRANCH  17  18
ENDBRANCH   2  17
TORSDOF 3
ENDMDL
MODEL 7
REMARK VINA RESULT:      -8.1      1.919      2.902
REMARK  3 active torsions:
REMARK  status: ('A' for Active; 'I' for Inactive)
REMARK    1  A    between atoms: C_9  and  N_13 
REMARK       I    between atoms: N_13  and  C_14 
REMARK    2  A    between atoms: C_14  and  C_17 
REMARK    3  A    between atoms: C_17  and  N_18 
ROOT
HETATM    1  N   UNK     0       6.926  -6.407   1.845  0.00  0.00    -0.205 NA
HETATM    2  C   UNK     0       7.580  -7.228   2.718  0.00  0.00     0.281 C 
HETATM    3  O   UNK     0       8.651  -7.803   2.408  0.00  0.00    -0.268 OA
ENDROOT
BRANCH   1   4
HETATM    4  C   UNK     0       7.334  -6.079   0.607  0.00  0.00     0.146 A 
HETATM    5  C   UNK     0       8.164  -5.018   0.446  0.00  0.00     0.162 A 
HETATM    6  C   UNK     0       8.606  -4.626  -0.825  0.00  0.00     0.217 A 
HETATM    7  N   UNK     0       8.567  -4.311   1.495  0.00  0.00    -0.143 N 
HETATM    8  C   UNK     0       8.122  -5.289  -1.992  0.00  0.00     0.044 A 
HETATM    9  O   UNK     0       9.431  -3.686  -0.937  0.00  0.00    -0.285 OA
HETATM   10  C   UNK     0       8.450  -4.844  -3.297  0.00  0.00     0.003 A 
HETATM   11  C   UNK     0       7.282  -6.426  -1.833  0.00  0.00     0.044 A 
HETATM   12  C   UNK     0       7.962  -5.522  -4.427  0.00  0.00     0.000 A 
HETATM   13  C   UNK     0       7.152  -6.656  -4.271  0.00  0.00     0.000 A 
HETATM   14  C   UNK     0       6.816  -7.110  -2.983  0.00  0.00     0.003 A 
HETATM   15  C   UNK     0       6.935  -6.839  -0.509  0.00  0.00     0.215 A 
HETATM   16  O   UNK     0       6.297  -7.908  -0.341  0.00  0.00    -0.285 OA
ENDBRANCH   1   4
BRANCH   2  17
HETATM   17  C   UNK     0       7.031  -7.445   4.072  0.00  0.00     0.219 C 
BRANCH  17  18
HETATM   18  N   UNK     0       7.297  -6.383   4.994  0.00  0.00    -0.221 N 
HETATM   19  C   UNK     0       7.792  -6.485   6.240  0.00  0.00     0.118 A 
HETATM   20  C   UNK     0       8.006  -5.186   6.684  0.00  0.00     0.123 A 
HETATM   21  N   UNK     0       7.582  -4.386   5.691  0.00  0.00    -0.129 NA
HETATM   22  C   UNK     0       8.586  -4.754   7.901  0.00  0.00     0.021 A 
HETATM   23  N   UNK     0       7.165  -5.123   4.711  0.00  0.00    -0.063 NA
HETATM   24  C   UNK     0       9.390  -3.587   7.934  0.00  0.00     0.002 A 
HETATM   25  C   UNK     0       8.390  -5.473   9.105  0.00  0.00     0.002 A 
HETATM   26  C   UNK     0       9.985  -3.155   9.134  0.00  0.00     0.000 A 
HETATM   27  C   UNK     0       9.772  -3.874  10.323  0.00  0.00     0.000 A 
HETATM   28  C   UNK     0       8.976  -5.034  10.308  0.00  0.00     0.000 A 
ENDBRANCH  17  18
ENDBRANCH   2  17
TORSDOF 3
ENDMDL
MODEL 8
REMARK VINA RESULT:      -8.1      2.125      9.677
REMARK  3 active torsions:
REMARK  status: ('A' for Active; 'I' for Inactive)
REMARK    1  A    between atoms: C_9  and  N_13 
REMARK       I    between atoms: N_13  and  C_14 
REMARK    2  A    between atoms: C_14  and  C_17 
REMARK    3  A    between atoms: C_17  and  N_18 
ROOT
HETATM    1  N   UNK     0       7.505  -5.028   5.933  0.00  0.00    -0.205 NA
HETATM    2  C   UNK     0       7.742  -6.265   5.404  0.00  0.00     0.281 C 
HETATM    3  O   UNK     0       8.638  -7.017   5.857  0.00  0.00    -0.268 OA
ENDROOT
BRANCH   1   4
HETATM    4  C   UNK     0       8.134  -4.484   6.988  0.00  0.00     0.146 A 
HETATM    5  C   UNK     0       9.293  -3.808   6.788  0.00  0.00     0.162 A 
HETATM    6  C   UNK     0       9.997  -3.235   7.857  0.00  0.00     0.217 A 
HETATM    7  N   UNK     0       9.802  -3.687   5.568  0.00  0.00    -0.143 N 
HETATM    8  C   UNK     0       9.547  -3.424   9.198  0.00  0.00     0.044 A 
HETATM    9  O   UNK     0      11.027  -2.554   7.633  0.00  0.00    -0.285 OA
HETATM   10  C   UNK     0      10.294  -2.965  10.310  0.00  0.00     0.003 A 
HETATM   11  C   UNK     0       8.313  -4.097   9.416  0.00  0.00     0.044 A 
HETATM   12  C   UNK     0       9.822  -3.160  11.619  0.00  0.00     0.000 A 
HETATM   13  C   UNK     0       8.594  -3.805  11.834  0.00  0.00     0.000 A 
HETATM   14  C   UNK     0       7.841  -4.267  10.742  0.00  0.00     0.003 A 
HETATM   15  C   UNK     0       7.589  -4.583   8.282  0.00  0.00     0.215 A 
HETATM   16  O   UNK     0       6.443  -5.071   8.441  0.00  0.00    -0.285 OA
ENDBRANCH   1   4
BRANCH   2  17
HETATM   17  C   UNK     0       6.922  -6.749   4.275  0.00  0.00     0.219 C 
BRANCH  17  18
HETATM   18  N   UNK     0       7.308  -6.225   2.999  0.00  0.00    -0.221 N 
HETATM   19  C   UNK     0       6.901  -6.640   1.787  0.00  0.00     0.118 A 
HETATM   20  C   UNK     0       7.430  -5.742   0.868  0.00  0.00     0.123 A 
HETATM   21  N   UNK     0       8.159  -4.872   1.585  0.00  0.00    -0.129 NA
HETATM   22  C   UNK     0       7.231  -5.695  -0.534  0.00  0.00     0.021 A 
HETATM   23  N   UNK     0       8.071  -5.187   2.838  0.00  0.00    -0.063 NA
HETATM   24  C   UNK     0       7.169  -4.447  -1.203  0.00  0.00     0.002 A 
HETATM   25  C   UNK     0       7.080  -6.879  -1.296  0.00  0.00     0.002 A 
HETATM   26  C   UNK     0       6.957  -4.385  -2.594  0.00  0.00     0.000 A 
HETATM   27  C   UNK     0       6.820  -5.570  -3.338  0.00  0.00     0.000 A 
HETATM   28  C   UNK     0       6.880  -6.816  -2.688  0.00  0.00     0.000 A 
ENDBRANCH  17  18
ENDBRANCH   2  17
TORSDOF 3
ENDMDL
MODEL 9
REMARK VINA RESULT:      -8.0      1.133      2.252
REMARK  3 active torsions:
REMARK  status: ('A' for Active; 'I' for Inactive)
REMARK    1  A    between atoms: C_9  and  N_13 
REMARK       I    between atoms: N_13  and  C_14 
REMARK    2  A    between atoms: C_14  and  C_17 
REMARK    3  A    between atoms: C_17  and  N_18 
ROOT
HETATM    1  N   UNK     0       8.664  -6.292   3.608  0.00  0.00    -0.205 NA
HETATM    2  C   UNK     0       7.735  -6.276   4.609  0.00  0.00     0.281 C 
HETATM    3  O   UNK     0       6.505  -6.211   4.368  0.00  0.00    -0.268 OA
ENDROOT
BRANCH   1   4
HETATM    4  C   UNK     0       8.409  -6.285   2.289  0.00  0.00     0.146 A 
HETATM    5  C   UNK     0       8.439  -5.108   1.617  0.00  0.00     0.162 A 
HETATM    6  C   UNK     0       8.164  -5.045   0.243  0.00  0.00     0.217 A 
HETATM    7  N   UNK     0       8.714  -3.975   2.252  0.00  0.00    -0.143 N 
HETATM    8  C   UNK     0       7.762  -6.217  -0.464  0.00  0.00     0.044 A 
HETATM    9  O   UNK     0       8.271  -3.953  -0.366  0.00  0.00    -0.285 OA
HETATM   10  C   UNK     0       7.359  -6.172  -1.822  0.00  0.00     0.003 A 
HETATM   11  C   UNK     0       7.764  -7.464   0.222  0.00  0.00     0.044 A 
HETATM   12  C   UNK     0       6.975  -7.345  -2.493  0.00  0.00     0.000 A 
HETATM   13  C   UNK     0       6.998  -8.578  -1.824  0.00  0.00     0.000 A 
HETATM   14  C   UNK     0       7.394  -8.640  -0.477  0.00  0.00     0.003 A 
HETATM   15  C   UNK     0       8.142  -7.485   1.601  0.00  0.00     0.215 A 
HETATM   16  O   UNK     0       8.268  -8.585   2.192  0.00  0.00    -0.285 OA
ENDBRANCH   1   4
BRANCH   2  17
HETATM   17  C   UNK     0       8.173  -6.346   6.017  0.00  0.00     0.219 C 
BRANCH  17  18
HETATM   18  N   UNK     0       7.828  -5.199   6.801  0.00  0.00    -0.221 N 
HETATM   19  C   UNK     0       7.637  -5.143   8.131  0.00  0.00     0.118 A 
HETATM   20  C   UNK     0       7.463  -3.800   8.445  0.00  0.00     0.123 A 
HETATM   21  N   UNK     0       7.515  -3.142   7.275  0.00  0.00    -0.129 NA
HETATM   22  C   UNK     0       7.305  -3.207   9.721  0.00  0.00     0.021 A 
HETATM   23  N   UNK     0       7.725  -3.996   6.324  0.00  0.00    -0.063 NA
HETATM   24  C   UNK     0       7.857  -1.929   9.986  0.00  0.00     0.002 A 
HETATM   25  C   UNK     0       6.607  -3.869  10.759  0.00  0.00     0.002 A 
HETATM   26  C   UNK     0       7.720  -1.333  11.254  0.00  0.00     0.000 A 
HETATM   27  C   UNK     0       7.015  -2.000  12.271  0.00  0.00     0.000 A 
HETATM   28  C   UNK     0       6.460  -3.268  12.023  0.00  0.00     0.000 A 
ENDBRANCH  17  18
ENDBRANCH   2  17
TORSDOF 3
ENDMDL
