MODEL 1
REMARK VINA RESULT:      -6.6      0.000      0.000
REMARK  19 active torsions:
REMARK  status: ('A' for Active; 'I' for Inactive)
REMARK    1  A    between atoms: C_1  and  C_13 
REMARK    2  A    between atoms: C_3  and  O_7 
REMARK    3  A    between atoms: C_4  and  O_9 
REMARK    4  A    between atoms: C_5  and  O_11 
REMARK    5  A    between atoms: O_7  and  C_8 
REMARK    6  A    between atoms: O_9  and  C_10 
REMARK    7  A    between atoms: O_11  and  C_12 
REMARK    8  A    between atoms: C_13  and  C_16 
REMARK       I    between atoms: C_16  and  N_18 
REMARK    9  A    between atoms: C_23  and  C_24 
REMARK   10  A    between atoms: C_24  and  O_26 
REMARK   11  A    between atoms: O_26  and  C_27 
REMARK   12  A    between atoms: C_27  and  C_28 
REMARK   13  A    between atoms: C_27  and  C_37 
REMARK   14  A    between atoms: C_28  and  C_29 
REMARK   15  A    between atoms: C_29  and  C_30 
REMARK   16  A    between atoms: C_30  and  C_31 
REMARK   17  A    between atoms: C_37  and  C_38 
REMARK   18  A    between atoms: C_38  and  C_39 
REMARK   19  A    between atoms: C_39  and  C_40 
ROOT
HETATM    1  C   UNL     1       1.771   2.267  -8.395  1.00  0.00     0.282 C 
HETATM    2  O   UNL     1       1.578   2.301  -7.202  1.00  0.00    -0.263 OA
ENDROOT
BRANCH   1   3
HETATM    3  C   UNL     1       0.913   3.091  -9.320  1.00  0.00     0.098 C 
HETATM    4  N   UNL     1      -0.358   2.397  -9.568  1.00  0.00    -0.333 N 
HETATM    5  C   UNL     1      -0.562   1.149  -9.103  1.00  0.00     0.298 C 
HETATM    6  C   UNL     1      -1.406   3.093 -10.328  1.00  0.00    -0.001 C 
HETATM    7  O   UNL     1       0.280   0.615  -8.411  1.00  0.00    -0.266 OA
HETATM    8  C   UNL     1      -1.671   4.451  -9.671  1.00  0.00    -0.050 C 
HETATM    9  H   UNL     1      -1.073   3.242 -11.355  1.00  0.00     0.064 H 
HETATM   10  H   UNL     1      -2.318   2.498 -10.320  1.00  0.00     0.064 H 
HETATM   11  C   UNL     1      -0.357   5.226  -9.560  1.00  0.00    -0.061 C 
HETATM   12  H   UNL     1      -2.377   5.017 -10.279  1.00  0.00     0.035 H 
HETATM   13  H   UNL     1      -2.089   4.298  -8.676  1.00  0.00     0.035 H 
HETATM   14  C   UNL     1       0.623   4.447  -8.679  1.00  0.00    -0.037 C 
HETATM   15  H   UNL     1       0.073   5.356 -10.553  1.00  0.00     0.033 H 
HETATM   16  H   UNL     1      -0.547   6.202  -9.116  1.00  0.00     0.033 H 
HETATM   17  H   UNL     1       1.552   5.011  -8.582  1.00  0.00     0.036 H 
HETATM   18  H   UNL     1       0.185   4.294  -7.694  1.00  0.00     0.036 H 
HETATM   19  H   UNL     1       1.434   3.237 -10.266  1.00  0.00     0.088 H 
BRANCH   5  20
HETATM   20  C   UNL     1      -1.834   0.416  -9.443  1.00  0.00     0.350 C 
HETATM   21  F   UNL     1      -1.955   0.312 -10.832  1.00  0.00    -0.190 F 
HETATM   22  F   UNL     1      -2.928   1.119  -8.930  1.00  0.00    -0.190 F 
BRANCH  20  23
HETATM   23  C   UNL     1      -1.794  -0.964  -8.839  1.00  0.00     0.028 A 
HETATM   24  C   UNL     1      -0.883  -1.895  -9.302  1.00  0.00    -0.035 A 
HETATM   25  C   UNL     1      -0.843  -3.165  -8.748  1.00  0.00     0.105 A 
HETATM   26  H   UNL     1      -0.201  -1.632 -10.097  1.00  0.00     0.089 H 
HETATM   27  C   UNL     1      -1.725  -3.504  -7.729  1.00  0.00     0.135 A 
HETATM   28  C   UNL     1      -2.635  -2.564  -7.261  1.00  0.00     0.105 A 
HETATM   29  C   UNL     1      -2.669  -1.295  -7.820  1.00  0.00    -0.035 A 
HETATM   30  H   UNL     1      -3.379  -0.565  -7.460  1.00  0.00     0.089 H 
BRANCH  25  31
HETATM   31  O   UNL     1       0.053  -4.080  -9.205  1.00  0.00    -0.353 OA
BRANCH  31  32
HETATM   32  C   UNL     1      -0.202  -4.245 -10.602  1.00  0.00     0.010 C 
HETATM   33  H   UNL     1       0.715  -4.553 -11.104  1.00  0.00     0.066 H 
HETATM   34  H   UNL     1      -0.968  -5.006 -10.744  1.00  0.00     0.066 H 
HETATM   35  H   UNL     1      -0.545  -3.300 -11.022  1.00  0.00     0.066 H 
ENDBRANCH  31  32
ENDBRANCH  25  31
BRANCH  27  36
HETATM   36  O   UNL     1      -1.690  -4.751  -7.183  1.00  0.00    -0.351 OA
BRANCH  36  37
HETATM   37  C   UNL     1      -2.546  -5.574  -7.977  1.00  0.00     0.011 C 
HETATM   38  H   UNL     1      -3.482  -5.048  -8.167  1.00  0.00     0.067 H 
HETATM   39  H   UNL     1      -2.056  -5.800  -8.925  1.00  0.00     0.067 H 
HETATM   40  H   UNL     1      -2.753  -6.503  -7.444  1.00  0.00     0.067 H 
ENDBRANCH  36  37
ENDBRANCH  27  36
BRANCH  28  41
HETATM   41  O   UNL     1      -3.497  -2.890  -6.260  1.00  0.00    -0.353 OA
BRANCH  41  42
HETATM   42  C   UNL     1      -4.811  -2.863  -6.821  1.00  0.00     0.010 C 
HETATM   43  H   UNL     1      -5.109  -1.831  -6.998  1.00  0.00     0.066 H 
HETATM   44  H   UNL     1      -4.815  -3.410  -7.762  1.00  0.00     0.066 H 
HETATM   45  H   UNL     1      -5.511  -3.330  -6.127  1.00  0.00     0.066 H 
ENDBRANCH  41  42
ENDBRANCH  28  41
ENDBRANCH  20  23
ENDBRANCH   5  20
ENDBRANCH   1   3
BRANCH   1  46
HETATM   46  O   UNL     1       2.749   1.496  -8.894  1.00  0.00    -0.314 OA
BRANCH  46  47
HETATM   47  C   UNL     1       4.137   1.794  -8.588  1.00  0.00     0.048 C 
HETATM   48  H   UNL     1       4.331   1.582  -7.536  1.00  0.00     0.084 H 
BRANCH  47  49
HETATM   49  C   UNL     1       4.416   3.272  -8.870  1.00  0.00    -0.040 C 
HETATM   50  H   UNL     1       5.042   3.361  -9.757  1.00  0.00     0.036 H 
HETATM   51  H   UNL     1       3.474   3.794  -9.034  1.00  0.00     0.036 H 
BRANCH  49  52
HETATM   52  C   UNL     1       5.140   3.891  -7.672  1.00  0.00    -0.059 C 
HETATM   53  H   UNL     1       6.201   3.993  -7.901  1.00  0.00     0.033 H 
HETATM   54  H   UNL     1       4.719   4.874  -7.461  1.00  0.00     0.033 H 
BRANCH  52  55
HETATM   55  C   UNL     1       4.966   2.989  -6.449  1.00  0.00    -0.040 C 
HETATM   56  H   UNL     1       3.950   3.086  -6.067  1.00  0.00     0.040 H 
HETATM   57  H   UNL     1       5.150   1.952  -6.733  1.00  0.00     0.040 H 
BRANCH  55  58
HETATM   58  C   UNL     1       5.946   3.398  -5.379  1.00  0.00    -0.041 A 
HETATM   59  C   UNL     1       6.610   4.607  -5.464  1.00  0.00     0.008 A 
HETATM   60  N   UNL     1       7.463   4.975  -4.529  1.00  0.00    -0.273 NA
HETATM   61  H   UNL     1       6.421   5.262  -6.302  1.00  0.00     0.115 H 
HETATM   62  C   UNL     1       7.725   4.208  -3.489  1.00  0.00     0.002 A 
HETATM   63  C   UNL     1       7.103   2.983  -3.339  1.00  0.00    -0.066 A 
HETATM   64  H   UNL     1       8.434   4.542  -2.744  1.00  0.00     0.114 H 
HETATM   65  C   UNL     1       6.195   2.565  -4.300  1.00  0.00    -0.074 A 
HETATM   66  H   UNL     1       7.321   2.359  -2.485  1.00  0.00     0.085 H 
HETATM   67  H   UNL     1       5.694   1.613  -4.209  1.00  0.00     0.084 H 
ENDBRANCH  55  58
ENDBRANCH  52  55
ENDBRANCH  49  52
ENDBRANCH  47  49
BRANCH  47  68
HETATM   68  C   UNL     1       5.048   0.928  -9.460  1.00  0.00    -0.040 C 
HETATM   69  H   UNL     1       4.445   0.207 -10.012  1.00  0.00     0.036 H 
HETATM   70  H   UNL     1       5.590   1.563 -10.162  1.00  0.00     0.036 H 
BRANCH  68  71
HETATM   71  C   UNL     1       6.047   0.183  -8.571  1.00  0.00    -0.059 C 
HETATM   72  H   UNL     1       5.631   0.074  -7.570  1.00  0.00     0.033 H 
HETATM   73  H   UNL     1       6.243  -0.803  -8.993  1.00  0.00     0.033 H 
BRANCH  71  74
HETATM   74  C   UNL     1       7.354   0.975  -8.498  1.00  0.00    -0.041 C 
HETATM   75  H   UNL     1       8.028   0.637  -9.286  1.00  0.00     0.040 H 
HETATM   76  H   UNL     1       7.144   2.036  -8.629  1.00  0.00     0.040 H 
BRANCH  74  77
HETATM   77  C   UNL     1       8.001   0.753  -7.156  1.00  0.00    -0.058 A 
HETATM   78  C   UNL     1       9.023   1.582  -6.735  1.00  0.00    -0.077 A 
HETATM   79  C   UNL     1       9.616   1.377  -5.502  1.00  0.00    -0.082 A 
HETATM   80  H   UNL     1       9.360   2.388  -7.368  1.00  0.00     0.084 H 
HETATM   81  C   UNL     1       9.185   0.344  -4.691  1.00  0.00    -0.083 A 
HETATM   82  H   UNL     1      10.416   2.024  -5.174  1.00  0.00     0.083 H 
HETATM   83  C   UNL     1       8.161  -0.485  -5.111  1.00  0.00    -0.082 A 
HETATM   84  H   UNL     1       9.649   0.184  -3.729  1.00  0.00     0.083 H 
HETATM   85  C   UNL     1       7.566  -0.278  -6.342  1.00  0.00    -0.077 A 
HETATM   86  H   UNL     1       7.825  -1.292  -4.477  1.00  0.00     0.083 H 
HETATM   87  H   UNL     1       6.766  -0.925  -6.670  1.00  0.00     0.084 H 
ENDBRANCH  74  77
ENDBRANCH  71  74
ENDBRANCH  68  71
ENDBRANCH  47  68
ENDBRANCH  46  47
ENDBRANCH   1  46
TORSDOF 19
ENDMDL
MODEL 2
REMARK VINA RESULT:      -6.5      2.972     10.048
REMARK  19 active torsions:
REMARK  status: ('A' for Active; 'I' for Inactive)
REMARK    1  A    between atoms: C_1  and  C_13 
REMARK    2  A    between atoms: C_3  and  O_7 
REMARK    3  A    between atoms: C_4  and  O_9 
REMARK    4  A    between atoms: C_5  and  O_11 
REMARK    5  A    between atoms: O_7  and  C_8 
REMARK    6  A    between atoms: O_9  and  C_10 
REMARK    7  A    between atoms: O_11  and  C_12 
REMARK    8  A    between atoms: C_13  and  C_16 
REMARK       I    between atoms: C_16  and  N_18 
REMARK    9  A    between atoms: C_23  and  C_24 
REMARK   10  A    between atoms: C_24  and  O_26 
REMARK   11  A    between atoms: O_26  and  C_27 
REMARK   12  A    between atoms: C_27  and  C_28 
REMARK   13  A    between atoms: C_27  and  C_37 
REMARK   14  A    between atoms: C_28  and  C_29 
REMARK   15  A    between atoms: C_29  and  C_30 
REMARK   16  A    between atoms: C_30  and  C_31 
REMARK   17  A    between atoms: C_37  and  C_38 
REMARK   18  A    between atoms: C_38  and  C_39 
REMARK   19  A    between atoms: C_39  and  C_40 
ROOT
HETATM    1  C   UNL     1       1.073   1.188  -8.863  1.00  0.00     0.282 C 
HETATM    2  O   UNL     1       1.775   0.294  -8.451  1.00  0.00    -0.263 OA
ENDROOT
BRANCH   1   3
HETATM    3  C   UNL     1       1.670   2.290  -9.700  1.00  0.00     0.098 C 
HETATM    4  N   UNL     1       2.114   3.389  -8.830  1.00  0.00    -0.333 N 
HETATM    5  C   UNL     1       1.845   3.371  -7.510  1.00  0.00     0.298 C 
HETATM    6  C   UNL     1       2.861   4.504  -9.427  1.00  0.00    -0.001 C 
HETATM    7  O   UNL     1       1.296   2.408  -7.016  1.00  0.00    -0.266 OA
HETATM    8  C   UNL     1       4.054   3.938 -10.203  1.00  0.00    -0.050 C 
HETATM    9  H   UNL     1       2.212   5.056 -10.106  1.00  0.00     0.064 H 
HETATM   10  H   UNL     1       3.217   5.167  -8.639  1.00  0.00     0.064 H 
HETATM   11  C   UNL     1       3.557   2.903 -11.214  1.00  0.00    -0.061 C 
HETATM   12  H   UNL     1       4.562   4.747 -10.729  1.00  0.00     0.035 H 
HETATM   13  H   UNL     1       4.748   3.464  -9.508  1.00  0.00     0.035 H 
HETATM   14  C   UNL     1       2.873   1.752 -10.473  1.00  0.00    -0.037 C 
HETATM   15  H   UNL     1       2.844   3.372 -11.892  1.00  0.00     0.033 H 
HETATM   16  H   UNL     1       4.400   2.517 -11.785  1.00  0.00     0.033 H 
HETATM   17  H   UNL     1       2.539   1.004 -11.193  1.00  0.00     0.036 H 
HETATM   18  H   UNL     1       3.577   1.299  -9.777  1.00  0.00     0.036 H 
HETATM   19  H   UNL     1       0.923   2.664 -10.399  1.00  0.00     0.088 H 
BRANCH   5  20
HETATM   20  C   UNL     1       2.224   4.547  -6.647  1.00  0.00     0.350 C 
HETATM   21  F   UNL     1       1.433   4.554  -5.494  1.00  0.00    -0.190 F 
HETATM   22  F   UNL     1       2.021   5.733  -7.360  1.00  0.00    -0.190 F 
BRANCH  20  23
HETATM   23  C   UNL     1       3.676   4.436  -6.259  1.00  0.00     0.028 A 
HETATM   24  C   UNL     1       4.473   5.565  -6.238  1.00  0.00    -0.035 A 
HETATM   25  C   UNL     1       5.809   5.467  -5.881  1.00  0.00     0.105 A 
HETATM   26  H   UNL     1       4.054   6.526  -6.500  1.00  0.00     0.089 H 
HETATM   27  C   UNL     1       6.349   4.229  -5.550  1.00  0.00     0.135 A 
HETATM   28  C   UNL     1       5.543   3.097  -5.567  1.00  0.00     0.105 A 
HETATM   29  C   UNL     1       4.207   3.204  -5.925  1.00  0.00    -0.035 A 
HETATM   30  H   UNL     1       3.581   2.324  -5.942  1.00  0.00     0.089 H 
BRANCH  25  31
HETATM   31  O   UNL     1       6.593   6.579  -5.861  1.00  0.00    -0.353 OA
BRANCH  31  32
HETATM   32  C   UNL     1       6.211   7.372  -6.986  1.00  0.00     0.010 C 
HETATM   33  H   UNL     1       6.820   7.097  -7.848  1.00  0.00     0.066 H 
HETATM   34  H   UNL     1       5.160   7.199  -7.214  1.00  0.00     0.066 H 
HETATM   35  H   UNL     1       6.365   8.426  -6.756  1.00  0.00     0.066 H 
ENDBRANCH  31  32
ENDBRANCH  25  31
BRANCH  27  36
HETATM   36  O   UNL     1       7.661   4.128  -5.200  1.00  0.00    -0.351 OA
BRANCH  36  37
HETATM   37  C   UNL     1       7.724   4.301  -3.783  1.00  0.00     0.011 C 
HETATM   38  H   UNL     1       8.118   5.292  -3.555  1.00  0.00     0.067 H 
HETATM   39  H   UNL     1       6.724   4.201  -3.359  1.00  0.00     0.067 H 
HETATM   40  H   UNL     1       8.379   3.542  -3.354  1.00  0.00     0.067 H 
ENDBRANCH  36  37
ENDBRANCH  27  36
BRANCH  28  41
HETATM   41  O   UNL     1       6.065   1.885  -5.238  1.00  0.00    -0.353 OA
BRANCH  41  42
HETATM   42  C   UNL     1       6.514   1.285  -6.455  1.00  0.00     0.010 C 
HETATM   43  H   UNL     1       5.660   1.108  -7.109  1.00  0.00     0.066 H 
HETATM   44  H   UNL     1       7.219   1.950  -6.950  1.00  0.00     0.066 H 
HETATM   45  H   UNL     1       7.004   0.337  -6.234  1.00  0.00     0.066 H 
ENDBRANCH  41  42
ENDBRANCH  28  41
ENDBRANCH  20  23
ENDBRANCH   5  20
ENDBRANCH   1   3
BRANCH   1  46
HETATM   46  O   UNL     1      -0.238   1.198  -8.575  1.00  0.00    -0.314 OA
BRANCH  46  47
HETATM   47  C   UNL     1      -1.062   0.047  -8.896  1.00  0.00     0.048 C 
HETATM   48  H   UNL     1      -0.572  -0.861  -8.543  1.00  0.00     0.084 H 
BRANCH  47  49
HETATM   49  C   UNL     1      -1.254  -0.037 -10.412  1.00  0.00    -0.040 C 
HETATM   50  H   UNL     1      -2.316  -0.112 -10.640  1.00  0.00     0.036 H 
HETATM   51  H   UNL     1      -0.844   0.858 -10.880  1.00  0.00     0.036 H 
BRANCH  49  52
HETATM   52  C   UNL     1      -0.529  -1.271 -10.951  1.00  0.00    -0.059 C 
HETATM   53  H   UNL     1      -1.192  -1.821 -11.620  1.00  0.00     0.033 H 
HETATM   54  H   UNL     1       0.362  -0.961 -11.498  1.00  0.00     0.033 H 
BRANCH  52  55
HETATM   55  C   UNL     1      -0.121  -2.173  -9.784  1.00  0.00    -0.040 C 
HETATM   56  H   UNL     1       0.934  -2.018  -9.556  1.00  0.00     0.040 H 
HETATM   57  H   UNL     1      -0.722  -1.928  -8.908  1.00  0.00     0.040 H 
BRANCH  55  58
HETATM   58  C   UNL     1      -0.347  -3.615 -10.160  1.00  0.00    -0.041 A 
HETATM   59  C   UNL     1      -0.987  -3.938 -11.341  1.00  0.00     0.008 A 
HETATM   60  N   UNL     1      -1.183  -5.197 -11.680  1.00  0.00    -0.273 NA
HETATM   61  H   UNL     1      -1.324  -3.150 -11.999  1.00  0.00     0.115 H 
HETATM   62  C   UNL     1      -0.789  -6.191 -10.909  1.00  0.00     0.002 A 
HETATM   63  C   UNL     1      -0.146  -5.945  -9.711  1.00  0.00    -0.066 A 
HETATM   64  H   UNL     1      -0.970  -7.211 -11.219  1.00  0.00     0.114 H 
HETATM   65  C   UNL     1       0.081  -4.634  -9.324  1.00  0.00    -0.074 A 
HETATM   66  H   UNL     1       0.174  -6.764  -9.084  1.00  0.00     0.085 H 
HETATM   67  H   UNL     1       0.582  -4.412  -8.393  1.00  0.00     0.084 H 
ENDBRANCH  55  58
ENDBRANCH  52  55
ENDBRANCH  49  52
ENDBRANCH  47  49
BRANCH  47  68
HETATM   68  C   UNL     1      -2.425   0.189  -8.217  1.00  0.00    -0.040 C 
HETATM   69  H   UNL     1      -2.408  -0.326  -7.256  1.00  0.00     0.036 H 
HETATM   70  H   UNL     1      -2.643   1.246  -8.058  1.00  0.00     0.036 H 
BRANCH  68  71
HETATM   71  C   UNL     1      -3.506  -0.426  -9.107  1.00  0.00    -0.059 C 
HETATM   72  H   UNL     1      -3.884   0.331  -9.795  1.00  0.00     0.033 H 
HETATM   73  H   UNL     1      -3.080  -1.252  -9.677  1.00  0.00     0.033 H 
BRANCH  71  74
HETATM   74  C   UNL     1      -4.652  -0.943  -8.237  1.00  0.00    -0.041 C 
HETATM   75  H   UNL     1      -4.695  -0.366  -7.312  1.00  0.00     0.040 H 
HETATM   76  H   UNL     1      -5.593  -0.837  -8.775  1.00  0.00     0.040 H 
BRANCH  74  77
HETATM   77  C   UNL     1      -4.419  -2.395  -7.911  1.00  0.00    -0.058 A 
HETATM   78  C   UNL     1      -3.726  -3.200  -8.795  1.00  0.00    -0.077 A 
HETATM   79  C   UNL     1      -3.513  -4.533  -8.495  1.00  0.00    -0.082 A 
HETATM   80  H   UNL     1      -3.352  -2.788  -9.720  1.00  0.00     0.084 H 
HETATM   81  C   UNL     1      -3.992  -5.060  -7.311  1.00  0.00    -0.083 A 
HETATM   82  H   UNL     1      -2.972  -5.162  -9.186  1.00  0.00     0.083 H 
HETATM   83  C   UNL     1      -4.684  -4.255  -6.425  1.00  0.00    -0.082 A 
HETATM   84  H   UNL     1      -3.826  -6.102  -7.077  1.00  0.00     0.083 H 
HETATM   85  C   UNL     1      -4.894  -2.921  -6.723  1.00  0.00    -0.077 A 
HETATM   86  H   UNL     1      -5.059  -4.667  -5.500  1.00  0.00     0.083 H 
HETATM   87  H   UNL     1      -5.435  -2.292  -6.032  1.00  0.00     0.084 H 
ENDBRANCH  74  77
ENDBRANCH  71  74
ENDBRANCH  68  71
ENDBRANCH  47  68
ENDBRANCH  46  47
ENDBRANCH   1  46
TORSDOF 19
ENDMDL
MODEL 3
REMARK VINA RESULT:      -6.5      2.945     10.039
REMARK  19 active torsions:
REMARK  status: ('A' for Active; 'I' for Inactive)
REMARK    1  A    between atoms: C_1  and  C_13 
REMARK    2  A    between atoms: C_3  and  O_7 
REMARK    3  A    between atoms: C_4  and  O_9 
REMARK    4  A    between atoms: C_5  and  O_11 
REMARK    5  A    between atoms: O_7  and  C_8 
REMARK    6  A    between atoms: O_9  and  C_10 
REMARK    7  A    between atoms: O_11  and  C_12 
REMARK    8  A    between atoms: C_13  and  C_16 
REMARK       I    between atoms: C_16  and  N_18 
REMARK    9  A    between atoms: C_23  and  C_24 
REMARK   10  A    between atoms: C_24  and  O_26 
REMARK   11  A    between atoms: O_26  and  C_27 
REMARK   12  A    between atoms: C_27  and  C_28 
REMARK   13  A    between atoms: C_27  and  C_37 
REMARK   14  A    between atoms: C_28  and  C_29 
REMARK   15  A    between atoms: C_29  and  C_30 
REMARK   16  A    between atoms: C_30  and  C_31 
REMARK   17  A    between atoms: C_37  and  C_38 
REMARK   18  A    between atoms: C_38  and  C_39 
REMARK   19  A    between atoms: C_39  and  C_40 
ROOT
HETATM    1  C   UNL     1       1.168   1.140  -8.829  1.00  0.00     0.282 C 
HETATM    2  O   UNL     1       1.808   0.193  -8.437  1.00  0.00    -0.263 OA
ENDROOT
BRANCH   1   3
HETATM    3  C   UNL     1       1.838   2.217  -9.644  1.00  0.00     0.098 C 
HETATM    4  N   UNL     1       2.256   3.317  -8.764  1.00  0.00    -0.333 N 
HETATM    5  C   UNL     1       1.911   3.324  -7.461  1.00  0.00     0.298 C 
HETATM    6  C   UNL     1       3.062   4.407  -9.331  1.00  0.00    -0.001 C 
HETATM    7  O   UNL     1       1.312   2.381  -6.988  1.00  0.00    -0.266 OA
HETATM    8  C   UNL     1       4.284   3.803 -10.029  1.00  0.00    -0.050 C 
HETATM    9  H   UNL     1       2.466   4.964 -10.053  1.00  0.00     0.064 H 
HETATM   10  H   UNL     1       3.388   5.073  -8.532  1.00  0.00     0.064 H 
HETATM   11  C   UNL     1       3.822   2.766 -11.055  1.00  0.00    -0.061 C 
HETATM   12  H   UNL     1       4.840   4.593 -10.535  1.00  0.00     0.035 H 
HETATM   13  H   UNL     1       4.926   3.323  -9.290  1.00  0.00     0.035 H 
HETATM   14  C   UNL     1       3.070   1.641 -10.339  1.00  0.00    -0.037 C 
HETATM   15  H   UNL     1       3.160   3.241 -11.779  1.00  0.00     0.033 H 
HETATM   16  H   UNL     1       4.688   2.353 -11.570  1.00  0.00     0.033 H 
HETATM   17  H   UNL     1       2.760   0.891 -11.068  1.00  0.00     0.036 H 
HETATM   18  H   UNL     1       3.722   1.181  -9.598  1.00  0.00     0.036 H 
HETATM   19  H   UNL     1       1.141   2.597 -10.390  1.00  0.00     0.088 H 
BRANCH   5  20
HETATM   20  C   UNL     1       2.268   4.503  -6.593  1.00  0.00     0.350 C 
HETATM   21  F   UNL     1       1.463   4.501  -5.450  1.00  0.00    -0.190 F 
HETATM   22  F   UNL     1       2.061   5.687  -7.307  1.00  0.00    -0.190 F 
BRANCH  20  23
HETATM   23  C   UNL     1       3.716   4.407  -6.188  1.00  0.00     0.028 A 
HETATM   24  C   UNL     1       4.250   3.187  -5.818  1.00  0.00    -0.035 A 
HETATM   25  C   UNL     1       5.582   3.095  -5.445  1.00  0.00     0.105 A 
HETATM   26  H   UNL     1       3.628   2.304  -5.820  1.00  0.00     0.089 H 
HETATM   27  C   UNL     1       6.380   4.233  -5.437  1.00  0.00     0.135 A 
HETATM   28  C   UNL     1       5.842   5.457  -5.815  1.00  0.00     0.105 A 
HETATM   29  C   UNL     1       4.508   5.541  -6.187  1.00  0.00    -0.035 A 
HETATM   30  H   UNL     1       4.088   6.493  -6.477  1.00  0.00     0.089 H 
BRANCH  25  31
HETATM   31  O   UNL     1       6.106   1.893  -5.081  1.00  0.00    -0.353 OA
BRANCH  31  32
HETATM   32  C   UNL     1       6.563   1.263  -6.279  1.00  0.00     0.010 C 
HETATM   33  H   UNL     1       5.922   1.557  -7.111  1.00  0.00     0.066 H 
HETATM   34  H   UNL     1       7.588   1.570  -6.483  1.00  0.00     0.066 H 
HETATM   35  H   UNL     1       6.524   0.181  -6.158  1.00  0.00     0.066 H 
ENDBRANCH  31  32
ENDBRANCH  25  31
BRANCH  27  36
HETATM   36  O   UNL     1       7.688   4.146  -5.070  1.00  0.00    -0.351 OA
BRANCH  36  37
HETATM   37  C   UNL     1       7.727   4.270  -3.647  1.00  0.00     0.011 C 
HETATM   38  H   UNL     1       8.627   4.812  -3.354  1.00  0.00     0.067 H 
HETATM   39  H   UNL     1       6.847   4.816  -3.306  1.00  0.00     0.067 H 
HETATM   40  H   UNL     1       7.737   3.277  -3.197  1.00  0.00     0.067 H 
ENDBRANCH  36  37
ENDBRANCH  27  36
BRANCH  28  41
HETATM   41  O   UNL     1       6.620   6.573  -5.814  1.00  0.00    -0.353 OA
BRANCH  41  42
HETATM   42  C   UNL     1       6.853   6.914  -7.182  1.00  0.00     0.010 C 
HETATM   43  H   UNL     1       7.706   6.349  -7.557  1.00  0.00     0.066 H 
HETATM   44  H   UNL     1       5.970   6.674  -7.773  1.00  0.00     0.066 H 
HETATM   45  H   UNL     1       7.062   7.981  -7.260  1.00  0.00     0.066 H 
ENDBRANCH  41  42
ENDBRANCH  28  41
ENDBRANCH  20  23
ENDBRANCH   5  20
ENDBRANCH   1   3
BRANCH   1  46
HETATM   46  O   UNL     1      -0.139   1.233  -8.539  1.00  0.00    -0.314 OA
BRANCH  46  47
HETATM   47  C   UNL     1      -1.057   0.199  -8.982  1.00  0.00     0.048 C 
HETATM   48  H   UNL     1      -0.740  -0.764  -8.583  1.00  0.00     0.084 H 
BRANCH  47  49
HETATM   49  C   UNL     1      -1.061   0.140 -10.511  1.00  0.00    -0.040 C 
HETATM   50  H   UNL     1      -1.997   0.549 -10.889  1.00  0.00     0.036 H 
HETATM   51  H   UNL     1      -0.226   0.724 -10.899  1.00  0.00     0.036 H 
BRANCH  49  52
HETATM   52  C   UNL     1      -0.920  -1.314 -10.965  1.00  0.00    -0.059 C 
HETATM   53  H   UNL     1      -1.906  -1.722 -11.190  1.00  0.00     0.033 H 
HETATM   54  H   UNL     1      -0.297  -1.358 -11.858  1.00  0.00     0.033 H 
BRANCH  52  55
HETATM   55  C   UNL     1      -0.271  -2.136  -9.850  1.00  0.00    -0.040 C 
HETATM   56  H   UNL     1       0.790  -1.892  -9.789  1.00  0.00     0.040 H 
HETATM   57  H   UNL     1      -0.752  -1.904  -8.900  1.00  0.00     0.040 H 
BRANCH  55  58
HETATM   58  C   UNL     1      -0.432  -3.605 -10.148  1.00  0.00    -0.041 A 
HETATM   59  C   UNL     1      -1.029  -4.018 -11.324  1.00  0.00     0.008 A 
HETATM   60  N   UNL     1      -1.168  -5.301 -11.595  1.00  0.00    -0.273 NA
HETATM   61  H   UNL     1      -1.378  -3.282 -12.033  1.00  0.00     0.115 H 
HETATM   62  C   UNL     1      -0.757  -6.234 -10.760  1.00  0.00     0.002 A 
HETATM   63  C   UNL     1      -0.155  -5.896  -9.563  1.00  0.00    -0.066 A 
HETATM   64  H   UNL     1      -0.891  -7.276 -11.015  1.00  0.00     0.114 H 
HETATM   65  C   UNL     1       0.013  -4.558  -9.245  1.00  0.00    -0.074 A 
HETATM   66  H   UNL     1       0.179  -6.666  -8.882  1.00  0.00     0.085 H 
HETATM   67  H   UNL     1       0.480  -4.264  -8.317  1.00  0.00     0.084 H 
ENDBRANCH  55  58
ENDBRANCH  52  55
ENDBRANCH  49  52
ENDBRANCH  47  49
BRANCH  47  68
HETATM   68  C   UNL     1      -2.467   0.520  -8.481  1.00  0.00    -0.040 C 
HETATM   69  H   UNL     1      -2.463   1.488  -7.979  1.00  0.00     0.036 H 
HETATM   70  H   UNL     1      -3.154   0.553  -9.327  1.00  0.00     0.036 H 
BRANCH  68  71
HETATM   71  C   UNL     1      -2.918  -0.563  -7.499  1.00  0.00    -0.059 C 
HETATM   72  H   UNL     1      -2.142  -1.323  -7.414  1.00  0.00     0.033 H 
HETATM   73  H   UNL     1      -3.096  -0.115  -6.521  1.00  0.00     0.033 H 
BRANCH  71  74
HETATM   74  C   UNL     1      -4.210  -1.207  -8.007  1.00  0.00    -0.041 C 
HETATM   75  H   UNL     1      -5.063  -0.762  -7.494  1.00  0.00     0.040 H 
HETATM   76  H   UNL     1      -4.303  -1.036  -9.079  1.00  0.00     0.040 H 
BRANCH  74  77
HETATM   77  C   UNL     1      -4.174  -2.687  -7.733  1.00  0.00    -0.058 A 
HETATM   78  C   UNL     1      -3.595  -3.546  -8.648  1.00  0.00    -0.077 A 
HETATM   79  C   UNL     1      -3.562  -4.905  -8.395  1.00  0.00    -0.082 A 
HETATM   80  H   UNL     1      -3.169  -3.156  -9.560  1.00  0.00     0.084 H 
HETATM   81  C   UNL     1      -4.108  -5.404  -7.228  1.00  0.00    -0.083 A 
HETATM   82  H   UNL     1      -3.111  -5.576  -9.110  1.00  0.00     0.083 H 
HETATM   83  C   UNL     1      -4.687  -4.546  -6.312  1.00  0.00    -0.082 A 
HETATM   84  H   UNL     1      -4.084  -6.467  -7.031  1.00  0.00     0.083 H 
HETATM   85  C   UNL     1      -4.716  -3.186  -6.563  1.00  0.00    -0.077 A 
HETATM   86  H   UNL     1      -5.114  -4.936  -5.400  1.00  0.00     0.083 H 
HETATM   87  H   UNL     1      -5.168  -2.515  -5.848  1.00  0.00     0.084 H 
ENDBRANCH  74  77
ENDBRANCH  71  74
ENDBRANCH  68  71
ENDBRANCH  47  68
ENDBRANCH  46  47
ENDBRANCH   1  46
TORSDOF 19
ENDMDL
MODEL 4
REMARK VINA RESULT:      -6.4      2.581      5.331
REMARK  19 active torsions:
REMARK  status: ('A' for Active; 'I' for Inactive)
REMARK    1  A    between atoms: C_1  and  C_13 
REMARK    2  A    between atoms: C_3  and  O_7 
REMARK    3  A    between atoms: C_4  and  O_9 
REMARK    4  A    between atoms: C_5  and  O_11 
REMARK    5  A    between atoms: O_7  and  C_8 
REMARK    6  A    between atoms: O_9  and  C_10 
REMARK    7  A    between atoms: O_11  and  C_12 
REMARK    8  A    between atoms: C_13  and  C_16 
REMARK       I    between atoms: C_16  and  N_18 
REMARK    9  A    between atoms: C_23  and  C_24 
REMARK   10  A    between atoms: C_24  and  O_26 
REMARK   11  A    between atoms: O_26  and  C_27 
REMARK   12  A    between atoms: C_27  and  C_28 
REMARK   13  A    between atoms: C_27  and  C_37 
REMARK   14  A    between atoms: C_28  and  C_29 
REMARK   15  A    between atoms: C_29  and  C_30 
REMARK   16  A    between atoms: C_30  and  C_31 
REMARK   17  A    between atoms: C_37  and  C_38 
REMARK   18  A    between atoms: C_38  and  C_39 
REMARK   19  A    between atoms: C_39  and  C_40 
ROOT
HETATM    1  C   UNL     1      -0.990   0.483  -9.242  1.00  0.00     0.282 C 
HETATM    2  O   UNL     1      -1.594   0.479  -8.196  1.00  0.00    -0.263 OA
ENDROOT
BRANCH   1   3
HETATM    3  C   UNL     1      -1.537  -0.265 -10.430  1.00  0.00     0.098 C 
HETATM    4  N   UNL     1      -1.150  -1.680 -10.348  1.00  0.00    -0.333 N 
HETATM    5  C   UNL     1      -0.308  -2.107  -9.387  1.00  0.00     0.298 C 
HETATM    6  C   UNL     1      -1.703  -2.622 -11.331  1.00  0.00    -0.001 C 
HETATM    7  O   UNL     1       0.080  -1.336  -8.535  1.00  0.00    -0.266 OA
HETATM    8  C   UNL     1      -3.230  -2.497 -11.328  1.00  0.00    -0.050 C 
HETATM    9  H   UNL     1      -1.320  -2.382 -12.322  1.00  0.00     0.064 H 
HETATM   10  H   UNL     1      -1.419  -3.639 -11.062  1.00  0.00     0.064 H 
HETATM   11  C   UNL     1      -3.620  -1.037 -11.569  1.00  0.00    -0.061 C 
HETATM   12  H   UNL     1      -3.648  -3.120 -12.119  1.00  0.00     0.035 H 
HETATM   13  H   UNL     1      -3.620  -2.823 -10.363  1.00  0.00     0.035 H 
HETATM   14  C   UNL     1      -3.061  -0.166 -10.440  1.00  0.00    -0.037 C 
HETATM   15  H   UNL     1      -3.208  -0.704 -12.521  1.00  0.00     0.033 H 
HETATM   16  H   UNL     1      -4.705  -0.949 -11.592  1.00  0.00     0.033 H 
HETATM   17  H   UNL     1      -3.359   0.871 -10.601  1.00  0.00     0.036 H 
HETATM   18  H   UNL     1      -3.452  -0.513  -9.485  1.00  0.00     0.036 H 
HETATM   19  H   UNL     1      -1.137   0.165 -11.348  1.00  0.00     0.088 H 
BRANCH   5  20
HETATM   20  C   UNL     1       0.152  -3.543  -9.370  1.00  0.00     0.350 C 
HETATM   21  F   UNL     1       1.374  -3.633  -8.698  1.00  0.00    -0.190 F 
HETATM   22  F   UNL     1       0.307  -3.997 -10.684  1.00  0.00    -0.190 F 
BRANCH  20  23
HETATM   23  C   UNL     1      -0.874  -4.390  -8.663  1.00  0.00     0.028 A 
HETATM   24  C   UNL     1      -1.735  -3.812  -7.749  1.00  0.00    -0.035 A 
HETATM   25  C   UNL     1      -2.680  -4.588  -7.096  1.00  0.00     0.105 A 
HETATM   26  H   UNL     1      -1.671  -2.753  -7.543  1.00  0.00     0.089 H 
HETATM   27  C   UNL     1      -2.758  -5.951  -7.357  1.00  0.00     0.135 A 
HETATM   28  C   UNL     1      -1.895  -6.528  -8.281  1.00  0.00     0.105 A 
HETATM   29  C   UNL     1      -0.952  -5.744  -8.930  1.00  0.00    -0.035 A 
HETATM   30  H   UNL     1      -0.278  -6.193  -9.646  1.00  0.00     0.089 H 
BRANCH  25  31
HETATM   31  O   UNL     1      -3.526  -4.018  -6.196  1.00  0.00    -0.353 OA
BRANCH  31  32
HETATM   32  C   UNL     1      -4.447  -3.221  -6.944  1.00  0.00     0.010 C 
HETATM   33  H   UNL     1      -3.981  -2.269  -7.197  1.00  0.00     0.066 H 
HETATM   34  H   UNL     1      -4.723  -3.746  -7.859  1.00  0.00     0.066 H 
HETATM   35  H   UNL     1      -5.340  -3.040  -6.346  1.00  0.00     0.066 H 
ENDBRANCH  31  32
ENDBRANCH  25  31
BRANCH  27  36
HETATM   36  O   UNL     1      -3.684  -6.716  -6.718  1.00  0.00    -0.351 OA
BRANCH  36  37
HETATM   37  C   UNL     1      -4.789  -6.862  -7.613  1.00  0.00     0.011 C 
HETATM   38  H   UNL     1      -5.054  -5.887  -8.023  1.00  0.00     0.067 H 
HETATM   39  H   UNL     1      -4.512  -7.535  -8.425  1.00  0.00     0.067 H 
HETATM   40  H   UNL     1      -5.642  -7.274  -7.072  1.00  0.00     0.067 H 
ENDBRANCH  36  37
ENDBRANCH  27  36
BRANCH  28  41
HETATM   41  O   UNL     1      -1.971  -7.860  -8.545  1.00  0.00    -0.353 OA
BRANCH  41  42
HETATM   42  C   UNL     1      -1.110  -8.111  -9.658  1.00  0.00     0.010 C 
HETATM   43  H   UNL     1      -1.649  -8.683 -10.412  1.00  0.00     0.066 H 
HETATM   44  H   UNL     1      -0.783  -7.164 -10.085  1.00  0.00     0.066 H 
HETATM   45  H   UNL     1      -0.241  -8.677  -9.324  1.00  0.00     0.066 H 
ENDBRANCH  41  42
ENDBRANCH  28  41
ENDBRANCH  20  23
ENDBRANCH   5  20
ENDBRANCH   1   3
BRANCH   1  46
HETATM   46  O   UNL     1       0.169   1.152  -9.345  1.00  0.00    -0.314 OA
BRANCH  46  47
HETATM   47  C   UNL     1       0.562   1.734 -10.616  1.00  0.00     0.048 C 
HETATM   48  H   UNL     1       0.115   1.163 -11.430  1.00  0.00     0.084 H 
BRANCH  47  49
HETATM   49  C   UNL     1       2.087   1.696 -10.745  1.00  0.00    -0.040 C 
HETATM   50  H   UNL     1       2.372   0.920 -11.454  1.00  0.00     0.036 H 
HETATM   51  H   UNL     1       2.445   2.662 -11.100  1.00  0.00     0.036 H 
BRANCH  49  52
HETATM   52  C   UNL     1       2.707   1.391  -9.380  1.00  0.00    -0.059 C 
HETATM   53  H   UNL     1       1.970   1.573  -8.597  1.00  0.00     0.033 H 
HETATM   54  H   UNL     1       3.021   0.348  -9.347  1.00  0.00     0.033 H 
BRANCH  52  55
HETATM   55  C   UNL     1       3.920   2.296  -9.158  1.00  0.00    -0.040 C 
HETATM   56  H   UNL     1       4.254   2.698 -10.115  1.00  0.00     0.040 H 
HETATM   57  H   UNL     1       3.646   3.117  -8.496  1.00  0.00     0.040 H 
BRANCH  55  58
HETATM   58  C   UNL     1       5.036   1.498  -8.533  1.00  0.00    -0.041 A 
HETATM   59  C   UNL     1       5.471   0.325  -9.121  1.00  0.00     0.008 A 
HETATM   60  N   UNL     1       6.449  -0.376  -8.584  1.00  0.00    -0.273 NA
HETATM   61  H   UNL     1       5.009  -0.017 -10.036  1.00  0.00     0.115 H 
HETATM   62  C   UNL     1       7.042   0.003  -7.469  1.00  0.00     0.002 A 
HETATM   63  C   UNL     1       6.657   1.162  -6.822  1.00  0.00    -0.066 A 
HETATM   64  H   UNL     1       7.839  -0.600  -7.056  1.00  0.00     0.114 H 
HETATM   65  C   UNL     1       5.635   1.927  -7.359  1.00  0.00    -0.074 A 
HETATM   66  H   UNL     1       7.147   1.466  -5.908  1.00  0.00     0.085 H 
HETATM   67  H   UNL     1       5.313   2.838  -6.876  1.00  0.00     0.084 H 
ENDBRANCH  55  58
ENDBRANCH  52  55
ENDBRANCH  49  52
ENDBRANCH  47  49
BRANCH  47  68
HETATM   68  C   UNL     1       0.081   3.184 -10.683  1.00  0.00    -0.040 C 
HETATM   69  H   UNL     1       0.836   3.795 -11.178  1.00  0.00     0.036 H 
HETATM   70  H   UNL     1      -0.851   3.232 -11.247  1.00  0.00     0.036 H 
BRANCH  68  71
HETATM   71  C   UNL     1      -0.153   3.711  -9.266  1.00  0.00    -0.059 C 
HETATM   72  H   UNL     1      -1.217   3.897  -9.119  1.00  0.00     0.033 H 
HETATM   73  H   UNL     1       0.189   2.970  -8.543  1.00  0.00     0.033 H 
BRANCH  71  74
HETATM   74  C   UNL     1       0.626   5.013  -9.070  1.00  0.00    -0.041 C 
HETATM   75  H   UNL     1       1.138   5.272  -9.997  1.00  0.00     0.040 H 
HETATM   76  H   UNL     1      -0.064   5.811  -8.800  1.00  0.00     0.040 H 
BRANCH  74  77
HETATM   77  C   UNL     1       1.640   4.830  -7.970  1.00  0.00    -0.058 A 
HETATM   78  C   UNL     1       1.418   3.900  -6.973  1.00  0.00    -0.077 A 
HETATM   79  C   UNL     1       2.349   3.733  -5.964  1.00  0.00    -0.082 A 
HETATM   80  H   UNL     1       0.518   3.304  -6.980  1.00  0.00     0.084 H 
HETATM   81  C   UNL     1       3.502   4.496  -5.954  1.00  0.00    -0.083 A 
HETATM   82  H   UNL     1       2.176   3.007  -5.184  1.00  0.00     0.083 H 
HETATM   83  C   UNL     1       3.725   5.426  -6.953  1.00  0.00    -0.082 A 
HETATM   84  H   UNL     1       4.229   4.366  -5.166  1.00  0.00     0.083 H 
HETATM   85  C   UNL     1       2.795   5.590  -7.964  1.00  0.00    -0.077 A 
HETATM   86  H   UNL     1       4.625   6.022  -6.945  1.00  0.00     0.083 H 
HETATM   87  H   UNL     1       2.969   6.316  -8.744  1.00  0.00     0.084 H 
ENDBRANCH  74  77
ENDBRANCH  71  74
ENDBRANCH  68  71
ENDBRANCH  47  68
ENDBRANCH  46  47
ENDBRANCH   1  46
TORSDOF 19
ENDMDL
MODEL 5
REMARK VINA RESULT:      -6.4      3.497      9.749
REMARK  19 active torsions:
REMARK  status: ('A' for Active; 'I' for Inactive)
REMARK    1  A    between atoms: C_1  and  C_13 
REMARK    2  A    between atoms: C_3  and  O_7 
REMARK    3  A    between atoms: C_4  and  O_9 
REMARK    4  A    between atoms: C_5  and  O_11 
REMARK    5  A    between atoms: O_7  and  C_8 
REMARK    6  A    between atoms: O_9  and  C_10 
REMARK    7  A    between atoms: O_11  and  C_12 
REMARK    8  A    between atoms: C_13  and  C_16 
REMARK       I    between atoms: C_16  and  N_18 
REMARK    9  A    between atoms: C_23  and  C_24 
REMARK   10  A    between atoms: C_24  and  O_26 
REMARK   11  A    between atoms: O_26  and  C_27 
REMARK   12  A    between atoms: C_27  and  C_28 
REMARK   13  A    between atoms: C_27  and  C_37 
REMARK   14  A    between atoms: C_28  and  C_29 
REMARK   15  A    between atoms: C_29  and  C_30 
REMARK   16  A    between atoms: C_30  and  C_31 
REMARK   17  A    between atoms: C_37  and  C_38 
REMARK   18  A    between atoms: C_38  and  C_39 
REMARK   19  A    between atoms: C_39  and  C_40 
ROOT
HETATM    1  C   UNL     1       2.210   3.103  -7.566  1.00  0.00     0.282 C 
HETATM    2  O   UNL     1       1.693   2.777  -6.523  1.00  0.00    -0.263 OA
ENDROOT
BRANCH   1   3
HETATM    3  C   UNL     1       2.560   4.548  -7.813  1.00  0.00     0.098 C 
HETATM    4  N   UNL     1       3.943   4.804  -7.386  1.00  0.00    -0.333 N 
HETATM    5  C   UNL     1       4.652   3.853  -6.748  1.00  0.00     0.298 C 
HETATM    6  C   UNL     1       4.539   6.116  -7.673  1.00  0.00    -0.001 C 
HETATM    7  O   UNL     1       4.177   2.748  -6.587  1.00  0.00    -0.266 OA
HETATM    8  C   UNL     1       4.391   6.407  -9.170  1.00  0.00    -0.050 C 
HETATM    9  H   UNL     1       4.022   6.885  -7.099  1.00  0.00     0.064 H 
HETATM   10  H   UNL     1       5.594   6.104  -7.405  1.00  0.00     0.064 H 
HETATM   11  C   UNL     1       2.919   6.286  -9.568  1.00  0.00    -0.061 C 
HETATM   12  H   UNL     1       4.743   7.417  -9.380  1.00  0.00     0.035 H 
HETATM   13  H   UNL     1       4.983   5.690  -9.740  1.00  0.00     0.035 H 
HETATM   14  C   UNL     1       2.434   4.858  -9.303  1.00  0.00    -0.037 C 
HETATM   15  H   UNL     1       2.325   6.985  -8.979  1.00  0.00     0.033 H 
HETATM   16  H   UNL     1       2.808   6.516 -10.626  1.00  0.00     0.033 H 
HETATM   17  H   UNL     1       1.390   4.767  -9.608  1.00  0.00     0.036 H 
HETATM   18  H   UNL     1       3.042   4.156  -9.871  1.00  0.00     0.036 H 
HETATM   19  H   UNL     1       1.884   5.189  -7.247  1.00  0.00     0.088 H 
BRANCH   5  20
HETATM   20  C   UNL     1       6.036   4.160  -6.236  1.00  0.00     0.350 C 
HETATM   21  F   UNL     1       5.978   5.254  -5.367  1.00  0.00    -0.190 F 
HETATM   22  F   UNL     1       6.875   4.463  -7.312  1.00  0.00    -0.190 F 
BRANCH  20  23
HETATM   23  C   UNL     1       6.575   2.962  -5.498  1.00  0.00     0.028 A 
HETATM   24  C   UNL     1       6.571   2.942  -4.117  1.00  0.00    -0.035 A 
HETATM   25  C   UNL     1       7.066   1.841  -3.435  1.00  0.00     0.105 A 
HETATM   26  H   UNL     1       6.181   3.786  -3.567  1.00  0.00     0.089 H 
HETATM   27  C   UNL     1       7.573   0.757  -4.143  1.00  0.00     0.135 A 
HETATM   28  C   UNL     1       7.570   0.778  -5.533  1.00  0.00     0.105 A 
HETATM   29  C   UNL     1       7.072   1.884  -6.207  1.00  0.00    -0.035 A 
HETATM   30  H   UNL     1       7.073   1.902  -7.287  1.00  0.00     0.089 H 
BRANCH  25  31
HETATM   31  O   UNL     1       7.061   1.823  -2.075  1.00  0.00    -0.353 OA
BRANCH  31  32
HETATM   32  C   UNL     1       7.874   2.916  -1.645  1.00  0.00     0.010 C 
HETATM   33  H   UNL     1       8.735   2.535  -1.096  1.00  0.00     0.066 H 
HETATM   34  H   UNL     1       8.217   3.477  -2.514  1.00  0.00     0.066 H 
HETATM   35  H   UNL     1       7.292   3.570  -0.997  1.00  0.00     0.066 H 
ENDBRANCH  31  32
ENDBRANCH  25  31
BRANCH  27  36
HETATM   36  O   UNL     1       8.060  -0.325  -3.478  1.00  0.00    -0.351 OA
BRANCH  36  37
HETATM   37  C   UNL     1       9.455  -0.091  -3.274  1.00  0.00     0.011 C 
HETATM   38  H   UNL     1       9.658   0.978  -3.347  1.00  0.00     0.067 H 
HETATM   39  H   UNL     1       9.743  -0.449  -2.285  1.00  0.00     0.067 H 
HETATM   40  H   UNL     1      10.027  -0.623  -4.035  1.00  0.00     0.067 H 
ENDBRANCH  36  37
ENDBRANCH  27  36
BRANCH  28  41
HETATM   41  O   UNL     1       8.059  -0.282  -6.231  1.00  0.00    -0.353 OA
BRANCH  41  42
HETATM   42  C   UNL     1       7.311  -0.357  -7.446  1.00  0.00     0.010 C 
HETATM   43  H   UNL     1       6.250  -0.444  -7.214  1.00  0.00     0.066 H 
HETATM   44  H   UNL     1       7.482   0.543  -8.035  1.00  0.00     0.066 H 
HETATM   45  H   UNL     1       7.631  -1.229  -8.016  1.00  0.00     0.066 H 
ENDBRANCH  41  42
ENDBRANCH  28  41
ENDBRANCH  20  23
ENDBRANCH   5  20
ENDBRANCH   1   3
BRANCH   1  46
HETATM   46  O   UNL     1       2.473   2.179  -8.502  1.00  0.00    -0.314 OA
BRANCH  46  47
HETATM   47  C   UNL     1       1.460   1.204  -8.865  1.00  0.00     0.048 C 
HETATM   48  H   UNL     1       0.883   0.933  -7.981  1.00  0.00     0.084 H 
BRANCH  47  49
HETATM   49  C   UNL     1       2.135  -0.046  -9.435  1.00  0.00    -0.040 C 
HETATM   50  H   UNL     1       2.207   0.041 -10.518  1.00  0.00     0.036 H 
HETATM   51  H   UNL     1       3.134  -0.145  -9.010  1.00  0.00     0.036 H 
BRANCH  49  52
HETATM   52  C   UNL     1       1.305  -1.281  -9.078  1.00  0.00    -0.059 C 
HETATM   53  H   UNL     1       1.954  -2.041  -8.640  1.00  0.00     0.033 H 
HETATM   54  H   UNL     1       0.534  -1.006  -8.359  1.00  0.00     0.033 H 
BRANCH  52  55
HETATM   55  C   UNL     1       0.649  -1.838 -10.342  1.00  0.00    -0.040 C 
HETATM   56  H   UNL     1       0.345  -1.014 -10.987  1.00  0.00     0.040 H 
HETATM   57  H   UNL     1       1.360  -2.471 -10.873  1.00  0.00     0.040 H 
BRANCH  55  58
HETATM   58  C   UNL     1      -0.563  -2.651  -9.963  1.00  0.00    -0.041 A 
HETATM   59  C   UNL     1      -0.587  -3.361  -8.778  1.00  0.00     0.008 A 
HETATM   60  N   UNL     1      -1.645  -4.069  -8.437  1.00  0.00    -0.273 NA
HETATM   61  H   UNL     1       0.268  -3.327  -8.118  1.00  0.00     0.115 H 
HETATM   62  C   UNL     1      -2.710  -4.139  -9.210  1.00  0.00     0.002 A 
HETATM   63  C   UNL     1      -2.757  -3.460 -10.413  1.00  0.00    -0.066 A 
HETATM   64  H   UNL     1      -3.558  -4.733  -8.899  1.00  0.00     0.114 H 
HETATM   65  C   UNL     1      -1.665  -2.701 -10.802  1.00  0.00    -0.074 A 
HETATM   66  H   UNL     1      -3.633  -3.522 -11.042  1.00  0.00     0.085 H 
HETATM   67  H   UNL     1      -1.673  -2.160 -11.737  1.00  0.00     0.084 H 
ENDBRANCH  55  58
ENDBRANCH  52  55
ENDBRANCH  49  52
ENDBRANCH  47  49
BRANCH  47  68
HETATM   68  C   UNL     1       0.527   1.805  -9.919  1.00  0.00    -0.040 C 
HETATM   69  H   UNL     1       0.925   2.763 -10.252  1.00  0.00     0.036 H 
HETATM   70  H   UNL     1       0.456   1.126 -10.769  1.00  0.00     0.036 H 
BRANCH  68  71
HETATM   71  C   UNL     1      -0.862   2.011  -9.313  1.00  0.00    -0.059 C 
HETATM   72  H   UNL     1      -0.857   1.684  -8.273  1.00  0.00     0.033 H 
HETATM   73  H   UNL     1      -1.125   3.068  -9.359  1.00  0.00     0.033 H 
BRANCH  71  74
HETATM   74  C   UNL     1      -1.889   1.194 -10.099  1.00  0.00    -0.041 C 
HETATM   75  H   UNL     1      -2.562   1.870 -10.627  1.00  0.00     0.040 H 
HETATM   76  H   UNL     1      -1.373   0.559 -10.819  1.00  0.00     0.040 H 
BRANCH  74  77
HETATM   77  C   UNL     1      -2.682   0.336  -9.149  1.00  0.00    -0.058 A 
HETATM   78  C   UNL     1      -2.119  -0.079  -7.957  1.00  0.00    -0.077 A 
HETATM   79  C   UNL     1      -2.849  -0.866  -7.085  1.00  0.00    -0.082 A 
HETATM   80  H   UNL     1      -1.110   0.211  -7.707  1.00  0.00     0.084 H 
HETATM   81  C   UNL     1      -4.141  -1.237  -7.405  1.00  0.00    -0.083 A 
HETATM   82  H   UNL     1      -2.409  -1.191  -6.154  1.00  0.00     0.083 H 
HETATM   83  C   UNL     1      -4.705  -0.822  -8.597  1.00  0.00    -0.082 A 
HETATM   84  H   UNL     1      -4.711  -1.854  -6.725  1.00  0.00     0.083 H 
HETATM   85  C   UNL     1      -3.977  -0.031  -9.467  1.00  0.00    -0.077 A 
HETATM   86  H   UNL     1      -5.715  -1.112  -8.848  1.00  0.00     0.083 H 
HETATM   87  H   UNL     1      -4.417   0.294 -10.398  1.00  0.00     0.084 H 
ENDBRANCH  74  77
ENDBRANCH  71  74
ENDBRANCH  68  71
ENDBRANCH  47  68
ENDBRANCH  46  47
ENDBRANCH   1  46
TORSDOF 19
ENDMDL
MODEL 6
REMARK VINA RESULT:      -6.4      2.585      4.682
REMARK  19 active torsions:
REMARK  status: ('A' for Active; 'I' for Inactive)
REMARK    1  A    between atoms: C_1  and  C_13 
REMARK    2  A    between atoms: C_3  and  O_7 
REMARK    3  A    between atoms: C_4  and  O_9 
REMARK    4  A    between atoms: C_5  and  O_11 
REMARK    5  A    between atoms: O_7  and  C_8 
REMARK    6  A    between atoms: O_9  and  C_10 
REMARK    7  A    between atoms: O_11  and  C_12 
REMARK    8  A    between atoms: C_13  and  C_16 
REMARK       I    between atoms: C_16  and  N_18 
REMARK    9  A    between atoms: C_23  and  C_24 
REMARK   10  A    between atoms: C_24  and  O_26 
REMARK   11  A    between atoms: O_26  and  C_27 
REMARK   12  A    between atoms: C_27  and  C_28 
REMARK   13  A    between atoms: C_27  and  C_37 
REMARK   14  A    between atoms: C_28  and  C_29 
REMARK   15  A    between atoms: C_29  and  C_30 
REMARK   16  A    between atoms: C_30  and  C_31 
REMARK   17  A    between atoms: C_37  and  C_38 
REMARK   18  A    between atoms: C_38  and  C_39 
REMARK   19  A    between atoms: C_39  and  C_40 
ROOT
HETATM    1  C   UNL     1      -0.901   0.493  -9.302  1.00  0.00     0.282 C 
HETATM    2  O   UNL     1      -1.490   0.574  -8.250  1.00  0.00    -0.263 OA
ENDROOT
BRANCH   1   3
HETATM    3  C   UNL     1      -1.503  -0.283 -10.444  1.00  0.00     0.098 C 
HETATM    4  N   UNL     1      -1.137  -1.702 -10.328  1.00  0.00    -0.333 N 
HETATM    5  C   UNL     1      -0.269  -2.112  -9.382  1.00  0.00     0.298 C 
HETATM    6  C   UNL     1      -1.740  -2.666 -11.259  1.00  0.00    -0.001 C 
HETATM    7  O   UNL     1       0.162  -1.320  -8.570  1.00  0.00    -0.266 OA
HETATM    8  C   UNL     1      -3.264  -2.513 -11.206  1.00  0.00    -0.050 C 
HETATM    9  H   UNL     1      -1.388  -2.466 -12.270  1.00  0.00     0.064 H 
HETATM   10  H   UNL     1      -1.464  -3.678 -10.965  1.00  0.00     0.064 H 
HETATM   11  C   UNL     1      -3.637  -1.055 -11.483  1.00  0.00    -0.061 C 
HETATM   12  H   UNL     1      -3.719  -3.154 -11.961  1.00  0.00     0.035 H 
HETATM   13  H   UNL     1      -3.625  -2.800 -10.218  1.00  0.00     0.035 H 
HETATM   14  C   UNL     1      -3.024  -0.157 -10.405  1.00  0.00    -0.037 C 
HETATM   15  H   UNL     1      -3.254  -0.761 -12.460  1.00  0.00     0.033 H 
HETATM   16  H   UNL     1      -4.721  -0.948 -11.471  1.00  0.00     0.033 H 
HETATM   17  H   UNL     1      -3.310   0.879 -10.590  1.00  0.00     0.036 H 
HETATM   18  H   UNL     1      -3.387  -0.466  -9.426  1.00  0.00     0.036 H 
HETATM   19  H   UNL     1      -1.127   0.108 -11.390  1.00  0.00     0.088 H 
BRANCH   5  20
HETATM   20  C   UNL     1       0.167  -3.554  -9.333  1.00  0.00     0.350 C 
HETATM   21  F   UNL     1       1.362  -3.655  -8.615  1.00  0.00    -0.190 F 
HETATM   22  F   UNL     1       0.363  -4.026 -10.634  1.00  0.00    -0.190 F 
BRANCH  20  23
HETATM   23  C   UNL     1      -0.898  -4.377  -8.654  1.00  0.00     0.028 A 
HETATM   24  C   UNL     1      -1.033  -5.718  -8.958  1.00  0.00    -0.035 A 
HETATM   25  C   UNL     1      -2.011  -6.478  -8.335  1.00  0.00     0.105 A 
HETATM   26  H   UNL     1      -0.374  -6.175  -9.682  1.00  0.00     0.089 H 
HETATM   27  C   UNL     1      -2.862  -5.887  -7.408  1.00  0.00     0.135 A 
HETATM   28  C   UNL     1      -2.720  -4.540  -7.101  1.00  0.00     0.105 A 
HETATM   29  C   UNL     1      -1.738  -3.786  -7.728  1.00  0.00    -0.035 A 
HETATM   30  H   UNL     1      -1.630  -2.738  -7.493  1.00  0.00     0.089 H 
BRANCH  25  31
HETATM   31  O   UNL     1      -2.142  -7.798  -8.635  1.00  0.00    -0.353 OA
BRANCH  31  32
HETATM   32  C   UNL     1      -1.130  -8.105  -9.597  1.00  0.00     0.010 C 
HETATM   33  H   UNL     1      -0.150  -7.879  -9.177  1.00  0.00     0.066 H 
HETATM   34  H   UNL     1      -1.181  -9.163  -9.854  1.00  0.00     0.066 H 
HETATM   35  H   UNL     1      -1.287  -7.505 -10.493  1.00  0.00     0.066 H 
ENDBRANCH  31  32
ENDBRANCH  25  31
BRANCH  27  36
HETATM   36  O   UNL     1      -3.824  -6.630  -6.795  1.00  0.00    -0.351 OA
BRANCH  36  37
HETATM   37  C   UNL     1      -3.197  -7.291  -5.694  1.00  0.00     0.011 C 
HETATM   38  H   UNL     1      -2.211  -7.645  -5.997  1.00  0.00     0.067 H 
HETATM   39  H   UNL     1      -3.092  -6.593  -4.863  1.00  0.00     0.067 H 
HETATM   40  H   UNL     1      -3.808  -8.138  -5.383  1.00  0.00     0.067 H 
ENDBRANCH  36  37
ENDBRANCH  27  36
BRANCH  28  41
HETATM   41  O   UNL     1      -3.546  -3.958  -6.190  1.00  0.00    -0.353 OA
BRANCH  41  42
HETATM   42  C   UNL     1      -4.518  -3.215  -6.930  1.00  0.00     0.010 C 
HETATM   43  H   UNL     1      -4.017  -2.440  -7.510  1.00  0.00     0.066 H 
HETATM   44  H   UNL     1      -5.053  -3.884  -7.602  1.00  0.00     0.066 H 
HETATM   45  H   UNL     1      -5.224  -2.753  -6.240  1.00  0.00     0.066 H 
ENDBRANCH  41  42
ENDBRANCH  28  41
ENDBRANCH  20  23
ENDBRANCH   5  20
ENDBRANCH   1   3
BRANCH   1  46
HETATM   46  O   UNL     1       0.289   1.095  -9.451  1.00  0.00    -0.314 OA
BRANCH  46  47
HETATM   47  C   UNL     1       0.483   2.452  -8.972  1.00  0.00     0.048 C 
HETATM   48  H   UNL     1      -0.487   2.909  -8.773  1.00  0.00     0.084 H 
BRANCH  47  49
HETATM   49  C   UNL     1       1.222   3.269 -10.034  1.00  0.00    -0.040 C 
HETATM   50  H   UNL     1       0.577   3.407 -10.900  1.00  0.00     0.036 H 
HETATM   51  H   UNL     1       1.492   4.241  -9.622  1.00  0.00     0.036 H 
BRANCH  49  52
HETATM   52  C   UNL     1       2.491   2.525 -10.458  1.00  0.00    -0.059 C 
HETATM   53  H   UNL     1       2.565   1.589  -9.904  1.00  0.00     0.033 H 
HETATM   54  H   UNL     1       2.448   2.312 -11.526  1.00  0.00     0.033 H 
BRANCH  52  55
HETATM   55  C   UNL     1       3.714   3.393 -10.159  1.00  0.00    -0.040 C 
HETATM   56  H   UNL     1       4.034   3.897 -11.071  1.00  0.00     0.040 H 
HETATM   57  H   UNL     1       3.458   4.136  -9.404  1.00  0.00     0.040 H 
BRANCH  55  58
HETATM   58  C   UNL     1       4.835   2.523  -9.647  1.00  0.00    -0.041 A 
HETATM   59  C   UNL     1       6.149   2.824  -9.953  1.00  0.00     0.008 A 
HETATM   60  N   UNL     1       7.134   2.072  -9.505  1.00  0.00    -0.273 NA
HETATM   61  H   UNL     1       6.372   3.691 -10.558  1.00  0.00     0.115 H 
HETATM   62  C   UNL     1       6.910   1.006  -8.763  1.00  0.00     0.002 A 
HETATM   63  C   UNL     1       5.622   0.640  -8.421  1.00  0.00    -0.066 A 
HETATM   64  H   UNL     1       7.744   0.411  -8.417  1.00  0.00     0.114 H 
HETATM   65  C   UNL     1       4.561   1.409  -8.870  1.00  0.00    -0.074 A 
HETATM   66  H   UNL     1       5.445  -0.235  -7.813  1.00  0.00     0.085 H 
HETATM   67  H   UNL     1       3.543   1.147  -8.618  1.00  0.00     0.084 H 
ENDBRANCH  55  58
ENDBRANCH  52  55
ENDBRANCH  49  52
ENDBRANCH  47  49
BRANCH  47  68
HETATM   68  C   UNL     1       1.308   2.425  -7.684  1.00  0.00    -0.040 C 
HETATM   69  H   UNL     1       0.821   1.780  -6.953  1.00  0.00     0.036 H 
HETATM   70  H   UNL     1       2.305   2.040  -7.900  1.00  0.00     0.036 H 
BRANCH  68  71
HETATM   71  C   UNL     1       1.420   3.842  -7.120  1.00  0.00    -0.059 C 
HETATM   72  H   UNL     1       1.897   4.490  -7.856  1.00  0.00     0.033 H 
HETATM   73  H   UNL     1       0.424   4.223  -6.895  1.00  0.00     0.033 H 
BRANCH  71  74
HETATM   74  C   UNL     1       2.259   3.819  -5.841  1.00  0.00    -0.041 C 
HETATM   75  H   UNL     1       1.892   4.581  -5.152  1.00  0.00     0.040 H 
HETATM   76  H   UNL     1       2.179   2.838  -5.373  1.00  0.00     0.040 H 
BRANCH  74  77
HETATM   77  C   UNL     1       3.699   4.100  -6.180  1.00  0.00    -0.058 A 
HETATM   78  C   UNL     1       4.692   3.243  -5.744  1.00  0.00    -0.077 A 
HETATM   79  C   UNL     1       6.014   3.502  -6.056  1.00  0.00    -0.082 A 
HETATM   80  H   UNL     1       4.436   2.372  -5.160  1.00  0.00     0.084 H 
HETATM   81  C   UNL     1       6.343   4.617  -6.804  1.00  0.00    -0.083 A 
HETATM   82  H   UNL     1       6.790   2.833  -5.715  1.00  0.00     0.083 H 
HETATM   83  C   UNL     1       5.350   5.474  -7.241  1.00  0.00    -0.082 A 
HETATM   84  H   UNL     1       7.376   4.819  -7.046  1.00  0.00     0.083 H 
HETATM   85  C   UNL     1       4.027   5.213  -6.932  1.00  0.00    -0.077 A 
HETATM   86  H   UNL     1       5.606   6.345  -7.824  1.00  0.00     0.083 H 
HETATM   87  H   UNL     1       3.252   5.882  -7.273  1.00  0.00     0.084 H 
ENDBRANCH  74  77
ENDBRANCH  71  74
ENDBRANCH  68  71
ENDBRANCH  47  68
ENDBRANCH  46  47
ENDBRANCH   1  46
TORSDOF 19
ENDMDL
MODEL 7
REMARK VINA RESULT:      -6.4      0.506      1.879
REMARK  19 active torsions:
REMARK  status: ('A' for Active; 'I' for Inactive)
REMARK    1  A    between atoms: C_1  and  C_13 
REMARK    2  A    between atoms: C_3  and  O_7 
REMARK    3  A    between atoms: C_4  and  O_9 
REMARK    4  A    between atoms: C_5  and  O_11 
REMARK    5  A    between atoms: O_7  and  C_8 
REMARK    6  A    between atoms: O_9  and  C_10 
REMARK    7  A    between atoms: O_11  and  C_12 
REMARK    8  A    between atoms: C_13  and  C_16 
REMARK       I    between atoms: C_16  and  N_18 
REMARK    9  A    between atoms: C_23  and  C_24 
REMARK   10  A    between atoms: C_24  and  O_26 
REMARK   11  A    between atoms: O_26  and  C_27 
REMARK   12  A    between atoms: C_27  and  C_28 
REMARK   13  A    between atoms: C_27  and  C_37 
REMARK   14  A    between atoms: C_28  and  C_29 
REMARK   15  A    between atoms: C_29  and  C_30 
REMARK   16  A    between atoms: C_30  and  C_31 
REMARK   17  A    between atoms: C_37  and  C_38 
REMARK   18  A    between atoms: C_38  and  C_39 
REMARK   19  A    between atoms: C_39  and  C_40 
ROOT
HETATM    1  C   UNL     1       1.596   2.145  -8.490  1.00  0.00     0.282 C 
HETATM    2  O   UNL     1       1.348   2.121  -7.308  1.00  0.00    -0.263 OA
ENDROOT
BRANCH   1   3
HETATM    3  C   UNL     1       0.711   2.924  -9.429  1.00  0.00     0.098 C 
HETATM    4  N   UNL     1      -0.534   2.180  -9.670  1.00  0.00    -0.333 N 
HETATM    5  C   UNL     1      -0.692   0.932  -9.187  1.00  0.00     0.298 C 
HETATM    6  C   UNL     1      -1.604   2.825 -10.442  1.00  0.00    -0.001 C 
HETATM    7  O   UNL     1       0.167   0.440  -8.486  1.00  0.00    -0.266 OA
HETATM    8  C   UNL     1      -1.921   4.182  -9.805  1.00  0.00    -0.050 C 
HETATM    9  H   UNL     1      -1.275   2.973 -11.470  1.00  0.00     0.064 H 
HETATM   10  H   UNL     1      -2.494   2.197 -10.427  1.00  0.00     0.064 H 
HETATM   11  C   UNL     1      -0.636   5.007  -9.702  1.00  0.00    -0.061 C 
HETATM   12  H   UNL     1      -2.646   4.713 -10.422  1.00  0.00     0.035 H 
HETATM   13  H   UNL     1      -2.335   4.029  -8.808  1.00  0.00     0.035 H 
HETATM   14  C   UNL     1       0.370   4.277  -8.808  1.00  0.00    -0.037 C 
HETATM   15  H   UNL     1      -0.209   5.138 -10.696  1.00  0.00     0.033 H 
HETATM   16  H   UNL     1      -0.863   5.982  -9.273  1.00  0.00     0.033 H 
HETATM   17  H   UNL     1       1.277   4.876  -8.717  1.00  0.00     0.036 H 
HETATM   18  H   UNL     1      -0.065   4.122  -7.822  1.00  0.00     0.036 H 
HETATM   19  H   UNL     1       1.228   3.076 -10.376  1.00  0.00     0.088 H 
BRANCH   5  20
HETATM   20  C   UNL     1      -1.935   0.147  -9.519  1.00  0.00     0.350 C 
HETATM   21  F   UNL     1      -2.030  -0.011 -10.905  1.00  0.00    -0.190 F 
HETATM   22  F   UNL     1      -3.059   0.835  -9.050  1.00  0.00    -0.190 F 
BRANCH  20  23
HETATM   23  C   UNL     1      -1.864  -1.207  -8.863  1.00  0.00     0.028 A 
HETATM   24  C   UNL     1      -2.736  -1.526  -7.840  1.00  0.00    -0.035 A 
HETATM   25  C   UNL     1      -2.674  -2.771  -7.234  1.00  0.00     0.105 A 
HETATM   26  H   UNL     1      -3.470  -0.803  -7.512  1.00  0.00     0.089 H 
HETATM   27  C   UNL     1      -1.726  -3.698  -7.653  1.00  0.00     0.135 A 
HETATM   28  C   UNL     1      -0.854  -3.377  -8.685  1.00  0.00     0.105 A 
HETATM   29  C   UNL     1      -0.924  -2.129  -9.287  1.00  0.00    -0.035 A 
HETATM   30  H   UNL     1      -0.243  -1.877 -10.087  1.00  0.00     0.089 H 
BRANCH  25  31
HETATM   31  O   UNL     1      -3.534  -3.083  -6.228  1.00  0.00    -0.353 OA
BRANCH  31  32
HETATM   32  C   UNL     1      -4.853  -2.863  -6.729  1.00  0.00     0.010 C 
HETATM   33  H   UNL     1      -5.567  -2.910  -5.907  1.00  0.00     0.066 H 
HETATM   34  H   UNL     1      -4.904  -1.882  -7.200  1.00  0.00     0.066 H 
HETATM   35  H   UNL     1      -5.096  -3.631  -7.463  1.00  0.00     0.066 H 
ENDBRANCH  31  32
ENDBRANCH  25  31
BRANCH  27  36
HETATM   36  O   UNL     1      -1.661  -4.922  -7.060  1.00  0.00    -0.351 OA
BRANCH  36  37
HETATM   37  C   UNL     1      -2.564  -5.773  -7.769  1.00  0.00     0.011 C 
HETATM   38  H   UNL     1      -2.409  -6.807  -7.457  1.00  0.00     0.067 H 
HETATM   39  H   UNL     1      -3.590  -5.478  -7.549  1.00  0.00     0.067 H 
HETATM   40  H   UNL     1      -2.380  -5.684  -8.840  1.00  0.00     0.067 H 
ENDBRANCH  36  37
ENDBRANCH  27  36
BRANCH  28  41
HETATM   41  O   UNL     1       0.071  -4.283  -9.102  1.00  0.00    -0.353 OA
BRANCH  41  42
HETATM   42  C   UNL     1      -0.230  -4.582 -10.467  1.00  0.00     0.010 C 
HETATM   43  H   UNL     1      -0.634  -5.592 -10.536  1.00  0.00     0.066 H 
HETATM   44  H   UNL     1      -0.964  -3.870 -10.842  1.00  0.00     0.066 H 
HETATM   45  H   UNL     1       0.680  -4.513 -11.063  1.00  0.00     0.066 H 
ENDBRANCH  41  42
ENDBRANCH  28  41
ENDBRANCH  20  23
ENDBRANCH   5  20
ENDBRANCH   1   3
BRANCH   1  46
HETATM   46  O   UNL     1       2.659   1.479  -8.966  1.00  0.00    -0.314 OA
BRANCH  46  47
HETATM   47  C   UNL     1       3.995   1.824  -8.516  1.00  0.00     0.048 C 
HETATM   48  H   UNL     1       3.978   2.020  -7.443  1.00  0.00     0.084 H 
BRANCH  47  49
HETATM   49  C   UNL     1       4.475   3.077  -9.253  1.00  0.00    -0.040 C 
HETATM   50  H   UNL     1       5.324   2.823  -9.886  1.00  0.00     0.036 H 
HETATM   51  H   UNL     1       3.665   3.468  -9.869  1.00  0.00     0.036 H 
BRANCH  49  52
HETATM   52  C   UNL     1       4.898   4.137  -8.234  1.00  0.00    -0.059 C 
HETATM   53  H   UNL     1       5.987   4.168  -8.172  1.00  0.00     0.033 H 
HETATM   54  H   UNL     1       4.525   5.112  -8.547  1.00  0.00     0.033 H 
BRANCH  52  55
HETATM   55  C   UNL     1       4.320   3.786  -6.862  1.00  0.00    -0.040 C 
HETATM   56  H   UNL     1       3.545   4.507  -6.599  1.00  0.00     0.040 H 
HETATM   57  H   UNL     1       3.889   2.785  -6.895  1.00  0.00     0.040 H 
BRANCH  55  58
HETATM   58  C   UNL     1       5.416   3.828  -5.828  1.00  0.00    -0.041 A 
HETATM   59  C   UNL     1       6.189   4.963  -5.674  1.00  0.00     0.008 A 
HETATM   60  N   UNL     1       7.146   5.009  -4.769  1.00  0.00    -0.273 NA
HETATM   61  H   UNL     1       6.003   5.825  -6.298  1.00  0.00     0.115 H 
HETATM   62  C   UNL     1       7.410   3.982  -3.986  1.00  0.00     0.002 A 
HETATM   63  C   UNL     1       6.681   2.812  -4.085  1.00  0.00    -0.066 A 
HETATM   64  H   UNL     1       8.204   4.056  -3.257  1.00  0.00     0.114 H 
HETATM   65  C   UNL     1       5.664   2.727  -5.023  1.00  0.00    -0.074 A 
HETATM   66  H   UNL     1       6.902   1.973  -3.441  1.00  0.00     0.085 H 
HETATM   67  H   UNL     1       5.078   1.825  -5.123  1.00  0.00     0.084 H 
ENDBRANCH  55  58
ENDBRANCH  52  55
ENDBRANCH  49  52
ENDBRANCH  47  49
BRANCH  47  68
HETATM   68  C   UNL     1       4.949   0.664  -8.808  1.00  0.00    -0.040 C 
HETATM   69  H   UNL     1       4.571  -0.243  -8.338  1.00  0.00     0.036 H 
HETATM   70  H   UNL     1       5.017   0.513  -9.886  1.00  0.00     0.036 H 
BRANCH  68  71
HETATM   71  C   UNL     1       6.335   0.990  -8.250  1.00  0.00    -0.059 C 
HETATM   72  H   UNL     1       6.977   1.347  -9.056  1.00  0.00     0.033 H 
HETATM   73  H   UNL     1       6.247   1.765  -7.488  1.00  0.00     0.033 H 
BRANCH  71  74
HETATM   74  C   UNL     1       6.946  -0.268  -7.631  1.00  0.00    -0.041 C 
HETATM   75  H   UNL     1       6.155  -0.875  -7.189  1.00  0.00     0.040 H 
HETATM   76  H   UNL     1       7.456  -0.842  -8.403  1.00  0.00     0.040 H 
BRANCH  74  77
HETATM   77  C   UNL     1       7.931   0.126  -6.562  1.00  0.00    -0.058 A 
HETATM   78  C   UNL     1       8.816   1.163  -6.786  1.00  0.00    -0.077 A 
HETATM   79  C   UNL     1       9.721   1.525  -5.804  1.00  0.00    -0.082 A 
HETATM   80  H   UNL     1       8.802   1.692  -7.727  1.00  0.00     0.084 H 
HETATM   81  C   UNL     1       9.739   0.848  -4.599  1.00  0.00    -0.083 A 
HETATM   82  H   UNL     1      10.413   2.335  -5.979  1.00  0.00     0.083 H 
HETATM   83  C   UNL     1       8.854  -0.189  -4.374  1.00  0.00    -0.082 A 
HETATM   84  H   UNL     1      10.447   1.130  -3.832  1.00  0.00     0.083 H 
HETATM   85  C   UNL     1       7.946  -0.548  -5.354  1.00  0.00    -0.077 A 
HETATM   86  H   UNL     1       8.868  -0.718  -3.432  1.00  0.00     0.083 H 
HETATM   87  H   UNL     1       7.254  -1.358  -5.179  1.00  0.00     0.084 H 
ENDBRANCH  74  77
ENDBRANCH  71  74
ENDBRANCH  68  71
ENDBRANCH  47  68
ENDBRANCH  46  47
ENDBRANCH   1  46
TORSDOF 19
ENDMDL
MODEL 8
REMARK VINA RESULT:      -6.4      2.943      9.894
REMARK  19 active torsions:
REMARK  status: ('A' for Active; 'I' for Inactive)
REMARK    1  A    between atoms: C_1  and  C_13 
REMARK    2  A    between atoms: C_3  and  O_7 
REMARK    3  A    between atoms: C_4  and  O_9 
REMARK    4  A    between atoms: C_5  and  O_11 
REMARK    5  A    between atoms: O_7  and  C_8 
REMARK    6  A    between atoms: O_9  and  C_10 
REMARK    7  A    between atoms: O_11  and  C_12 
REMARK    8  A    between atoms: C_13  and  C_16 
REMARK       I    between atoms: C_16  and  N_18 
REMARK    9  A    between atoms: C_23  and  C_24 
REMARK   10  A    between atoms: C_24  and  O_26 
REMARK   11  A    between atoms: O_26  and  C_27 
REMARK   12  A    between atoms: C_27  and  C_28 
REMARK   13  A    between atoms: C_27  and  C_37 
REMARK   14  A    between atoms: C_28  and  C_29 
REMARK   15  A    between atoms: C_29  and  C_30 
REMARK   16  A    between atoms: C_30  and  C_31 
REMARK   17  A    between atoms: C_37  and  C_38 
REMARK   18  A    between atoms: C_38  and  C_39 
REMARK   19  A    between atoms: C_39  and  C_40 
ROOT
HETATM    1  C   UNL     1       1.173   1.079  -8.862  1.00  0.00     0.282 C 
HETATM    2  O   UNL     1       1.951   0.250  -8.454  1.00  0.00    -0.263 OA
ENDROOT
BRANCH   1   3
HETATM    3  C   UNL     1       1.668   2.230  -9.698  1.00  0.00     0.098 C 
HETATM    4  N   UNL     1       2.078   3.339  -8.825  1.00  0.00    -0.333 N 
HETATM    5  C   UNL     1       1.863   3.281  -7.496  1.00  0.00     0.298 C 
HETATM    6  C   UNL     1       2.731   4.509  -9.427  1.00  0.00    -0.001 C 
HETATM    7  O   UNL     1       1.394   2.277  -7.000  1.00  0.00    -0.266 OA
HETATM    8  C   UNL     1       3.925   4.031 -10.259  1.00  0.00    -0.050 C 
HETATM    9  H   UNL     1       2.024   5.032 -10.069  1.00  0.00     0.064 H 
HETATM   10  H   UNL     1       3.078   5.178  -8.640  1.00  0.00     0.064 H 
HETATM   11  C   UNL     1       3.452   2.986 -11.272  1.00  0.00    -0.061 C 
HETATM   12  H   UNL     1       4.362   4.879 -10.789  1.00  0.00     0.035 H 
HETATM   13  H   UNL     1       4.674   3.588  -9.602  1.00  0.00     0.035 H 
HETATM   14  C   UNL     1       2.869   1.782 -10.528  1.00  0.00    -0.037 C 
HETATM   15  H   UNL     1       2.686   3.422 -11.912  1.00  0.00     0.033 H 
HETATM   16  H   UNL     1       4.294   2.663 -11.882  1.00  0.00     0.033 H 
HETATM   17  H   UNL     1       2.553   1.027 -11.250  1.00  0.00     0.036 H 
HETATM   18  H   UNL     1       3.627   1.360  -9.869  1.00  0.00     0.036 H 
HETATM   19  H   UNL     1       0.872   2.570 -10.361  1.00  0.00     0.088 H 
BRANCH   5  20
HETATM   20  C   UNL     1       2.205   4.462  -6.624  1.00  0.00     0.350 C 
HETATM   21  F   UNL     1       1.420   4.431  -5.468  1.00  0.00    -0.190 F 
HETATM   22  F   UNL     1       1.955   5.646  -7.326  1.00  0.00    -0.190 F 
BRANCH  20  23
HETATM   23  C   UNL     1       3.662   4.400  -6.244  1.00  0.00     0.028 A 
HETATM   24  C   UNL     1       4.432   5.547  -6.270  1.00  0.00    -0.035 A 
HETATM   25  C   UNL     1       5.772   5.494  -5.921  1.00  0.00     0.105 A 
HETATM   26  H   UNL     1       3.988   6.487  -6.564  1.00  0.00     0.089 H 
HETATM   27  C   UNL     1       6.344   4.282  -5.549  1.00  0.00     0.135 A 
HETATM   28  C   UNL     1       5.565   3.132  -5.517  1.00  0.00     0.105 A 
HETATM   29  C   UNL     1       4.224   3.194  -5.868  1.00  0.00    -0.035 A 
HETATM   30  H   UNL     1       3.620   2.299  -5.848  1.00  0.00     0.089 H 
BRANCH  25  31
HETATM   31  O   UNL     1       6.529   6.624  -5.947  1.00  0.00    -0.353 OA
BRANCH  31  32
HETATM   32  C   UNL     1       6.681   6.986  -7.321  1.00  0.00     0.010 C 
HETATM   33  H   UNL     1       7.741   7.035  -7.569  1.00  0.00     0.066 H 
HETATM   34  H   UNL     1       6.194   6.240  -7.950  1.00  0.00     0.066 H 
HETATM   35  H   UNL     1       6.223   7.960  -7.493  1.00  0.00     0.066 H 
ENDBRANCH  31  32
ENDBRANCH  25  31
BRANCH  27  36
HETATM   36  O   UNL     1       7.660   4.226  -5.205  1.00  0.00    -0.351 OA
BRANCH  36  37
HETATM   37  C   UNL     1       7.729   4.460  -3.797  1.00  0.00     0.011 C 
HETATM   38  H   UNL     1       7.593   5.523  -3.599  1.00  0.00     0.067 H 
HETATM   39  H   UNL     1       6.945   3.893  -3.296  1.00  0.00     0.067 H 
HETATM   40  H   UNL     1       8.704   4.142  -3.425  1.00  0.00     0.067 H 
ENDBRANCH  36  37
ENDBRANCH  27  36
BRANCH  28  41
HETATM   41  O   UNL     1       6.118   1.945  -5.149  1.00  0.00    -0.353 OA
BRANCH  41  42
HETATM   42  C   UNL     1       6.567   1.308  -6.347  1.00  0.00     0.010 C 
HETATM   43  H   UNL     1       6.727   2.060  -7.119  1.00  0.00     0.066 H 
HETATM   44  H   UNL     1       7.500   0.783  -6.152  1.00  0.00     0.066 H 
HETATM   45  H   UNL     1       5.813   0.597  -6.684  1.00  0.00     0.066 H 
ENDBRANCH  41  42
ENDBRANCH  28  41
ENDBRANCH  20  23
ENDBRANCH   5  20
ENDBRANCH   1   3
BRANCH   1  46
HETATM   46  O   UNL     1      -0.133   0.974  -8.570  1.00  0.00    -0.314 OA
BRANCH  46  47
HETATM   47  C   UNL     1      -1.016   0.226  -9.447  1.00  0.00     0.048 C 
HETATM   48  H   UNL     1      -0.798   0.480 -10.485  1.00  0.00     0.084 H 
BRANCH  47  49
HETATM   49  C   UNL     1      -2.471   0.583  -9.132  1.00  0.00    -0.040 C 
HETATM   50  H   UNL     1      -2.536   1.635  -8.860  1.00  0.00     0.036 H 
HETATM   51  H   UNL     1      -3.089   0.394 -10.010  1.00  0.00     0.036 H 
BRANCH  49  52
HETATM   52  C   UNL     1      -2.965  -0.277  -7.967  1.00  0.00    -0.059 C 
HETATM   53  H   UNL     1      -2.224  -1.043  -7.740  1.00  0.00     0.033 H 
HETATM   54  H   UNL     1      -3.117   0.352  -7.090  1.00  0.00     0.033 H 
BRANCH  52  55
HETATM   55  C   UNL     1      -4.287  -0.945  -8.351  1.00  0.00    -0.040 C 
HETATM   56  H   UNL     1      -5.118  -0.362  -7.953  1.00  0.00     0.040 H 
HETATM   57  H   UNL     1      -4.367  -0.997  -9.437  1.00  0.00     0.040 H 
BRANCH  55  58
HETATM   58  C   UNL     1      -4.332  -2.338  -7.777  1.00  0.00    -0.041 A 
HETATM   59  C   UNL     1      -4.996  -2.584  -6.590  1.00  0.00     0.008 A 
HETATM   60  N   UNL     1      -5.045  -3.801  -6.085  1.00  0.00    -0.273 NA
HETATM   61  H   UNL     1      -5.488  -1.772  -6.075  1.00  0.00     0.115 H 
HETATM   62  C   UNL     1      -4.459  -4.822  -6.678  1.00  0.00     0.002 A 
HETATM   63  C   UNL     1      -3.772  -4.651  -7.865  1.00  0.00    -0.066 A 
HETATM   64  H   UNL     1      -4.517  -5.805  -6.232  1.00  0.00     0.114 H 
HETATM   65  C   UNL     1      -3.703  -3.387  -8.429  1.00  0.00    -0.074 A 
HETATM   66  H   UNL     1      -3.294  -5.492  -8.346  1.00  0.00     0.085 H 
HETATM   67  H   UNL     1      -3.174  -3.224  -9.356  1.00  0.00     0.084 H 
ENDBRANCH  55  58
ENDBRANCH  52  55
ENDBRANCH  49  52
ENDBRANCH  47  49
BRANCH  47  68
HETATM   68  C   UNL     1      -0.801  -1.273  -9.231  1.00  0.00    -0.040 C 
HETATM   69  H   UNL     1      -0.133  -1.425  -8.384  1.00  0.00     0.036 H 
HETATM   70  H   UNL     1      -1.759  -1.752  -9.030  1.00  0.00     0.036 H 
BRANCH  68  71
HETATM   71  C   UNL     1      -0.179  -1.885 -10.488  1.00  0.00    -0.059 C 
HETATM   72  H   UNL     1       0.208  -1.090 -11.126  1.00  0.00     0.033 H 
HETATM   73  H   UNL     1       0.637  -2.550 -10.202  1.00  0.00     0.033 H 
BRANCH  71  74
HETATM   74  C   UNL     1      -1.242  -2.678 -11.250  1.00  0.00    -0.041 C 
HETATM   75  H   UNL     1      -2.231  -2.290 -11.003  1.00  0.00     0.040 H 
HETATM   76  H   UNL     1      -1.070  -2.580 -12.321  1.00  0.00     0.040 H 
BRANCH  74  77
HETATM   77  C   UNL     1      -1.161  -4.131 -10.858  1.00  0.00    -0.058 A 
HETATM   78  C   UNL     1      -0.158  -4.564 -10.013  1.00  0.00    -0.077 A 
HETATM   79  C   UNL     1      -0.085  -5.897  -9.653  1.00  0.00    -0.082 A 
HETATM   80  H   UNL     1       0.569  -3.862  -9.633  1.00  0.00     0.084 H 
HETATM   81  C   UNL     1      -1.016  -6.796 -10.139  1.00  0.00    -0.083 A 
HETATM   82  H   UNL     1       0.700  -6.236  -8.993  1.00  0.00     0.083 H 
HETATM   83  C   UNL     1      -2.021  -6.363 -10.984  1.00  0.00    -0.082 A 
HETATM   84  H   UNL     1      -0.958  -7.838  -9.859  1.00  0.00     0.083 H 
HETATM   85  C   UNL     1      -2.096  -5.029 -11.340  1.00  0.00    -0.077 A 
HETATM   86  H   UNL     1      -2.747  -7.065 -11.364  1.00  0.00     0.083 H 
HETATM   87  H   UNL     1      -2.881  -4.690 -12.000  1.00  0.00     0.084 H 
ENDBRANCH  74  77
ENDBRANCH  71  74
ENDBRANCH  68  71
ENDBRANCH  47  68
ENDBRANCH  46  47
ENDBRANCH   1  46
TORSDOF 19
ENDMDL
MODEL 9
REMARK VINA RESULT:      -6.3      2.936      9.910
REMARK  19 active torsions:
REMARK  status: ('A' for Active; 'I' for Inactive)
REMARK    1  A    between atoms: C_1  and  C_13 
REMARK    2  A    between atoms: C_3  and  O_7 
REMARK    3  A    between atoms: C_4  and  O_9 
REMARK    4  A    between atoms: C_5  and  O_11 
REMARK    5  A    between atoms: O_7  and  C_8 
REMARK    6  A    between atoms: O_9  and  C_10 
REMARK    7  A    between atoms: O_11  and  C_12 
REMARK    8  A    between atoms: C_13  and  C_16 
REMARK       I    between atoms: C_16  and  N_18 
REMARK    9  A    between atoms: C_23  and  C_24 
REMARK   10  A    between atoms: C_24  and  O_26 
REMARK   11  A    between atoms: O_26  and  C_27 
REMARK   12  A    between atoms: C_27  and  C_28 
REMARK   13  A    between atoms: C_27  and  C_37 
REMARK   14  A    between atoms: C_28  and  C_29 
REMARK   15  A    between atoms: C_29  and  C_30 
REMARK   16  A    between atoms: C_30  and  C_31 
REMARK   17  A    between atoms: C_37  and  C_38 
REMARK   18  A    between atoms: C_38  and  C_39 
REMARK   19  A    between atoms: C_39  and  C_40 
ROOT
HETATM    1  C   UNL     1       1.233   1.023  -8.883  1.00  0.00     0.282 C 
HETATM    2  O   UNL     1       1.955   0.159  -8.442  1.00  0.00    -0.263 OA
ENDROOT
BRANCH   1   3
HETATM    3  C   UNL     1       1.815   2.145  -9.703  1.00  0.00     0.098 C 
HETATM    4  N   UNL     1       2.201   3.256  -8.822  1.00  0.00    -0.333 N 
HETATM    5  C   UNL     1       1.900   3.227  -7.509  1.00  0.00     0.298 C 
HETATM    6  C   UNL     1       2.926   4.396  -9.399  1.00  0.00    -0.001 C 
HETATM    7  O   UNL     1       1.371   2.246  -7.029  1.00  0.00    -0.266 OA
HETATM    8  C   UNL     1       4.156   3.870 -10.145  1.00  0.00    -0.050 C 
HETATM    9  H   UNL     1       2.277   4.928 -10.093  1.00  0.00     0.064 H 
HETATM   10  H   UNL     1       3.242   5.069  -8.602  1.00  0.00     0.064 H 
HETATM   11  C   UNL     1       3.718   2.822 -11.170  1.00  0.00    -0.061 C 
HETATM   12  H   UNL     1       4.651   4.696 -10.658  1.00  0.00     0.035 H 
HETATM   13  H   UNL     1       4.848   3.417  -9.434  1.00  0.00     0.035 H 
HETATM   14  C   UNL     1       3.054   1.647 -10.447  1.00  0.00    -0.037 C 
HETATM   15  H   UNL     1       3.007   3.268 -11.865  1.00  0.00     0.033 H 
HETATM   16  H   UNL     1       4.587   2.464 -11.720  1.00  0.00     0.033 H 
HETATM   17  H   UNL     1       2.762   0.890 -11.176  1.00  0.00     0.036 H 
HETATM   18  H   UNL     1       3.754   1.216  -9.734  1.00  0.00     0.036 H 
HETATM   19  H   UNL     1       1.074   2.496 -10.420  1.00  0.00     0.088 H 
BRANCH   5  20
HETATM   20  C   UNL     1       2.220   4.413  -6.636  1.00  0.00     0.350 C 
HETATM   21  F   UNL     1       1.428   4.372  -5.484  1.00  0.00    -0.190 F 
HETATM   22  F   UNL     1       1.960   5.593  -7.339  1.00  0.00    -0.190 F 
BRANCH  20  23
HETATM   23  C   UNL     1       3.676   4.371  -6.246  1.00  0.00     0.028 A 
HETATM   24  C   UNL     1       4.257   3.173  -5.877  1.00  0.00    -0.035 A 
HETATM   25  C   UNL     1       5.595   3.129  -5.519  1.00  0.00     0.105 A 
HETATM   26  H   UNL     1       3.667   2.268  -5.869  1.00  0.00     0.089 H 
HETATM   27  C   UNL     1       6.352   4.296  -5.524  1.00  0.00     0.135 A 
HETATM   28  C   UNL     1       5.766   5.498  -5.901  1.00  0.00     0.105 A 
HETATM   29  C   UNL     1       4.426   5.532  -6.259  1.00  0.00    -0.035 A 
HETATM   30  H   UNL     1       3.969   6.467  -6.548  1.00  0.00     0.089 H 
BRANCH  25  31
HETATM   31  O   UNL     1       6.166   1.949  -5.156  1.00  0.00    -0.353 OA
BRANCH  31  32
HETATM   32  C   UNL     1       6.565   1.296  -6.362  1.00  0.00     0.010 C 
HETATM   33  H   UNL     1       7.432   0.666  -6.164  1.00  0.00     0.066 H 
HETATM   34  H   UNL     1       5.745   0.681  -6.731  1.00  0.00     0.066 H 
HETATM   35  H   UNL     1       6.825   2.044  -7.111  1.00  0.00     0.066 H 
ENDBRANCH  31  32
ENDBRANCH  25  31
BRANCH  27  36
HETATM   36  O   UNL     1       7.666   4.257  -5.172  1.00  0.00    -0.351 OA
BRANCH  36  37
HETATM   37  C   UNL     1       7.717   4.405  -3.751  1.00  0.00     0.011 C 
HETATM   38  H   UNL     1       8.431   5.189  -3.493  1.00  0.00     0.067 H 
HETATM   39  H   UNL     1       6.729   4.676  -3.378  1.00  0.00     0.067 H 
HETATM   40  H   UNL     1       8.031   3.464  -3.299  1.00  0.00     0.067 H 
ENDBRANCH  36  37
ENDBRANCH  27  36
BRANCH  28  41
HETATM   41  O   UNL     1       6.503   6.641  -5.913  1.00  0.00    -0.353 OA
BRANCH  41  42
HETATM   42  C   UNL     1       6.654   7.020  -7.283  1.00  0.00     0.010 C 
HETATM   43  H   UNL     1       7.685   6.853  -7.594  1.00  0.00     0.066 H 
HETATM   44  H   UNL     1       5.986   6.422  -7.901  1.00  0.00     0.066 H 
HETATM   45  H   UNL     1       6.407   8.075  -7.397  1.00  0.00     0.066 H 
ENDBRANCH  41  42
ENDBRANCH  28  41
ENDBRANCH  20  23
ENDBRANCH   5  20
ENDBRANCH   1   3
BRANCH   1  46
HETATM   46  O   UNL     1      -0.086   0.981  -8.641  1.00  0.00    -0.314 OA
BRANCH  46  47
HETATM   47  C   UNL     1      -0.961   0.216  -9.512  1.00  0.00     0.048 C 
HETATM   48  H   UNL     1      -0.742   0.460 -10.552  1.00  0.00     0.084 H 
BRANCH  47  49
HETATM   49  C   UNL     1      -2.419   0.565  -9.205  1.00  0.00    -0.040 C 
HETATM   50  H   UNL     1      -2.495   1.621  -8.950  1.00  0.00     0.036 H 
HETATM   51  H   UNL     1      -3.034   0.355 -10.080  1.00  0.00     0.036 H 
BRANCH  49  52
HETATM   52  C   UNL     1      -2.907  -0.280  -8.026  1.00  0.00    -0.059 C 
HETATM   53  H   UNL     1      -2.175  -1.058  -7.807  1.00  0.00     0.033 H 
HETATM   54  H   UNL     1      -3.032   0.356  -7.149  1.00  0.00     0.033 H 
BRANCH  52  55
HETATM   55  C   UNL     1      -4.247  -0.927  -8.381  1.00  0.00    -0.040 C 
HETATM   56  H   UNL     1      -5.061  -0.319  -7.986  1.00  0.00     0.040 H 
HETATM   57  H   UNL     1      -4.340  -0.998  -9.465  1.00  0.00     0.040 H 
BRANCH  55  58
HETATM   58  C   UNL     1      -4.314  -2.308  -7.779  1.00  0.00    -0.041 A 
HETATM   59  C   UNL     1      -5.006  -2.524  -6.602  1.00  0.00     0.008 A 
HETATM   60  N   UNL     1      -5.074  -3.729  -6.073  1.00  0.00    -0.273 NA
HETATM   61  H   UNL     1      -5.503  -1.698  -6.115  1.00  0.00     0.115 H 
HETATM   62  C   UNL     1      -4.483  -4.767  -6.632  1.00  0.00     0.002 A 
HETATM   63  C   UNL     1      -3.770  -4.626  -7.807  1.00  0.00    -0.066 A 
HETATM   64  H   UNL     1      -4.558  -5.739  -6.166  1.00  0.00     0.114 H 
HETATM   65  C   UNL     1      -3.680  -3.374  -8.396  1.00  0.00    -0.074 A 
HETATM   66  H   UNL     1      -3.287  -5.479  -8.260  1.00  0.00     0.085 H 
HETATM   67  H   UNL     1      -3.129  -3.234  -9.315  1.00  0.00     0.084 H 
ENDBRANCH  55  58
ENDBRANCH  52  55
ENDBRANCH  49  52
ENDBRANCH  47  49
BRANCH  47  68
HETATM   68  C   UNL     1      -0.733  -1.278  -9.278  1.00  0.00    -0.040 C 
HETATM   69  H   UNL     1       0.026  -1.414  -8.508  1.00  0.00     0.036 H 
HETATM   70  H   UNL     1      -1.666  -1.741  -8.954  1.00  0.00     0.036 H 
BRANCH  68  71
HETATM   71  C   UNL     1      -0.264  -1.932 -10.579  1.00  0.00    -0.059 C 
HETATM   72  H   UNL     1       0.060  -1.161 -11.277  1.00  0.00     0.033 H 
HETATM   73  H   UNL     1       0.569  -2.603 -10.368  1.00  0.00     0.033 H 
BRANCH  71  74
HETATM   74  C   UNL     1      -1.416  -2.728 -11.195  1.00  0.00    -0.041 C 
HETATM   75  H   UNL     1      -2.364  -2.349 -10.812  1.00  0.00     0.040 H 
HETATM   76  H   UNL     1      -1.393  -2.620 -12.279  1.00  0.00     0.040 H 
BRANCH  74  77
HETATM   77  C   UNL     1      -1.273  -4.183 -10.831  1.00  0.00    -0.058 A 
HETATM   78  C   UNL     1      -2.134  -5.119 -11.371  1.00  0.00    -0.077 A 
HETATM   79  C   UNL     1      -2.001  -6.454 -11.037  1.00  0.00    -0.082 A 
HETATM   80  H   UNL     1      -2.910  -4.808 -12.055  1.00  0.00     0.084 H 
HETATM   81  C   UNL     1      -1.008  -6.852 -10.163  1.00  0.00    -0.083 A 
HETATM   82  H   UNL     1      -2.675  -7.186 -11.459  1.00  0.00     0.083 H 
HETATM   83  C   UNL     1      -0.145  -5.916  -9.622  1.00  0.00    -0.082 A 
HETATM   84  H   UNL     1      -0.905  -7.896  -9.901  1.00  0.00     0.083 H 
HETATM   85  C   UNL     1      -0.275  -4.582  -9.960  1.00  0.00    -0.077 A 
HETATM   86  H   UNL     1       0.631  -6.227  -8.939  1.00  0.00     0.083 H 
HETATM   87  H   UNL     1       0.398  -3.850  -9.539  1.00  0.00     0.084 H 
ENDBRANCH  74  77
ENDBRANCH  71  74
ENDBRANCH  68  71
ENDBRANCH  47  68
ENDBRANCH  46  47
ENDBRANCH   1  46
TORSDOF 19
ENDMDL
