MODEL 1
REMARK VINA RESULT:      -6.7      0.000      0.000
REMARK  16 active torsions:
REMARK  status: ('A' for Active; 'I' for Inactive)
REMARK    1  A    between atoms: C_1  and  C_13 
REMARK    2  A    between atoms: C_3  and  O_7 
REMARK    3  A    between atoms: C_4  and  O_9 
REMARK    4  A    between atoms: C_5  and  O_11 
REMARK    5  A    between atoms: C_13  and  C_16 
REMARK       I    between atoms: C_16  and  N_18 
REMARK    6  A    between atoms: C_23  and  C_24 
REMARK    7  A    between atoms: C_24  and  O_26 
REMARK    8  A    between atoms: O_26  and  C_27 
REMARK    9  A    between atoms: C_27  and  C_28 
REMARK   10  A    between atoms: C_27  and  C_37 
REMARK   11  A    between atoms: C_28  and  C_29 
REMARK   12  A    between atoms: C_29  and  C_30 
REMARK   13  A    between atoms: C_30  and  C_31 
REMARK   14  A    between atoms: C_37  and  C_38 
REMARK   15  A    between atoms: C_38  and  C_39 
REMARK   16  A    between atoms: C_39  and  C_40 
ROOT
HETATM    1  C   UNL     1      -0.221  -2.251  -9.401  1.00  0.00     0.298 C 
HETATM    2  O   UNL     1       0.288  -1.449  -8.646  1.00  0.00    -0.266 OA
HETATM    3  N   UNL     1      -1.122  -1.839 -10.314  1.00  0.00    -0.333 N 
HETATM    4  C   UNL     1      -1.816  -2.809 -11.172  1.00  0.00     0.127 C 
HETATM    5  C   UNL     1      -3.326  -2.586 -11.043  1.00  0.00     0.020 C 
HETATM    6  C   UNL     1      -3.653  -1.125 -11.357  1.00  0.00     0.004 C 
HETATM    7  C   UNL     1      -2.944  -0.216 -10.350  1.00  0.00     0.035 C 
HETATM    8  C   UNL     1      -1.433  -0.410 -10.467  1.00  0.00     0.187 C 
ENDROOT
BRANCH   8   9
HETATM    9  C   UNL     1      -0.737   0.381  -9.390  1.00  0.00     0.282 C 
HETATM   10  O   UNL     1      -1.246   0.495  -8.300  1.00  0.00    -0.263 OA
BRANCH   9  11
HETATM   11  O   UNL     1       0.449   0.958  -9.641  1.00  0.00    -0.314 OA
BRANCH  11  12
HETATM   12  C   UNL     1       0.976   0.978 -10.993  1.00  0.00     0.132 C 
BRANCH  12  13
HETATM   13  C   UNL     1       2.334   0.273 -11.023  1.00  0.00     0.033 C 
BRANCH  13  14
HETATM   14  C   UNL     1       3.097   0.581  -9.733  1.00  0.00     0.007 C 
BRANCH  14  15
HETATM   15  C   UNL     1       4.543   0.948 -10.071  1.00  0.00     0.040 C 
BRANCH  15  16
HETATM   16  C   UNL     1       5.366   0.964  -8.808  1.00  0.00    -0.041 A 
HETATM   17  C   UNL     1       6.302  -0.025  -8.571  1.00  0.00     0.123 A 
HETATM   18  N   UNL     1       7.029  -0.014  -7.472  1.00  0.00    -0.273 NA
HETATM   19  C   UNL     1       6.889   0.924  -6.557  1.00  0.00     0.116 A 
HETATM   20  C   UNL     1       5.970   1.943  -6.723  1.00  0.00     0.020 A 
HETATM   21  C   UNL     1       5.191   1.968  -7.868  1.00  0.00     0.010 A 
ENDBRANCH  15  16
ENDBRANCH  14  15
ENDBRANCH  13  14
ENDBRANCH  12  13
BRANCH  12  22
HETATM   22  C   UNL     1       1.144   2.427 -11.454  1.00  0.00     0.033 C 
BRANCH  22  23
HETATM   23  C   UNL     1       0.838   3.371 -10.289  1.00  0.00     0.007 C 
BRANCH  23  24
HETATM   24  C   UNL     1       2.070   4.226  -9.987  1.00  0.00     0.038 C 
BRANCH  24  25
HETATM   25  C   UNL     1       2.352   4.197  -8.508  1.00  0.00    -0.058 A 
HETATM   26  C   UNL     1       1.710   3.277  -7.700  1.00  0.00     0.007 A 
HETATM   27  C   UNL     1       1.969   3.251  -6.342  1.00  0.00     0.001 A 
HETATM   28  C   UNL     1       2.871   4.143  -5.793  1.00  0.00     0.000 A 
HETATM   29  C   UNL     1       3.514   5.063  -6.601  1.00  0.00     0.001 A 
HETATM   30  C   UNL     1       3.257   5.087  -7.960  1.00  0.00     0.007 A 
ENDBRANCH  24  25
ENDBRANCH  23  24
ENDBRANCH  22  23
ENDBRANCH  12  22
ENDBRANCH  11  12
ENDBRANCH   9  11
ENDBRANCH   8   9
BRANCH   1  31
HETATM   31  C   UNL     1       0.156  -3.708  -9.318  1.00  0.00     0.350 C 
HETATM   32  F   UNL     1       1.342  -3.842  -8.591  1.00  0.00    -0.190 F 
HETATM   33  F   UNL     1       0.339  -4.216 -10.608  1.00  0.00    -0.190 F 
BRANCH  31  34
HETATM   34  C   UNL     1      -0.945  -4.472  -8.629  1.00  0.00     0.028 A 
HETATM   35  C   UNL     1      -1.752  -3.837  -7.704  1.00  0.00     0.053 A 
HETATM   36  C   UNL     1      -2.766  -4.536  -7.068  1.00  0.00     0.105 A 
HETATM   37  C   UNL     1      -2.967  -5.881  -7.357  1.00  0.00     0.135 A 
HETATM   38  C   UNL     1      -2.157  -6.516  -8.291  1.00  0.00     0.105 A 
HETATM   39  C   UNL     1      -1.145  -5.808  -8.924  1.00  0.00     0.053 A 
BRANCH  36  40
HETATM   40  O   UNL     1      -3.559  -3.909  -6.158  1.00  0.00    -0.353 OA
HETATM   41  C   UNL     1      -4.483  -3.109  -6.898  1.00  0.00     0.210 C 
ENDBRANCH  36  40
BRANCH  37  42
HETATM   42  O   UNL     1      -3.961  -6.572  -6.734  1.00  0.00    -0.351 OA
HETATM   43  C   UNL     1      -3.367  -7.229  -5.612  1.00  0.00     0.210 C 
ENDBRANCH  37  42
BRANCH  38  44
HETATM   44  O   UNL     1      -2.353  -7.830  -8.582  1.00  0.00    -0.353 OA
HETATM   45  C   UNL     1      -1.276  -8.230  -9.431  1.00  0.00     0.210 C 
ENDBRANCH  38  44
ENDBRANCH  31  34
ENDBRANCH   1  31
TORSDOF 16
ENDMDL
MODEL 2
REMARK VINA RESULT:      -6.7      2.565      5.028
REMARK  16 active torsions:
REMARK  status: ('A' for Active; 'I' for Inactive)
REMARK    1  A    between atoms: C_1  and  C_13 
REMARK    2  A    between atoms: C_3  and  O_7 
REMARK    3  A    between atoms: C_4  and  O_9 
REMARK    4  A    between atoms: C_5  and  O_11 
REMARK    5  A    between atoms: C_13  and  C_16 
REMARK       I    between atoms: C_16  and  N_18 
REMARK    6  A    between atoms: C_23  and  C_24 
REMARK    7  A    between atoms: C_24  and  O_26 
REMARK    8  A    between atoms: O_26  and  C_27 
REMARK    9  A    between atoms: C_27  and  C_28 
REMARK   10  A    between atoms: C_27  and  C_37 
REMARK   11  A    between atoms: C_28  and  C_29 
REMARK   12  A    between atoms: C_29  and  C_30 
REMARK   13  A    between atoms: C_30  and  C_31 
REMARK   14  A    between atoms: C_37  and  C_38 
REMARK   15  A    between atoms: C_38  and  C_39 
REMARK   16  A    between atoms: C_39  and  C_40 
ROOT
HETATM    1  C   UNL     1      -0.738   1.029  -9.161  1.00  0.00     0.298 C 
HETATM    2  O   UNL     1       0.136   0.535  -8.481  1.00  0.00    -0.266 OA
HETATM    3  N   UNL     1      -0.582   2.272  -9.659  1.00  0.00    -0.333 N 
HETATM    4  C   UNL     1      -1.669   2.921 -10.405  1.00  0.00     0.127 C 
HETATM    5  C   UNL     1      -1.954   4.286  -9.771  1.00  0.00     0.020 C 
HETATM    6  C   UNL     1      -0.659   5.099  -9.713  1.00  0.00     0.004 C 
HETATM    7  C   UNL     1       0.366   4.367  -8.843  1.00  0.00     0.035 C 
HETATM    8  C   UNL     1       0.676   3.005  -9.462  1.00  0.00     0.187 C 
ENDROOT
BRANCH   8   9
HETATM    9  C   UNL     1       1.581   2.226  -8.543  1.00  0.00     0.282 C 
HETATM   10  O   UNL     1       1.347   2.185  -7.357  1.00  0.00    -0.263 OA
BRANCH   9  11
HETATM   11  O   UNL     1       2.646   1.577  -9.039  1.00  0.00    -0.314 OA
BRANCH  11  12
HETATM   12  C   UNL     1       3.968   1.829  -8.496  1.00  0.00     0.132 C 
BRANCH  12  13
HETATM   13  C   UNL     1       4.518   3.135  -9.075  1.00  0.00     0.033 C 
BRANCH  13  14
HETATM   14  C   UNL     1       4.511   4.216  -7.992  1.00  0.00     0.007 C 
BRANCH  14  15
HETATM   15  C   UNL     1       4.346   3.561  -6.620  1.00  0.00     0.040 C 
BRANCH  15  16
HETATM   16  C   UNL     1       5.510   3.939  -5.739  1.00  0.00    -0.041 A 
HETATM   17  C   UNL     1       6.001   3.044  -4.807  1.00  0.00     0.123 A 
HETATM   18  N   UNL     1       7.021   3.366  -4.037  1.00  0.00    -0.273 NA
HETATM   19  C   UNL     1       7.604   4.546  -4.115  1.00  0.00     0.116 A 
HETATM   20  C   UNL     1       7.165   5.493  -5.020  1.00  0.00     0.020 A 
HETATM   21  C   UNL     1       6.097   5.189  -5.850  1.00  0.00     0.010 A 
ENDBRANCH  15  16
ENDBRANCH  14  15
ENDBRANCH  13  14
ENDBRANCH  12  13
BRANCH  12  22
HETATM   22  C   UNL     1       4.901   0.675  -8.868  1.00  0.00     0.033 C 
BRANCH  22  23
HETATM   23  C   UNL     1       6.196   0.785  -8.061  1.00  0.00     0.007 C 
BRANCH  23  24
HETATM   24  C   UNL     1       6.979  -0.525  -8.169  1.00  0.00     0.038 C 
BRANCH  24  25
HETATM   25  C   UNL     1       7.665  -0.809  -6.859  1.00  0.00    -0.058 A 
HETATM   26  C   UNL     1       7.467   0.029  -5.778  1.00  0.00     0.007 A 
HETATM   27  C   UNL     1       8.098  -0.233  -4.576  1.00  0.00     0.001 A 
HETATM   28  C   UNL     1       8.925  -1.334  -4.455  1.00  0.00     0.000 A 
HETATM   29  C   UNL     1       9.123  -2.174  -5.536  1.00  0.00     0.001 A 
HETATM   30  C   UNL     1       8.489  -1.914  -6.737  1.00  0.00     0.007 A 
ENDBRANCH  24  25
ENDBRANCH  23  24
ENDBRANCH  22  23
ENDBRANCH  12  22
ENDBRANCH  11  12
ENDBRANCH   9  11
ENDBRANCH   8   9
BRANCH   1  31
HETATM   31  C   UNL     1      -1.999   0.254  -9.450  1.00  0.00     0.350 C 
HETATM   32  F   UNL     1      -2.158   0.122 -10.832  1.00  0.00    -0.190 F 
HETATM   33  F   UNL     1      -3.097   0.936  -8.917  1.00  0.00    -0.190 F 
BRANCH  31  34
HETATM   34  C   UNL     1      -1.901  -1.112  -8.822  1.00  0.00     0.028 A 
HETATM   35  C   UNL     1      -2.750  -1.459  -7.788  1.00  0.00     0.053 A 
HETATM   36  C   UNL     1      -2.664  -2.715  -7.209  1.00  0.00     0.105 A 
HETATM   37  C   UNL     1      -1.717  -3.625  -7.665  1.00  0.00     0.135 A 
HETATM   38  C   UNL     1      -0.869  -3.275  -8.708  1.00  0.00     0.105 A 
HETATM   39  C   UNL     1      -0.962  -2.016  -9.283  1.00  0.00     0.053 A 
BRANCH  36  40
HETATM   40  O   UNL     1      -3.501  -3.055  -6.191  1.00  0.00    -0.353 OA
HETATM   41  C   UNL     1      -4.828  -3.019  -6.719  1.00  0.00     0.210 C 
ENDBRANCH  36  40
BRANCH  37  42
HETATM   42  O   UNL     1      -1.629  -4.860  -7.097  1.00  0.00    -0.351 OA
HETATM   43  C   UNL     1      -2.473  -5.725  -7.859  1.00  0.00     0.210 C 
ENDBRANCH  37  42
BRANCH  38  44
HETATM   44  O   UNL     1       0.055  -4.164  -9.162  1.00  0.00    -0.353 OA
HETATM   45  C   UNL     1      -0.185  -4.333 -10.560  1.00  0.00     0.210 C 
ENDBRANCH  38  44
ENDBRANCH  31  34
ENDBRANCH   1  31
TORSDOF 16
ENDMDL
MODEL 3
REMARK VINA RESULT:      -6.7      2.490      5.081
REMARK  16 active torsions:
REMARK  status: ('A' for Active; 'I' for Inactive)
REMARK    1  A    between atoms: C_1  and  C_13 
REMARK    2  A    between atoms: C_3  and  O_7 
REMARK    3  A    between atoms: C_4  and  O_9 
REMARK    4  A    between atoms: C_5  and  O_11 
REMARK    5  A    between atoms: C_13  and  C_16 
REMARK       I    between atoms: C_16  and  N_18 
REMARK    6  A    between atoms: C_23  and  C_24 
REMARK    7  A    between atoms: C_24  and  O_26 
REMARK    8  A    between atoms: O_26  and  C_27 
REMARK    9  A    between atoms: C_27  and  C_28 
REMARK   10  A    between atoms: C_27  and  C_37 
REMARK   11  A    between atoms: C_28  and  C_29 
REMARK   12  A    between atoms: C_29  and  C_30 
REMARK   13  A    between atoms: C_30  and  C_31 
REMARK   14  A    between atoms: C_37  and  C_38 
REMARK   15  A    between atoms: C_38  and  C_39 
REMARK   16  A    between atoms: C_39  and  C_40 
ROOT
HETATM    1  C   UNL     1      -0.844   0.978  -9.116  1.00  0.00     0.298 C 
HETATM    2  O   UNL     1       0.063   0.475  -8.487  1.00  0.00    -0.266 OA
HETATM    3  N   UNL     1      -0.715   2.229  -9.601  1.00  0.00    -0.333 N 
HETATM    4  C   UNL     1      -1.838   2.887 -10.283  1.00  0.00     0.127 C 
HETATM    5  C   UNL     1      -2.095   4.240  -9.613  1.00  0.00     0.020 C 
HETATM    6  C   UNL     1      -0.800   5.056  -9.606  1.00  0.00     0.004 C 
HETATM    7  C   UNL     1       0.267   4.313  -8.798  1.00  0.00     0.035 C 
HETATM    8  C   UNL     1       0.550   2.962  -9.453  1.00  0.00     0.187 C 
ENDROOT
BRANCH   8   9
HETATM    9  C   UNL     1       1.500   2.171  -8.592  1.00  0.00     0.282 C 
HETATM   10  O   UNL     1       1.362   2.164  -7.391  1.00  0.00    -0.263 OA
BRANCH   9  11
HETATM   11  O   UNL     1       2.498   1.475  -9.157  1.00  0.00    -0.314 OA
BRANCH  11  12
HETATM   12  C   UNL     1       3.878   1.842  -8.897  1.00  0.00     0.132 C 
BRANCH  12  13
HETATM   13  C   UNL     1       4.141   3.253  -9.430  1.00  0.00     0.033 C 
BRANCH  13  14
HETATM   14  C   UNL     1       5.060   4.001  -8.463  1.00  0.00     0.007 C 
BRANCH  14  15
HETATM   15  C   UNL     1       4.736   3.584  -7.027  1.00  0.00     0.040 C 
BRANCH  15  16
HETATM   16  C   UNL     1       5.992   3.633  -6.193  1.00  0.00    -0.041 A 
HETATM   17  C   UNL     1       5.940   3.377  -4.836  1.00  0.00     0.123 A 
HETATM   18  N   UNL     1       7.035   3.412  -4.102  1.00  0.00    -0.273 NA
HETATM   19  C   UNL     1       8.210   3.700  -4.624  1.00  0.00     0.116 A 
HETATM   20  C   UNL     1       8.338   3.972  -5.972  1.00  0.00     0.020 A 
HETATM   21  C   UNL     1       7.211   3.940  -6.777  1.00  0.00     0.010 A 
ENDBRANCH  15  16
ENDBRANCH  14  15
ENDBRANCH  13  14
ENDBRANCH  12  13
BRANCH  12  22
HETATM   22  C   UNL     1       4.811   0.851  -9.596  1.00  0.00     0.033 C 
BRANCH  22  23
HETATM   23  C   UNL     1       5.446  -0.073  -8.555  1.00  0.00     0.007 C 
BRANCH  23  24
HETATM   24  C   UNL     1       6.956   0.167  -8.512  1.00  0.00     0.038 C 
BRANCH  24  25
HETATM   25  C   UNL     1       7.520  -0.404  -7.238  1.00  0.00    -0.058 A 
HETATM   26  C   UNL     1       7.437   0.317  -6.062  1.00  0.00     0.007 A 
HETATM   27  C   UNL     1       7.954  -0.208  -4.891  1.00  0.00     0.001 A 
HETATM   28  C   UNL     1       8.553  -1.454  -4.898  1.00  0.00     0.000 A 
HETATM   29  C   UNL     1       8.635  -2.176  -6.074  1.00  0.00     0.001 A 
HETATM   30  C   UNL     1       8.114  -1.653  -7.244  1.00  0.00     0.007 A 
ENDBRANCH  24  25
ENDBRANCH  23  24
ENDBRANCH  22  23
ENDBRANCH  12  22
ENDBRANCH  11  12
ENDBRANCH   9  11
ENDBRANCH   8   9
BRANCH   1  31
HETATM   31  C   UNL     1      -2.115   0.204  -9.356  1.00  0.00     0.350 C 
HETATM   32  F   UNL     1      -2.334   0.081 -10.731  1.00  0.00    -0.190 F 
HETATM   33  F   UNL     1      -3.190   0.881  -8.771  1.00  0.00    -0.190 F 
BRANCH  31  34
HETATM   34  C   UNL     1      -1.991  -1.167  -8.742  1.00  0.00     0.028 A 
HETATM   35  C   UNL     1      -1.046  -2.054  -9.222  1.00  0.00     0.053 A 
HETATM   36  C   UNL     1      -0.928  -3.316  -8.660  1.00  0.00     0.105 A 
HETATM   37  C   UNL     1      -1.766  -3.691  -7.616  1.00  0.00     0.135 A 
HETATM   38  C   UNL     1      -2.711  -2.794  -7.133  1.00  0.00     0.105 A 
HETATM   39  C   UNL     1      -2.822  -1.533  -7.700  1.00  0.00     0.053 A 
BRANCH  36  40
HETATM   40  O   UNL     1       0.003  -4.188  -9.133  1.00  0.00    -0.353 OA
HETATM   41  C   UNL     1      -0.264  -4.360 -10.526  1.00  0.00     0.210 C 
ENDBRANCH  36  40
BRANCH  37  42
HETATM   42  O   UNL     1      -1.654  -4.930  -7.063  1.00  0.00    -0.351 OA
HETATM   43  C   UNL     1      -2.506  -5.796  -7.813  1.00  0.00     0.210 C 
ENDBRANCH  37  42
BRANCH  38  44
HETATM   44  O   UNL     1      -3.530  -3.155  -6.108  1.00  0.00    -0.353 OA
HETATM   45  C   UNL     1      -4.866  -3.110  -6.612  1.00  0.00     0.210 C 
ENDBRANCH  38  44
ENDBRANCH  31  34
ENDBRANCH   1  31
TORSDOF 16
ENDMDL
MODEL 4
REMARK VINA RESULT:      -6.7      3.583      9.738
REMARK  16 active torsions:
REMARK  status: ('A' for Active; 'I' for Inactive)
REMARK    1  A    between atoms: C_1  and  C_13 
REMARK    2  A    between atoms: C_3  and  O_7 
REMARK    3  A    between atoms: C_4  and  O_9 
REMARK    4  A    between atoms: C_5  and  O_11 
REMARK    5  A    between atoms: C_13  and  C_16 
REMARK       I    between atoms: C_16  and  N_18 
REMARK    6  A    between atoms: C_23  and  C_24 
REMARK    7  A    between atoms: C_24  and  O_26 
REMARK    8  A    between atoms: O_26  and  C_27 
REMARK    9  A    between atoms: C_27  and  C_28 
REMARK   10  A    between atoms: C_27  and  C_37 
REMARK   11  A    between atoms: C_28  and  C_29 
REMARK   12  A    between atoms: C_29  and  C_30 
REMARK   13  A    between atoms: C_30  and  C_31 
REMARK   14  A    between atoms: C_37  and  C_38 
REMARK   15  A    between atoms: C_38  and  C_39 
REMARK   16  A    between atoms: C_39  and  C_40 
ROOT
HETATM    1  C   UNL     1       1.999   3.363  -7.514  1.00  0.00     0.298 C 
HETATM    2  O   UNL     1       1.319   2.447  -7.100  1.00  0.00    -0.266 OA
HETATM    3  N   UNL     1       2.444   3.350  -8.786  1.00  0.00    -0.333 N 
HETATM    4  C   UNL     1       3.346   4.402  -9.274  1.00  0.00     0.127 C 
HETATM    5  C   UNL     1       4.588   3.742  -9.883  1.00  0.00     0.020 C 
HETATM    6  C   UNL     1       4.155   2.739 -10.955  1.00  0.00     0.004 C 
HETATM    7  C   UNL     1       3.293   1.648 -10.315  1.00  0.00     0.035 C 
HETATM    8  C   UNL     1       2.041   2.280  -9.709  1.00  0.00     0.187 C 
ENDROOT
BRANCH   8   9
HETATM    9  C   UNL     1       1.255   1.232  -8.964  1.00  0.00     0.282 C 
HETATM   10  O   UNL     1       1.827   0.297  -8.454  1.00  0.00    -0.263 OA
BRANCH   9  11
HETATM   11  O   UNL     1      -0.079   1.337  -8.865  1.00  0.00    -0.314 OA
BRANCH  11  12
HETATM   12  C   UNL     1      -0.919   0.180  -9.115  1.00  0.00     0.132 C 
BRANCH  12  13
HETATM   13  C   UNL     1      -1.166   0.043 -10.620  1.00  0.00     0.033 C 
BRANCH  13  14
HETATM   14  C   UNL     1      -0.561  -1.271 -11.118  1.00  0.00     0.007 C 
BRANCH  14  15
HETATM   15  C   UNL     1      -0.087  -2.100  -9.922  1.00  0.00     0.040 C 
BRANCH  15  16
HETATM   16  C   UNL     1      -0.122  -3.564 -10.279  1.00  0.00    -0.041 A 
HETATM   17  C   UNL     1      -0.374  -3.961 -11.579  1.00  0.00     0.123 A 
HETATM   18  N   UNL     1      -0.401  -5.239 -11.899  1.00  0.00    -0.273 NA
HETATM   19  C   UNL     1      -0.202  -6.184 -11.002  1.00  0.00     0.116 A 
HETATM   20  C   UNL     1       0.052  -5.863  -9.682  1.00  0.00     0.020 A 
HETATM   21  C   UNL     1       0.092  -4.529  -9.308  1.00  0.00     0.010 A 
ENDBRANCH  15  16
ENDBRANCH  14  15
ENDBRANCH  13  14
ENDBRANCH  12  13
BRANCH  12  22
HETATM   22  C   UNL     1      -2.257   0.355  -8.393  1.00  0.00     0.033 C 
BRANCH  22  23
HETATM   23  C   UNL     1      -3.389  -0.150  -9.289  1.00  0.00     0.007 C 
BRANCH  23  24
HETATM   24  C   UNL     1      -4.514  -0.716  -8.421  1.00  0.00     0.038 C 
BRANCH  24  25
HETATM   25  C   UNL     1      -4.270  -2.181  -8.174  1.00  0.00    -0.058 A 
HETATM   26  C   UNL     1      -4.666  -2.758  -6.982  1.00  0.00     0.007 A 
HETATM   27  C   UNL     1      -4.441  -4.104  -6.757  1.00  0.00     0.001 A 
HETATM   28  C   UNL     1      -3.822  -4.872  -7.725  1.00  0.00     0.000 A 
HETATM   29  C   UNL     1      -3.426  -4.297  -8.918  1.00  0.00     0.001 A 
HETATM   30  C   UNL     1      -3.655  -2.952  -9.145  1.00  0.00     0.007 A 
ENDBRANCH  24  25
ENDBRANCH  23  24
ENDBRANCH  22  23
ENDBRANCH  12  22
ENDBRANCH  11  12
ENDBRANCH   9  11
ENDBRANCH   8   9
BRANCH   1  31
HETATM   31  C   UNL     1       2.347   4.514  -6.605  1.00  0.00     0.350 C 
HETATM   32  F   UNL     1       1.538   4.468  -5.465  1.00  0.00    -0.190 F 
HETATM   33  F   UNL     1       2.135   5.720  -7.280  1.00  0.00    -0.190 F 
BRANCH  31  34
HETATM   34  C   UNL     1       3.794   4.412  -6.198  1.00  0.00     0.028 A 
HETATM   35  C   UNL     1       4.588   5.543  -6.182  1.00  0.00     0.053 A 
HETATM   36  C   UNL     1       5.920   5.453  -5.808  1.00  0.00     0.105 A 
HETATM   37  C   UNL     1       6.459   4.221  -5.454  1.00  0.00     0.135 A 
HETATM   38  C   UNL     1       5.656   3.087  -5.465  1.00  0.00     0.105 A 
HETATM   39  C   UNL     1       4.324   3.186  -5.840  1.00  0.00     0.053 A 
BRANCH  36  40
HETATM   40  O   UNL     1       6.700   6.567  -5.793  1.00  0.00    -0.353 OA
HETATM   41  C   UNL     1       6.977   6.895  -7.156  1.00  0.00     0.210 C 
ENDBRANCH  36  40
BRANCH  37  42
HETATM   42  O   UNL     1       7.766   4.129  -5.086  1.00  0.00    -0.351 OA
HETATM   43  C   UNL     1       7.822   4.403  -3.685  1.00  0.00     0.210 C 
ENDBRANCH  37  42
BRANCH  38  44
HETATM   44  O   UNL     1       6.177   1.881  -5.114  1.00  0.00    -0.353 OA
HETATM   45  C   UNL     1       6.592   1.242  -6.323  1.00  0.00     0.210 C 
ENDBRANCH  38  44
ENDBRANCH  31  34
ENDBRANCH   1  31
TORSDOF 16
ENDMDL
MODEL 5
REMARK VINA RESULT:      -6.7      1.087      2.674
REMARK  16 active torsions:
REMARK  status: ('A' for Active; 'I' for Inactive)
REMARK    1  A    between atoms: C_1  and  C_13 
REMARK    2  A    between atoms: C_3  and  O_7 
REMARK    3  A    between atoms: C_4  and  O_9 
REMARK    4  A    between atoms: C_5  and  O_11 
REMARK    5  A    between atoms: C_13  and  C_16 
REMARK       I    between atoms: C_16  and  N_18 
REMARK    6  A    between atoms: C_23  and  C_24 
REMARK    7  A    between atoms: C_24  and  O_26 
REMARK    8  A    between atoms: O_26  and  C_27 
REMARK    9  A    between atoms: C_27  and  C_28 
REMARK   10  A    between atoms: C_27  and  C_37 
REMARK   11  A    between atoms: C_28  and  C_29 
REMARK   12  A    between atoms: C_29  and  C_30 
REMARK   13  A    between atoms: C_30  and  C_31 
REMARK   14  A    between atoms: C_37  and  C_38 
REMARK   15  A    between atoms: C_38  and  C_39 
REMARK   16  A    between atoms: C_39  and  C_40 
ROOT
HETATM    1  C   UNL     1      -0.305  -2.152  -9.394  1.00  0.00     0.298 C 
HETATM    2  O   UNL     1       0.131  -1.341  -8.604  1.00  0.00    -0.266 OA
HETATM    3  N   UNL     1      -1.185  -1.766 -10.339  1.00  0.00    -0.333 N 
HETATM    4  C   UNL     1      -1.794  -2.752 -11.242  1.00  0.00     0.127 C 
HETATM    5  C   UNL     1      -3.317  -2.605 -11.176  1.00  0.00     0.020 C 
HETATM    6  C   UNL     1      -3.701  -1.155 -11.480  1.00  0.00     0.004 C 
HETATM    7  C   UNL     1      -3.081  -0.232 -10.427  1.00  0.00     0.035 C 
HETATM    8  C   UNL     1      -1.559  -0.352 -10.481  1.00  0.00     0.187 C 
ENDROOT
BRANCH   8   9
HETATM    9  C   UNL     1      -0.949   0.451  -9.362  1.00  0.00     0.282 C 
HETATM   10  O   UNL     1      -1.530   0.557  -8.307  1.00  0.00    -0.263 OA
BRANCH   9  11
HETATM   11  O   UNL     1       0.240   1.050  -9.535  1.00  0.00    -0.314 OA
BRANCH  11  12
HETATM   12  C   UNL     1       0.460   2.391  -9.024  1.00  0.00     0.132 C 
BRANCH  12  13
HETATM   13  C   UNL     1       1.237   3.210 -10.057  1.00  0.00     0.033 C 
BRANCH  13  14
HETATM   14  C   UNL     1       2.553   2.501 -10.384  1.00  0.00     0.007 C 
BRANCH  14  15
HETATM   15  C   UNL     1       3.724   3.447 -10.113  1.00  0.00     0.040 C 
BRANCH  15  16
HETATM   16  C   UNL     1       4.862   2.675  -9.495  1.00  0.00    -0.041 A 
HETATM   17  C   UNL     1       6.164   3.116  -9.635  1.00  0.00     0.123 A 
HETATM   18  N   UNL     1       7.163   2.450  -9.093  1.00  0.00    -0.273 NA
HETATM   19  C   UNL     1       6.967   1.340  -8.409  1.00  0.00     0.116 A 
HETATM   20  C   UNL     1       5.692   0.836  -8.231  1.00  0.00     0.020 A 
HETATM   21  C   UNL     1       4.616   1.512  -8.782  1.00  0.00     0.010 A 
ENDBRANCH  15  16
ENDBRANCH  14  15
ENDBRANCH  13  14
ENDBRANCH  12  13
BRANCH  12  22
HETATM   22  C   UNL     1       1.263   2.316  -7.723  1.00  0.00     0.033 C 
BRANCH  22  23
HETATM   23  C   UNL     1       1.445   3.725  -7.155  1.00  0.00     0.007 C 
BRANCH  23  24
HETATM   24  C   UNL     1       2.249   3.651  -5.856  1.00  0.00     0.038 C 
BRANCH  24  25
HETATM   25  C   UNL     1       3.650   4.146  -6.103  1.00  0.00    -0.058 A 
HETATM   26  C   UNL     1       3.854   5.340  -6.768  1.00  0.00     0.007 A 
HETATM   27  C   UNL     1       5.141   5.793  -6.995  1.00  0.00     0.001 A 
HETATM   28  C   UNL     1       6.222   5.053  -6.555  1.00  0.00     0.000 A 
HETATM   29  C   UNL     1       6.018   3.859  -5.889  1.00  0.00     0.001 A 
HETATM   30  C   UNL     1       4.732   3.407  -5.659  1.00  0.00     0.007 A 
ENDBRANCH  24  25
ENDBRANCH  23  24
ENDBRANCH  22  23
ENDBRANCH  12  22
ENDBRANCH  11  12
ENDBRANCH   9  11
ENDBRANCH   8   9
BRANCH   1  31
HETATM   31  C   UNL     1       0.138  -3.591  -9.319  1.00  0.00     0.350 C 
HETATM   32  F   UNL     1       1.327  -3.675  -8.589  1.00  0.00    -0.190 F 
HETATM   33  F   UNL     1       0.348  -4.081 -10.612  1.00  0.00    -0.190 F 
BRANCH  31  34
HETATM   34  C   UNL     1      -0.928  -4.409  -8.638  1.00  0.00     0.028 A 
HETATM   35  C   UNL     1      -1.067  -5.750  -8.939  1.00  0.00     0.053 A 
HETATM   36  C   UNL     1      -2.046  -6.507  -8.314  1.00  0.00     0.105 A 
HETATM   37  C   UNL     1      -2.894  -5.912  -7.386  1.00  0.00     0.135 A 
HETATM   38  C   UNL     1      -2.748  -4.564  -7.081  1.00  0.00     0.105 A 
HETATM   39  C   UNL     1      -1.765  -3.815  -7.711  1.00  0.00     0.053 A 
BRANCH  36  40
HETATM   40  O   UNL     1      -2.182  -7.827  -8.611  1.00  0.00    -0.353 OA
HETATM   41  C   UNL     1      -1.152  -8.146  -9.549  1.00  0.00     0.210 C 
ENDBRANCH  36  40
BRANCH  37  42
HETATM   42  O   UNL     1      -3.858  -6.651  -6.771  1.00  0.00    -0.351 OA
HETATM   43  C   UNL     1      -3.244  -7.267  -5.637  1.00  0.00     0.210 C 
ENDBRANCH  37  42
BRANCH  38  44
HETATM   44  O   UNL     1      -3.572  -3.979  -6.171  1.00  0.00    -0.353 OA
HETATM   45  C   UNL     1      -4.527  -3.213  -6.909  1.00  0.00     0.210 C 
ENDBRANCH  38  44
ENDBRANCH  31  34
ENDBRANCH   1  31
TORSDOF 16
ENDMDL
MODEL 6
REMARK VINA RESULT:      -6.6      3.572      9.929
REMARK  16 active torsions:
REMARK  status: ('A' for Active; 'I' for Inactive)
REMARK    1  A    between atoms: C_1  and  C_13 
REMARK    2  A    between atoms: C_3  and  O_7 
REMARK    3  A    between atoms: C_4  and  O_9 
REMARK    4  A    between atoms: C_5  and  O_11 
REMARK    5  A    between atoms: C_13  and  C_16 
REMARK       I    between atoms: C_16  and  N_18 
REMARK    6  A    between atoms: C_23  and  C_24 
REMARK    7  A    between atoms: C_24  and  O_26 
REMARK    8  A    between atoms: O_26  and  C_27 
REMARK    9  A    between atoms: C_27  and  C_28 
REMARK   10  A    between atoms: C_27  and  C_37 
REMARK   11  A    between atoms: C_28  and  C_29 
REMARK   12  A    between atoms: C_29  and  C_30 
REMARK   13  A    between atoms: C_30  and  C_31 
REMARK   14  A    between atoms: C_37  and  C_38 
REMARK   15  A    between atoms: C_38  and  C_39 
REMARK   16  A    between atoms: C_39  and  C_40 
ROOT
HETATM    1  C   UNL     1       1.949   3.244  -7.457  1.00  0.00     0.298 C 
HETATM    2  O   UNL     1       1.379   2.279  -6.991  1.00  0.00    -0.266 OA
HETATM    3  N   UNL     1       2.290   3.259  -8.760  1.00  0.00    -0.333 N 
HETATM    4  C   UNL     1       3.062   4.377  -9.319  1.00  0.00     0.127 C 
HETATM    5  C   UNL     1       4.300   3.816 -10.026  1.00  0.00     0.020 C 
HETATM    6  C   UNL     1       3.865   2.775 -11.060  1.00  0.00     0.004 C 
HETATM    7  C   UNL     1       3.148   1.622 -10.353  1.00  0.00     0.035 C 
HETATM    8  C   UNL     1       1.902   2.155  -9.649  1.00  0.00     0.187 C 
ENDROOT
BRANCH   8   9
HETATM    9  C   UNL     1       1.265   1.052  -8.844  1.00  0.00     0.282 C 
HETATM   10  O   UNL     1       1.940   0.135  -8.437  1.00  0.00    -0.263 OA
BRANCH   9  11
HETATM   11  O   UNL     1      -0.049   1.087  -8.577  1.00  0.00    -0.314 OA
BRANCH  11  12
HETATM   12  C   UNL     1      -0.917   0.027  -9.056  1.00  0.00     0.132 C 
BRANCH  12  13
HETATM   13  C   UNL     1      -0.775  -0.102 -10.575  1.00  0.00     0.033 C 
BRANCH  13  14
HETATM   14  C   UNL     1      -0.035  -1.399 -10.909  1.00  0.00     0.007 C 
BRANCH  14  15
HETATM   15  C   UNL     1       0.029  -2.285  -9.664  1.00  0.00     0.040 C 
BRANCH  15  16
HETATM   16  C   UNL     1      -0.487  -3.662 -10.000  1.00  0.00    -0.041 A 
HETATM   17  C   UNL     1      -0.100  -4.756  -9.249  1.00  0.00     0.123 A 
HETATM   18  N   UNL     1      -0.551  -5.961  -9.533  1.00  0.00    -0.273 NA
HETATM   19  C   UNL     1      -1.373  -6.175 -10.541  1.00  0.00     0.116 A 
HETATM   20  C   UNL     1      -1.799  -5.130 -11.339  1.00  0.00     0.020 A 
HETATM   21  C   UNL     1      -1.350  -3.847 -11.068  1.00  0.00     0.010 A 
ENDBRANCH  15  16
ENDBRANCH  14  15
ENDBRANCH  13  14
ENDBRANCH  12  13
BRANCH  12  22
HETATM   22  C   UNL     1      -2.369   0.358  -8.706  1.00  0.00     0.033 C 
BRANCH  22  23
HETATM   23  C   UNL     1      -3.283  -0.759  -9.212  1.00  0.00     0.007 C 
BRANCH  23  24
HETATM   24  C   UNL     1      -4.420  -0.981  -8.212  1.00  0.00     0.038 C 
BRANCH  24  25
HETATM   25  C   UNL     1      -4.383  -2.402  -7.716  1.00  0.00    -0.058 A 
HETATM   26  C   UNL     1      -3.660  -3.357  -8.405  1.00  0.00     0.007 A 
HETATM   27  C   UNL     1      -3.626  -4.661  -7.948  1.00  0.00     0.001 A 
HETATM   28  C   UNL     1      -4.314  -5.011  -6.802  1.00  0.00     0.000 A 
HETATM   29  C   UNL     1      -5.038  -4.056  -6.111  1.00  0.00     0.001 A 
HETATM   30  C   UNL     1      -5.068  -2.750  -6.565  1.00  0.00     0.007 A 
ENDBRANCH  24  25
ENDBRANCH  23  24
ENDBRANCH  22  23
ENDBRANCH  12  22
ENDBRANCH  11  12
ENDBRANCH   9  11
ENDBRANCH   8   9
BRANCH   1  31
HETATM   31  C   UNL     1       2.274   4.424  -6.579  1.00  0.00     0.350 C 
HETATM   32  F   UNL     1       1.486   4.377  -5.424  1.00  0.00    -0.190 F 
HETATM   33  F   UNL     1       2.011   5.608  -7.274  1.00  0.00    -0.190 F 
BRANCH  31  34
HETATM   34  C   UNL     1       3.730   4.378  -6.195  1.00  0.00     0.028 A 
HETATM   35  C   UNL     1       4.313   3.177  -5.842  1.00  0.00     0.053 A 
HETATM   36  C   UNL     1       5.653   3.130  -5.489  1.00  0.00     0.105 A 
HETATM   37  C   UNL     1       6.410   4.297  -5.485  1.00  0.00     0.135 A 
HETATM   38  C   UNL     1       5.822   5.502  -5.847  1.00  0.00     0.105 A 
HETATM   39  C   UNL     1       4.480   5.540  -6.199  1.00  0.00     0.053 A 
BRANCH  36  40
HETATM   40  O   UNL     1       6.226   1.946  -5.141  1.00  0.00    -0.353 OA
HETATM   41  C   UNL     1       6.597   1.294  -6.357  1.00  0.00     0.210 C 
ENDBRANCH  36  40
BRANCH  37  42
HETATM   42  O   UNL     1       7.725   4.255  -5.139  1.00  0.00    -0.351 OA
HETATM   43  C   UNL     1       7.783   4.408  -3.719  1.00  0.00     0.210 C 
ENDBRANCH  37  42
BRANCH  38  44
HETATM   44  O   UNL     1       6.559   6.646  -5.850  1.00  0.00    -0.353 OA
HETATM   45  C   UNL     1       6.922   6.899  -7.209  1.00  0.00     0.210 C 
ENDBRANCH  38  44
ENDBRANCH  31  34
ENDBRANCH   1  31
TORSDOF 16
ENDMDL
MODEL 7
REMARK VINA RESULT:      -6.6      3.852      9.227
REMARK  16 active torsions:
REMARK  status: ('A' for Active; 'I' for Inactive)
REMARK    1  A    between atoms: C_1  and  C_13 
REMARK    2  A    between atoms: C_3  and  O_7 
REMARK    3  A    between atoms: C_4  and  O_9 
REMARK    4  A    between atoms: C_5  and  O_11 
REMARK    5  A    between atoms: C_13  and  C_16 
REMARK       I    between atoms: C_16  and  N_18 
REMARK    6  A    between atoms: C_23  and  C_24 
REMARK    7  A    between atoms: C_24  and  O_26 
REMARK    8  A    between atoms: O_26  and  C_27 
REMARK    9  A    between atoms: C_27  and  C_28 
REMARK   10  A    between atoms: C_27  and  C_37 
REMARK   11  A    between atoms: C_28  and  C_29 
REMARK   12  A    between atoms: C_29  and  C_30 
REMARK   13  A    between atoms: C_30  and  C_31 
REMARK   14  A    between atoms: C_37  and  C_38 
REMARK   15  A    between atoms: C_38  and  C_39 
REMARK   16  A    between atoms: C_39  and  C_40 
ROOT
HETATM    1  C   UNL     1       4.051   3.649  -7.265  1.00  0.00     0.298 C 
HETATM    2  O   UNL     1       3.729   2.482  -7.188  1.00  0.00    -0.266 OA
HETATM    3  N   UNL     1       3.215   4.542  -7.830  1.00  0.00    -0.333 N 
HETATM    4  C   UNL     1       3.628   5.940  -8.017  1.00  0.00     0.127 C 
HETATM    5  C   UNL     1       3.430   6.319  -9.488  1.00  0.00     0.020 C 
HETATM    6  C   UNL     1       1.983   6.032  -9.895  1.00  0.00     0.004 C 
HETATM    7  C   UNL     1       1.696   4.537  -9.740  1.00  0.00     0.035 C 
HETATM    8  C   UNL     1       1.875   4.135  -8.277  1.00  0.00     0.187 C 
ENDROOT
BRANCH   8   9
HETATM    9  C   UNL     1       1.724   2.642  -8.140  1.00  0.00     0.282 C 
HETATM   10  O   UNL     1       1.318   2.169  -7.105  1.00  0.00    -0.263 OA
BRANCH   9  11
HETATM   11  O   UNL     1       2.040   1.838  -9.167  1.00  0.00    -0.314 OA
BRANCH  11  12
HETATM   12  C   UNL     1       1.138   0.769  -9.557  1.00  0.00     0.132 C 
BRANCH  12  13
HETATM   13  C   UNL     1       1.934  -0.523  -9.759  1.00  0.00     0.033 C 
BRANCH  13  14
HETATM   14  C   UNL     1       1.160  -1.698  -9.159  1.00  0.00     0.007 C 
BRANCH  14  15
HETATM   15  C   UNL     1       0.414  -2.438 -10.270  1.00  0.00     0.040 C 
BRANCH  15  16
HETATM   16  C   UNL     1      -0.492  -3.478  -9.661  1.00  0.00    -0.041 A 
HETATM   17  C   UNL     1      -1.159  -4.382 -10.466  1.00  0.00     0.123 A 
HETATM   18  N   UNL     1      -1.948  -5.298  -9.941  1.00  0.00    -0.273 NA
HETATM   19  C   UNL     1      -2.142  -5.383  -8.640  1.00  0.00     0.116 A 
HETATM   20  C   UNL     1      -1.512  -4.510  -7.773  1.00  0.00     0.020 A 
HETATM   21  C   UNL     1      -0.671  -3.537  -8.288  1.00  0.00     0.010 A 
ENDBRANCH  15  16
ENDBRANCH  14  15
ENDBRANCH  13  14
ENDBRANCH  12  13
BRANCH  12  22
HETATM   22  C   UNL     1       0.436   1.145 -10.863  1.00  0.00     0.033 C 
BRANCH  22  23
HETATM   23  C   UNL     1      -1.079   1.039 -10.677  1.00  0.00     0.007 C 
BRANCH  23  24
HETATM   24  C   UNL     1      -1.410   1.033  -9.183  1.00  0.00     0.038 C 
BRANCH  24  25
HETATM   25  C   UNL     1      -2.382  -0.079  -8.889  1.00  0.00    -0.058 A 
HETATM   26  C   UNL     1      -2.928  -0.813  -9.925  1.00  0.00     0.007 A 
HETATM   27  C   UNL     1      -3.820  -1.834  -9.654  1.00  0.00     0.001 A 
HETATM   28  C   UNL     1      -4.166  -2.122  -8.347  1.00  0.00     0.000 A 
HETATM   29  C   UNL     1      -3.620  -1.389  -7.310  1.00  0.00     0.001 A 
HETATM   30  C   UNL     1      -2.724  -0.370  -7.581  1.00  0.00     0.007 A 
ENDBRANCH  24  25
ENDBRANCH  23  24
ENDBRANCH  22  23
ENDBRANCH  12  22
ENDBRANCH  11  12
ENDBRANCH   9  11
ENDBRANCH   8   9
BRANCH   1  31
HETATM   31  C   UNL     1       5.386   4.100  -6.729  1.00  0.00     0.350 C 
HETATM   32  F   UNL     1       5.195   5.150  -5.826  1.00  0.00    -0.190 F 
HETATM   33  F   UNL     1       6.190   4.534  -7.787  1.00  0.00    -0.190 F 
BRANCH  31  34
HETATM   34  C   UNL     1       6.058   2.949  -6.026  1.00  0.00     0.028 A 
HETATM   35  C   UNL     1       6.126   2.928  -4.646  1.00  0.00     0.053 A 
HETATM   36  C   UNL     1       6.743   1.871  -3.995  1.00  0.00     0.105 A 
HETATM   37  C   UNL     1       7.300   0.833  -4.733  1.00  0.00     0.135 A 
HETATM   38  C   UNL     1       7.225   0.854  -6.121  1.00  0.00     0.105 A 
HETATM   39  C   UNL     1       6.605   1.916  -6.764  1.00  0.00     0.053 A 
BRANCH  36  40
HETATM   40  O   UNL     1       6.809   1.852  -2.637  1.00  0.00    -0.353 OA
HETATM   41  C   UNL     1       7.549   3.009  -2.244  1.00  0.00     0.210 C 
ENDBRANCH  36  40
BRANCH  37  42
HETATM   42  O   UNL     1       7.908  -0.206  -4.098  1.00  0.00    -0.351 OA
HETATM   43  C   UNL     1       9.287   0.143  -3.961  1.00  0.00     0.210 C 
ENDBRANCH  37  42
BRANCH  38  44
HETATM   44  O   UNL     1       7.764  -0.162  -6.848  1.00  0.00    -0.353 OA
HETATM   45  C   UNL     1       8.749   0.420  -7.704  1.00  0.00     0.210 C 
ENDBRANCH  38  44
ENDBRANCH  31  34
ENDBRANCH   1  31
TORSDOF 16
ENDMDL
MODEL 8
REMARK VINA RESULT:      -6.5      3.613     10.190
REMARK  16 active torsions:
REMARK  status: ('A' for Active; 'I' for Inactive)
REMARK    1  A    between atoms: C_1  and  C_13 
REMARK    2  A    between atoms: C_3  and  O_7 
REMARK    3  A    between atoms: C_4  and  O_9 
REMARK    4  A    between atoms: C_5  and  O_11 
REMARK    5  A    between atoms: C_13  and  C_16 
REMARK       I    between atoms: C_16  and  N_18 
REMARK    6  A    between atoms: C_23  and  C_24 
REMARK    7  A    between atoms: C_24  and  O_26 
REMARK    8  A    between atoms: O_26  and  C_27 
REMARK    9  A    between atoms: C_27  and  C_28 
REMARK   10  A    between atoms: C_27  and  C_37 
REMARK   11  A    between atoms: C_28  and  C_29 
REMARK   12  A    between atoms: C_29  and  C_30 
REMARK   13  A    between atoms: C_30  and  C_31 
REMARK   14  A    between atoms: C_37  and  C_38 
REMARK   15  A    between atoms: C_38  and  C_39 
REMARK   16  A    between atoms: C_39  and  C_40 
ROOT
HETATM    1  C   UNL     1       1.924   3.109  -7.264  1.00  0.00     0.298 C 
HETATM    2  O   UNL     1       1.481   2.066  -6.830  1.00  0.00    -0.266 OA
HETATM    3  N   UNL     1       2.107   3.264  -8.590  1.00  0.00    -0.333 N 
HETATM    4  C   UNL     1       2.730   4.483  -9.122  1.00  0.00     0.127 C 
HETATM    5  C   UNL     1       3.911   4.084 -10.012  1.00  0.00     0.020 C 
HETATM    6  C   UNL     1       3.429   3.106 -11.086  1.00  0.00     0.004 C 
HETATM    7  C   UNL     1       2.881   1.843 -10.416  1.00  0.00     0.035 C 
HETATM    8  C   UNL     1       1.693   2.213  -9.530  1.00  0.00     0.187 C 
ENDROOT
BRANCH   8   9
HETATM    9  C   UNL     1       1.233   0.998  -8.767  1.00  0.00     0.282 C 
HETATM   10  O   UNL     1       2.030   0.146  -8.452  1.00  0.00    -0.263 OA
BRANCH   9  11
HETATM   11  O   UNL     1      -0.061   0.862  -8.438  1.00  0.00    -0.314 OA
BRANCH  11  12
HETATM   12  C   UNL     1      -1.020   0.411  -9.430  1.00  0.00     0.132 C 
BRANCH  12  13
HETATM   13  C   UNL     1      -2.438   0.732  -8.952  1.00  0.00     0.033 C 
BRANCH  13  14
HETATM   14  C   UNL     1      -2.867  -0.294  -7.902  1.00  0.00     0.007 C 
BRANCH  14  15
HETATM   15  C   UNL     1      -4.169  -0.965  -8.346  1.00  0.00     0.040 C 
BRANCH  15  16
HETATM   16  C   UNL     1      -4.274  -2.328  -7.712  1.00  0.00    -0.041 A 
HETATM   17  C   UNL     1      -5.021  -2.509  -6.563  1.00  0.00     0.123 A 
HETATM   18  N   UNL     1      -5.122  -3.699  -6.005  1.00  0.00    -0.273 NA
HETATM   19  C   UNL     1      -4.514  -4.755  -6.509  1.00  0.00     0.116 A 
HETATM   20  C   UNL     1      -3.746  -4.650  -7.653  1.00  0.00     0.020 A 
HETATM   21  C   UNL     1      -3.620  -3.415  -8.270  1.00  0.00     0.010 A 
ENDBRANCH  15  16
ENDBRANCH  14  15
ENDBRANCH  13  14
ENDBRANCH  12  13
BRANCH  12  22
HETATM   22  C   UNL     1      -0.879  -1.099  -9.627  1.00  0.00     0.033 C 
BRANCH  22  23
HETATM   23  C   UNL     1      -1.372  -1.480 -11.024  1.00  0.00     0.007 C 
BRANCH  23  24
HETATM   24  C   UNL     1      -0.462  -2.560 -11.611  1.00  0.00     0.038 C 
BRANCH  24  25
HETATM   25  C   UNL     1      -0.721  -3.869 -10.912  1.00  0.00    -0.058 A 
HETATM   26  C   UNL     1       0.052  -4.240  -9.829  1.00  0.00     0.007 A 
HETATM   27  C   UNL     1      -0.188  -5.442  -9.188  1.00  0.00     0.001 A 
HETATM   28  C   UNL     1      -1.201  -6.271  -9.630  1.00  0.00     0.000 A 
HETATM   29  C   UNL     1      -1.976  -5.900 -10.713  1.00  0.00     0.001 A 
HETATM   30  C   UNL     1      -1.739  -4.697 -11.352  1.00  0.00     0.007 A 
ENDBRANCH  24  25
ENDBRANCH  23  24
ENDBRANCH  22  23
ENDBRANCH  12  22
ENDBRANCH  11  12
ENDBRANCH   9  11
ENDBRANCH   8   9
BRANCH   1  31
HETATM   31  C   UNL     1       2.269   4.232  -6.319  1.00  0.00     0.350 C 
HETATM   32  F   UNL     1       1.687   3.986  -5.071  1.00  0.00    -0.190 F 
HETATM   33  F   UNL     1       1.782   5.438  -6.831  1.00  0.00    -0.190 F 
BRANCH  31  34
HETATM   34  C   UNL     1       3.766   4.317  -6.167  1.00  0.00     0.028 A 
HETATM   35  C   UNL     1       4.411   5.523  -6.361  1.00  0.00     0.053 A 
HETATM   36  C   UNL     1       5.788   5.606  -6.222  1.00  0.00     0.105 A 
HETATM   37  C   UNL     1       6.521   4.471  -5.892  1.00  0.00     0.135 A 
HETATM   38  C   UNL     1       5.868   3.261  -5.692  1.00  0.00     0.105 A 
HETATM   39  C   UNL     1       4.489   3.187  -5.833  1.00  0.00     0.053 A 
BRANCH  36  40
HETATM   40  O   UNL     1       6.423   6.794  -6.413  1.00  0.00    -0.353 OA
HETATM   41  C   UNL     1       5.935   7.328  -7.645  1.00  0.00     0.210 C 
ENDBRANCH  36  40
BRANCH  37  42
HETATM   42  O   UNL     1       7.873   4.548  -5.756  1.00  0.00    -0.351 OA
HETATM   43  C   UNL     1       8.435   4.250  -7.035  1.00  0.00     0.210 C 
ENDBRANCH  37  42
BRANCH  38  44
HETATM   44  O   UNL     1       6.579   2.149  -5.364  1.00  0.00    -0.353 OA
HETATM   45  C   UNL     1       6.571   2.059  -3.938  1.00  0.00     0.210 C 
ENDBRANCH  38  44
ENDBRANCH  31  34
ENDBRANCH   1  31
TORSDOF 16
ENDMDL
MODEL 9
REMARK VINA RESULT:      -6.4      2.235      3.840
REMARK  16 active torsions:
REMARK  status: ('A' for Active; 'I' for Inactive)
REMARK    1  A    between atoms: C_1  and  C_13 
REMARK    2  A    between atoms: C_3  and  O_7 
REMARK    3  A    between atoms: C_4  and  O_9 
REMARK    4  A    between atoms: C_5  and  O_11 
REMARK    5  A    between atoms: C_13  and  C_16 
REMARK       I    between atoms: C_16  and  N_18 
REMARK    6  A    between atoms: C_23  and  C_24 
REMARK    7  A    between atoms: C_24  and  O_26 
REMARK    8  A    between atoms: O_26  and  C_27 
REMARK    9  A    between atoms: C_27  and  C_28 
REMARK   10  A    between atoms: C_27  and  C_37 
REMARK   11  A    between atoms: C_28  and  C_29 
REMARK   12  A    between atoms: C_29  and  C_30 
REMARK   13  A    between atoms: C_30  and  C_31 
REMARK   14  A    between atoms: C_37  and  C_38 
REMARK   15  A    between atoms: C_38  and  C_39 
REMARK   16  A    between atoms: C_39  and  C_40 
ROOT
HETATM    1  C   UNL     1      -2.059  -0.118  -8.819  1.00  0.00     0.298 C 
HETATM    2  O   UNL     1      -0.998   0.280  -8.388  1.00  0.00    -0.266 OA
HETATM    3  N   UNL     1      -2.337  -0.007 -10.133  1.00  0.00    -0.333 N 
HETATM    4  C   UNL     1      -3.654  -0.398 -10.655  1.00  0.00     0.127 C 
HETATM    5  C   UNL     1      -4.236   0.776 -11.449  1.00  0.00     0.020 C 
HETATM    6  C   UNL     1      -3.236   1.206 -12.525  1.00  0.00     0.004 C 
HETATM    7  C   UNL     1      -1.938   1.670 -11.859  1.00  0.00     0.035 C 
HETATM    8  C   UNL     1      -1.331   0.513 -11.069  1.00  0.00     0.187 C 
ENDROOT
BRANCH   8   9
HETATM    9  C   UNL     1      -0.126   0.998 -10.306  1.00  0.00     0.282 C 
HETATM   10  O   UNL     1       0.788   0.242 -10.075  1.00  0.00    -0.263 OA
BRANCH   9  11
HETATM   11  O   UNL     1      -0.068   2.270  -9.882  1.00  0.00    -0.314 OA
BRANCH  11  12
HETATM   12  C   UNL     1       1.188   2.820  -9.404  1.00  0.00     0.132 C 
BRANCH  12  13
HETATM   13  C   UNL     1       0.954   3.557  -8.083  1.00  0.00     0.033 C 
BRANCH  13  14
HETATM   14  C   UNL     1       1.764   2.884  -6.973  1.00  0.00     0.007 C 
BRANCH  14  15
HETATM   15  C   UNL     1       2.149   3.925  -5.920  1.00  0.00     0.040 C 
BRANCH  15  16
HETATM   16  C   UNL     1       3.629   4.200  -6.003  1.00  0.00    -0.041 A 
HETATM   17  C   UNL     1       4.088   5.437  -6.415  1.00  0.00     0.123 A 
HETATM   18  N   UNL     1       5.381   5.687  -6.484  1.00  0.00    -0.273 NA
HETATM   19  C   UNL     1       6.281   4.774  -6.177  1.00  0.00     0.116 A 
HETATM   20  C   UNL     1       5.897   3.514  -5.761  1.00  0.00     0.020 A 
HETATM   21  C   UNL     1       4.546   3.215  -5.671  1.00  0.00     0.010 A 
ENDBRANCH  15  16
ENDBRANCH  14  15
ENDBRANCH  13  14
ENDBRANCH  12  13
BRANCH  12  22
HETATM   22  C   UNL     1       1.745   3.797 -10.441  1.00  0.00     0.033 C 
BRANCH  22  23
HETATM   23  C   UNL     1       3.154   3.362 -10.847  1.00  0.00     0.007 C 
BRANCH  23  24
HETATM   24  C   UNL     1       4.172   3.949  -9.868  1.00  0.00     0.038 C 
BRANCH  24  25
HETATM   25  C   UNL     1       5.099   2.861  -9.394  1.00  0.00    -0.058 A 
HETATM   26  C   UNL     1       4.585   1.648  -8.976  1.00  0.00     0.007 A 
HETATM   27  C   UNL     1       5.437   0.649  -8.542  1.00  0.00     0.001 A 
HETATM   28  C   UNL     1       6.802   0.863  -8.527  1.00  0.00     0.000 A 
HETATM   29  C   UNL     1       7.318   2.075  -8.947  1.00  0.00     0.001 A 
HETATM   30  C   UNL     1       6.466   3.073  -9.385  1.00  0.00     0.007 A 
ENDBRANCH  24  25
ENDBRANCH  23  24
ENDBRANCH  22  23
ENDBRANCH  12  22
ENDBRANCH  11  12
ENDBRANCH   9  11
ENDBRANCH   8   9
BRANCH   1  31
HETATM   31  C   UNL     1      -3.067  -0.737  -7.885  1.00  0.00     0.350 C 
HETATM   32  F   UNL     1      -4.359  -0.424  -8.318  1.00  0.00    -0.190 F 
HETATM   33  F   UNL     1      -2.874  -0.237  -6.594  1.00  0.00    -0.190 F 
BRANCH  31  34
HETATM   34  C   UNL     1      -2.890  -2.234  -7.877  1.00  0.00     0.028 A 
HETATM   35  C   UNL     1      -1.673  -2.787  -8.227  1.00  0.00     0.053 A 
HETATM   36  C   UNL     1      -1.506  -4.163  -8.221  1.00  0.00     0.105 A 
HETATM   37  C   UNL     1      -2.568  -4.988  -7.867  1.00  0.00     0.135 A 
HETATM   38  C   UNL     1      -3.788  -4.429  -7.509  1.00  0.00     0.105 A 
HETATM   39  C   UNL     1      -3.947  -3.050  -7.518  1.00  0.00     0.053 A 
BRANCH  36  40
HETATM   40  O   UNL     1      -0.308  -4.706  -8.566  1.00  0.00    -0.353 OA
HETATM   41  C   UNL     1       0.168  -3.970  -9.695  1.00  0.00     0.210 C 
ENDBRANCH  36  40
BRANCH  37  42
HETATM   42  O   UNL     1      -2.408  -6.340  -7.860  1.00  0.00    -0.351 OA
HETATM   43  C   UNL     1      -2.745  -6.802  -9.169  1.00  0.00     0.210 C 
ENDBRANCH  37  42
BRANCH  38  44
HETATM   44  O   UNL     1      -4.828  -5.231  -7.157  1.00  0.00    -0.353 OA
HETATM   45  C   UNL     1      -4.896  -5.217  -5.729  1.00  0.00     0.210 C 
ENDBRANCH  38  44
ENDBRANCH  31  34
ENDBRANCH   1  31
TORSDOF 16
ENDMDL
