MODEL 1
REMARK VINA RESULT:      -7.0      0.000      0.000
REMARK  Name = 001
REMARK  19 active torsions:
REMARK  status: ('A' for Active; 'I' for Inactive)
REMARK    1  A    between atoms: C_1  and  C_13
REMARK    2  A    between atoms: C_3  and  O_7
REMARK    3  A    between atoms: C_4  and  O_9
REMARK    4  A    between atoms: C_5  and  O_11
REMARK    5  A    between atoms: O_7  and  C_8
REMARK    6  A    between atoms: O_9  and  C_10
REMARK    7  A    between atoms: O_11  and  C_12
REMARK    8  A    between atoms: C_13  and  C_16
REMARK    9  A    between atoms: C_23  and  C_24
REMARK   10  A    between atoms: C_24  and  O_26
REMARK   11  A    between atoms: O_26  and  C_27
REMARK   12  A    between atoms: C_27  and  C_28
REMARK   13  A    between atoms: C_27  and  C_37
REMARK   14  A    between atoms: C_28  and  C_29
REMARK   15  A    between atoms: C_29  and  C_30
REMARK   16  A    between atoms: C_30  and  C_31
REMARK   17  A    between atoms: C_37  and  C_38
REMARK   18  A    between atoms: C_38  and  C_39
REMARK   19  A    between atoms: C_39  and  C_40
REMARK                            x       y       z     vdW  Elec       q    Type
REMARK                         _______ _______ _______ _____ _____    ______ ____
ROOT
ATOM      1  C   UNL     1      -0.737   0.991  -9.125  0.00  0.00    +0.000 C 
ATOM      2  O   UNL     1       0.136   0.488  -8.448  0.00  0.00    +0.000 OA
ATOM      3  N   UNL     1      -0.573   2.232  -9.623  0.00  0.00    +0.000 N 
ATOM      4  C   UNL     1      -1.657   2.891 -10.364  0.00  0.00    +0.000 C 
ATOM      5  C   UNL     1      -1.927   4.258  -9.728  0.00  0.00    +0.000 C 
ATOM      6  C   UNL     1      -0.625   5.060  -9.676  0.00  0.00    +0.000 C 
ATOM      7  C   UNL     1       0.397   4.319  -8.810  0.00  0.00    +0.000 C 
ATOM      8  C   UNL     1       0.693   2.955  -9.431  0.00  0.00    +0.000 C 
ENDROOT
BRANCH   1   9
ATOM      9  C   UNL     1      -2.005   0.227  -9.408  0.00  0.00    +0.000 C 
ATOM     10  F   UNL     1      -2.176   0.104 -10.790  0.00  0.00    +0.000 F 
ATOM     11  F   UNL     1      -3.094   0.912  -8.862  0.00  0.00    +0.000 F 
BRANCH   9  12
ATOM     12  C   UNL     1      -1.912  -1.145  -8.790  0.00  0.00    +0.000 A 
ATOM     13  C   UNL     1      -0.983  -2.052  -9.261  0.00  0.00    +0.000 A 
ATOM     14  C   UNL     1      -0.894  -3.315  -8.695  0.00  0.00    +0.000 A 
ATOM     15  C   UNL     1      -1.747  -3.670  -7.656  0.00  0.00    +0.000 A 
ATOM     16  C   UNL     1      -2.676  -2.752  -7.181  0.00  0.00    +0.000 A 
ATOM     17  C   UNL     1      -2.758  -1.491  -7.753  0.00  0.00    +0.000 A 
BRANCH  14  18
ATOM     18  O   UNL     1       0.021  -4.207  -9.160  0.00  0.00    +0.000 OA
ATOM     19  C   UNL     1      -0.260  -4.402 -10.547  0.00  0.00    +0.000 C 
ENDBRANCH  14  18
BRANCH  15  20
ATOM     20  O   UNL     1      -1.664  -4.909  -7.098  0.00  0.00    +0.000 OA
ATOM     21  C   UNL     1      -2.539  -5.757  -7.844  0.00  0.00    +0.000 C 
ENDBRANCH  15  20
BRANCH  16  22
ATOM     22  O   UNL     1      -3.509  -3.093  -6.161  0.00  0.00    +0.000 OA
ATOM     23  C   UNL     1      -4.842  -3.010  -6.670  0.00  0.00    +0.000 C 
ENDBRANCH  16  22
ENDBRANCH   9  12
ENDBRANCH   1   9
BRANCH   8  24
ATOM     24  C   UNL     1       1.595   2.168  -8.515  0.00  0.00    +0.000 C 
ATOM     25  O   UNL     1       1.396   2.169  -7.323  0.00  0.00    +0.000 OA
BRANCH  24  26
ATOM     26  O   UNL     1       2.619   1.464  -9.023  0.00  0.00    +0.000 OA
BRANCH  26  27
ATOM     27  C   UNL     1       3.981   1.781  -8.634  0.00  0.00    +0.000 C 
BRANCH  27  28
ATOM     28  C   UNL     1       4.295   3.233  -9.005  0.00  0.00    +0.000 C 
BRANCH  28  29
ATOM     29  C   UNL     1       5.075   3.893  -7.867  0.00  0.00    +0.000 C 
BRANCH  29  30
ATOM     30  C   UNL     1       4.663   3.263  -6.535  0.00  0.00    +0.000 C 
BRANCH  30  31
ATOM     31  C   UNL     1       5.725   3.536  -5.500  0.00  0.00    +0.000 A 
ATOM     32  C   UNL     1       6.411   4.736  -5.501  0.00  0.00    +0.000 A 
ATOM     33  N   UNL     1       7.337   4.984  -4.596  0.00  0.00    +0.000 NA
ATOM     34  C   UNL     1       7.652   4.103  -3.667  0.00  0.00    +0.000 A 
ATOM     35  C   UNL     1       7.012   2.880  -3.606  0.00  0.00    +0.000 A 
ATOM     36  C   UNL     1       6.029   2.585  -4.538  0.00  0.00    +0.000 A 
ENDBRANCH  30  31
ENDBRANCH  29  30
ENDBRANCH  28  29
ENDBRANCH  27  28
BRANCH  27  37
ATOM     37  C   UNL     1       4.950   0.848  -9.363  0.00  0.00    +0.000 C 
BRANCH  37  38
ATOM     38  C   UNL     1       5.907   0.215  -8.352  0.00  0.00    +0.000 C 
BRANCH  38  39
ATOM     39  C   UNL     1       7.234   0.977  -8.357  0.00  0.00    +0.000 C 
BRANCH  39  40
ATOM     40  C   UNL     1       7.962   0.725  -7.063  0.00  0.00    +0.000 A 
ATOM     41  C   UNL     1       7.594  -0.336  -6.257  0.00  0.00    +0.000 A 
ATOM     42  C   UNL     1       8.264  -0.566  -5.069  0.00  0.00    +0.000 A 
ATOM     43  C   UNL     1       9.302   0.263  -4.689  0.00  0.00    +0.000 A 
ATOM     44  C   UNL     1       9.671   1.324  -5.495  0.00  0.00    +0.000 A 
ATOM     45  C   UNL     1       9.004   1.552  -6.685  0.00  0.00    +0.000 A 
ENDBRANCH  39  40
ENDBRANCH  38  39
ENDBRANCH  37  38
ENDBRANCH  27  37
ENDBRANCH  26  27
ENDBRANCH  24  26
ENDBRANCH   8  24
TORSDOF 16
ENDMDL
MODEL 2
REMARK VINA RESULT:      -6.8      2.538      4.893
REMARK  Name = 001
REMARK  19 active torsions:
REMARK  status: ('A' for Active; 'I' for Inactive)
REMARK    1  A    between atoms: C_1  and  C_13
REMARK    2  A    between atoms: C_3  and  O_7
REMARK    3  A    between atoms: C_4  and  O_9
REMARK    4  A    between atoms: C_5  and  O_11
REMARK    5  A    between atoms: O_7  and  C_8
REMARK    6  A    between atoms: O_9  and  C_10
REMARK    7  A    between atoms: O_11  and  C_12
REMARK    8  A    between atoms: C_13  and  C_16
REMARK    9  A    between atoms: C_23  and  C_24
REMARK   10  A    between atoms: C_24  and  O_26
REMARK   11  A    between atoms: O_26  and  C_27
REMARK   12  A    between atoms: C_27  and  C_28
REMARK   13  A    between atoms: C_27  and  C_37
REMARK   14  A    between atoms: C_28  and  C_29
REMARK   15  A    between atoms: C_29  and  C_30
REMARK   16  A    between atoms: C_30  and  C_31
REMARK   17  A    between atoms: C_37  and  C_38
REMARK   18  A    between atoms: C_38  and  C_39
REMARK   19  A    between atoms: C_39  and  C_40
REMARK                            x       y       z     vdW  Elec       q    Type
REMARK                         _______ _______ _______ _____ _____    ______ ____
ROOT
ATOM      1  C   UNL     1      -0.119  -2.147  -9.403  0.00  0.00    +0.000 C 
ATOM      2  O   UNL     1       0.361  -1.369  -8.605  0.00  0.00    +0.000 OA
ATOM      3  N   UNL     1      -0.994  -1.709 -10.329  0.00  0.00    +0.000 N 
ATOM      4  C   UNL     1      -1.655  -2.653 -11.240  0.00  0.00    +0.000 C 
ATOM      5  C   UNL     1      -3.170  -2.444 -11.151  0.00  0.00    +0.000 C 
ATOM      6  C   UNL     1      -3.496  -0.974 -11.426  0.00  0.00    +0.000 C 
ATOM      7  C   UNL     1      -2.824  -0.096 -10.367  0.00  0.00    +0.000 C 
ATOM      8  C   UNL     1      -1.310  -0.278 -10.443  0.00  0.00    +0.000 C 
ENDROOT
BRANCH   1   9
ATOM      9  C   UNL     1       0.264  -3.604  -9.357  0.00  0.00    +0.000 C 
ATOM     10  F   UNL     1       1.459  -3.750  -8.646  0.00  0.00    +0.000 F 
ATOM     11  F   UNL     1       0.435  -4.082 -10.660  0.00  0.00    +0.000 F 
BRANCH   9  12
ATOM     12  C   UNL     1      -0.826  -4.388  -8.673  0.00  0.00    +0.000 A 
ATOM     13  C   UNL     1      -0.989  -5.732  -8.951  0.00  0.00    +0.000 A 
ATOM     14  C   UNL     1      -1.990  -6.456  -8.323  0.00  0.00    +0.000 A 
ATOM     15  C   UNL     1      -2.836  -5.828  -7.417  0.00  0.00    +0.000 A 
ATOM     16  C   UNL     1      -2.666  -4.478  -7.134  0.00  0.00    +0.000 A 
ATOM     17  C   UNL     1      -1.661  -3.760  -7.767  0.00  0.00    +0.000 A 
BRANCH  14  18
ATOM     18  O   UNL     1      -2.149  -7.779  -8.599  0.00  0.00    +0.000 OA
ATOM     19  C   UNL     1      -1.245  -8.091  -9.660  0.00  0.00    +0.000 C 
ENDBRANCH  14  18
BRANCH  15  20
ATOM     20  O   UNL     1      -3.821  -6.535  -6.799  0.00  0.00    +0.000 OA
ATOM     21  C   UNL     1      -3.232  -7.144  -5.647  0.00  0.00    +0.000 C 
ENDBRANCH  15  20
BRANCH  16  22
ATOM     22  O   UNL     1      -3.487  -3.859  -6.244  0.00  0.00    +0.000 OA
ATOM     23  C   UNL     1      -3.978  -2.680  -6.885  0.00  0.00    +0.000 C 
ENDBRANCH  16  22
ENDBRANCH   9  12
ENDBRANCH   1   9
BRANCH   8  24
ATOM     24  C   UNL     1      -0.652   0.480  -9.319  0.00  0.00    +0.000 C 
ATOM     25  O   UNL     1      -1.229   0.622  -8.267  0.00  0.00    +0.000 OA
BRANCH  24  26
ATOM     26  O   UNL     1       0.575   0.998  -9.486  0.00  0.00    +0.000 OA
BRANCH  26  27
ATOM     27  C   UNL     1       0.942   1.606 -10.752  0.00  0.00    +0.000 C 
BRANCH  27  28
ATOM     28  C   UNL     1       2.436   1.937 -10.747  0.00  0.00    +0.000 C 
BRANCH  28  29
ATOM     29  C   UNL     1       3.083   1.352  -9.490  0.00  0.00    +0.000 C 
BRANCH  29  30
ATOM     30  C   UNL     1       4.239   2.251  -9.046  0.00  0.00    +0.000 C 
BRANCH  30  31
ATOM     31  C   UNL     1       5.314   1.409  -8.407  0.00  0.00    +0.000 A 
ATOM     32  C   UNL     1       5.781   0.272  -9.039  0.00  0.00    +0.000 A 
ATOM     33  N   UNL     1       6.724  -0.466  -8.489  0.00  0.00    +0.000 NA
ATOM     34  C   UNL     1       7.249  -0.160  -7.319  0.00  0.00    +0.000 A 
ATOM     35  C   UNL     1       6.829   0.959  -6.626  0.00  0.00    +0.000 A 
ATOM     36  C   UNL     1       5.842   1.762  -7.175  0.00  0.00    +0.000 A 
ENDBRANCH  30  31
ENDBRANCH  29  30
ENDBRANCH  28  29
ENDBRANCH  27  28
BRANCH  27  37
ATOM     37  C   UNL     1       0.136   2.891 -10.953  0.00  0.00    +0.000 C 
BRANCH  37  38
ATOM     38  C   UNL     1       0.934   4.082 -10.419  0.00  0.00    +0.000 C 
BRANCH  38  39
ATOM     39  C   UNL     1       0.349   4.528  -9.078  0.00  0.00    +0.000 C 
BRANCH  39  40
ATOM     40  C   UNL     1       1.417   4.462  -8.018  0.00  0.00    +0.000 A 
ATOM     41  C   UNL     1       1.359   3.490  -7.037  0.00  0.00    +0.000 A 
ATOM     42  C   UNL     1       2.341   3.429  -6.065  0.00  0.00    +0.000 A 
ATOM     43  C   UNL     1       3.380   4.341  -6.074  0.00  0.00    +0.000 A 
ATOM     44  C   UNL     1       3.439   5.313  -7.055  0.00  0.00    +0.000 A 
ATOM     45  C   UNL     1       2.460   5.371  -8.030  0.00  0.00    +0.000 A 
ENDBRANCH  39  40
ENDBRANCH  38  39
ENDBRANCH  37  38
ENDBRANCH  27  37
ENDBRANCH  26  27
ENDBRANCH  24  26
ENDBRANCH   8  24
TORSDOF 16
ENDMDL
MODEL 3
REMARK VINA RESULT:      -6.8      3.031     10.031
REMARK  Name = 001
REMARK  19 active torsions:
REMARK  status: ('A' for Active; 'I' for Inactive)
REMARK    1  A    between atoms: C_1  and  C_13
REMARK    2  A    between atoms: C_3  and  O_7
REMARK    3  A    between atoms: C_4  and  O_9
REMARK    4  A    between atoms: C_5  and  O_11
REMARK    5  A    between atoms: O_7  and  C_8
REMARK    6  A    between atoms: O_9  and  C_10
REMARK    7  A    between atoms: O_11  and  C_12
REMARK    8  A    between atoms: C_13  and  C_16
REMARK    9  A    between atoms: C_23  and  C_24
REMARK   10  A    between atoms: C_24  and  O_26
REMARK   11  A    between atoms: O_26  and  C_27
REMARK   12  A    between atoms: C_27  and  C_28
REMARK   13  A    between atoms: C_27  and  C_37
REMARK   14  A    between atoms: C_28  and  C_29
REMARK   15  A    between atoms: C_29  and  C_30
REMARK   16  A    between atoms: C_30  and  C_31
REMARK   17  A    between atoms: C_37  and  C_38
REMARK   18  A    between atoms: C_38  and  C_39
REMARK   19  A    between atoms: C_39  and  C_40
REMARK                            x       y       z     vdW  Elec       q    Type
REMARK                         _______ _______ _______ _____ _____    ______ ____
ROOT
ATOM      1  C   UNL     1       1.862   3.349  -7.482  0.00  0.00    +0.000 C 
ATOM      2  O   UNL     1       1.319   2.371  -7.012  0.00  0.00    +0.000 OA
ATOM      3  N   UNL     1       2.123   3.405  -8.803  0.00  0.00    +0.000 N 
ATOM      4  C   UNL     1       2.863   4.538  -9.373  0.00  0.00    +0.000 C 
ATOM      5  C   UNL     1       4.053   3.997 -10.172  0.00  0.00    +0.000 C 
ATOM      6  C   UNL     1       3.551   2.991 -11.209  0.00  0.00    +0.000 C 
ATOM      7  C   UNL     1       2.875   1.817 -10.496  0.00  0.00    +0.000 C 
ATOM      8  C   UNL     1       1.676   2.329  -9.700  0.00  0.00    +0.000 C 
ENDROOT
BRANCH   1   9
ATOM      9  C   UNL     1       2.245   4.501  -6.589  0.00  0.00    +0.000 C 
ATOM     10  F   UNL     1       1.472   4.465  -5.425  0.00  0.00    +0.000 F 
ATOM     11  F   UNL     1       2.021   5.706  -7.261  0.00  0.00    +0.000 F 
BRANCH   9  12
ATOM     12  C   UNL     1       3.704   4.391  -6.226  0.00  0.00    +0.000 A 
ATOM     13  C   UNL     1       4.256   3.155  -5.951  0.00  0.00    +0.000 A 
ATOM     14  C   UNL     1       5.597   3.050  -5.618  0.00  0.00    +0.000 A 
ATOM     15  C   UNL     1       6.387   4.192  -5.554  0.00  0.00    +0.000 A 
ATOM     16  C   UNL     1       5.830   5.433  -5.837  0.00  0.00    +0.000 A 
ATOM     17  C   UNL     1       4.487   5.530  -6.171  0.00  0.00    +0.000 A 
BRANCH  14  18
ATOM     18  O   UNL     1       6.139   1.832  -5.347  0.00  0.00    +0.000 OA
ATOM     19  C   UNL     1       6.423   1.218  -6.606  0.00  0.00    +0.000 C 
ENDBRANCH  14  18
BRANCH  15  20
ATOM     20  O   UNL     1       7.704   4.093  -5.226  0.00  0.00    +0.000 OA
ATOM     21  C   UNL     1       7.787   4.217  -3.805  0.00  0.00    +0.000 C 
ENDBRANCH  15  20
BRANCH  16  22
ATOM     22  O   UNL     1       6.600   6.553  -5.782  0.00  0.00    +0.000 OA
ATOM     23  C   UNL     1       7.120   6.763  -7.097  0.00  0.00    +0.000 C 
ENDBRANCH  16  22
ENDBRANCH   9  12
ENDBRANCH   1   9
BRANCH   8  24
ATOM     24  C   UNL     1       1.087   1.203  -8.892  0.00  0.00    +0.000 C 
ATOM     25  O   UNL     1       1.793   0.297  -8.515  0.00  0.00    +0.000 OA
BRANCH  24  26
ATOM     26  O   UNL     1      -0.221   1.205  -8.590  0.00  0.00    +0.000 OA
BRANCH  26  27
ATOM     27  C   UNL     1      -1.043   0.053  -8.913  0.00  0.00    +0.000 C 
BRANCH  27  28
ATOM     28  C   UNL     1      -1.213  -0.044 -10.431  0.00  0.00    +0.000 C 
BRANCH  28  29
ATOM     29  C   UNL     1      -0.449  -1.263 -10.952  0.00  0.00    +0.000 C 
BRANCH  29  30
ATOM     30  C   UNL     1      -0.084  -2.175  -9.780  0.00  0.00    +0.000 C 
BRANCH  30  31
ATOM     31  C   UNL     1      -0.202  -3.616 -10.209  0.00  0.00    +0.000 A 
ATOM     32  C   UNL     1      -0.574  -3.933 -11.502  0.00  0.00    +0.000 A 
ATOM     33  N   UNL     1      -0.674  -5.190 -11.885  0.00  0.00    +0.000 NA
ATOM     34  C   UNL     1      -0.436  -6.188 -11.058  0.00  0.00    +0.000 A 
ATOM     35  C   UNL     1      -0.064  -5.948  -9.749  0.00  0.00    +0.000 A 
ATOM     36  C   UNL     1       0.057  -4.639  -9.311  0.00  0.00    +0.000 A 
ENDBRANCH  30  31
ENDBRANCH  29  30
ENDBRANCH  28  29
ENDBRANCH  27  28
BRANCH  27  37
ATOM     37  C   UNL     1      -2.416   0.206  -8.255  0.00  0.00    +0.000 C 
BRANCH  37  38
ATOM     38  C   UNL     1      -3.483  -0.426  -9.151  0.00  0.00    +0.000 C 
BRANCH  38  39
ATOM     39  C   UNL     1      -4.625  -0.961  -8.285  0.00  0.00    +0.000 C 
BRANCH  39  40
ATOM     40  C   UNL     1      -4.376  -2.412  -7.966  0.00  0.00    +0.000 A 
ATOM     41  C   UNL     1      -3.674  -3.204  -8.854  0.00  0.00    +0.000 A 
ATOM     42  C   UNL     1      -3.445  -4.536  -8.561  0.00  0.00    +0.000 A 
ATOM     43  C   UNL     1      -3.919  -5.074  -7.379  0.00  0.00    +0.000 A 
ATOM     44  C   UNL     1      -4.621  -4.282  -6.490  0.00  0.00    +0.000 A 
ATOM     45  C   UNL     1      -4.846  -2.949  -6.781  0.00  0.00    +0.000 A 
ENDBRANCH  39  40
ENDBRANCH  38  39
ENDBRANCH  37  38
ENDBRANCH  27  37
ENDBRANCH  26  27
ENDBRANCH  24  26
ENDBRANCH   8  24
TORSDOF 16
ENDMDL
MODEL 4
REMARK VINA RESULT:      -6.8      0.676      1.999
REMARK  Name = 001
REMARK  19 active torsions:
REMARK  status: ('A' for Active; 'I' for Inactive)
REMARK    1  A    between atoms: C_1  and  C_13
REMARK    2  A    between atoms: C_3  and  O_7
REMARK    3  A    between atoms: C_4  and  O_9
REMARK    4  A    between atoms: C_5  and  O_11
REMARK    5  A    between atoms: O_7  and  C_8
REMARK    6  A    between atoms: O_9  and  C_10
REMARK    7  A    between atoms: O_11  and  C_12
REMARK    8  A    between atoms: C_13  and  C_16
REMARK    9  A    between atoms: C_23  and  C_24
REMARK   10  A    between atoms: C_24  and  O_26
REMARK   11  A    between atoms: O_26  and  C_27
REMARK   12  A    between atoms: C_27  and  C_28
REMARK   13  A    between atoms: C_27  and  C_37
REMARK   14  A    between atoms: C_28  and  C_29
REMARK   15  A    between atoms: C_29  and  C_30
REMARK   16  A    between atoms: C_30  and  C_31
REMARK   17  A    between atoms: C_37  and  C_38
REMARK   18  A    between atoms: C_38  and  C_39
REMARK   19  A    between atoms: C_39  and  C_40
REMARK                            x       y       z     vdW  Elec       q    Type
REMARK                         _______ _______ _______ _____ _____    ______ ____
ROOT
ATOM      1  C   UNL     1      -0.788   1.014  -9.139  0.00  0.00    +0.000 C 
ATOM      2  O   UNL     1       0.102   0.513  -8.485  0.00  0.00    +0.000 OA
ATOM      3  N   UNL     1      -0.640   2.258  -9.637  0.00  0.00    +0.000 N 
ATOM      4  C   UNL     1      -1.744   2.915 -10.350  0.00  0.00    +0.000 C 
ATOM      5  C   UNL     1      -2.005   4.279  -9.703  0.00  0.00    +0.000 C 
ATOM      6  C   UNL     1      -0.706   5.086  -9.679  0.00  0.00    +0.000 C 
ATOM      7  C   UNL     1       0.339   4.346  -8.839  0.00  0.00    +0.000 C 
ATOM      8  C   UNL     1       0.626   2.985  -9.471  0.00  0.00    +0.000 C 
ENDROOT
BRANCH   1   9
ATOM      9  C   UNL     1      -2.059   0.246  -9.396  0.00  0.00    +0.000 C 
ATOM     10  F   UNL     1      -2.258   0.120 -10.774  0.00  0.00    +0.000 F 
ATOM     11  F   UNL     1      -3.139   0.930  -8.829  0.00  0.00    +0.000 F 
BRANCH   9  12
ATOM     12  C   UNL     1      -1.950  -1.124  -8.778  0.00  0.00    +0.000 A 
ATOM     13  C   UNL     1      -2.812  -1.494  -7.762  0.00  0.00    +0.000 A 
ATOM     14  C   UNL     1      -2.715  -2.754  -7.192  0.00  0.00    +0.000 A 
ATOM     15  C   UNL     1      -1.745  -3.644  -7.638  0.00  0.00    +0.000 A 
ATOM     16  C   UNL     1      -0.884  -3.271  -8.663  0.00  0.00    +0.000 A 
ATOM     17  C   UNL     1      -0.988  -2.008  -9.229  0.00  0.00    +0.000 A 
BRANCH  14  18
ATOM     18  O   UNL     1      -3.563  -3.116  -6.192  0.00  0.00    +0.000 OA
ATOM     19  C   UNL     1      -4.890  -2.940  -6.693  0.00  0.00    +0.000 C 
ENDBRANCH  14  18
BRANCH  15  20
ATOM     20  O   UNL     1      -1.646  -4.881  -7.079  0.00  0.00    +0.000 OA
ATOM     21  C   UNL     1      -2.559  -5.726  -7.782  0.00  0.00    +0.000 C 
ENDBRANCH  15  20
BRANCH  16  22
ATOM     22  O   UNL     1       0.063  -4.140  -9.107  0.00  0.00    +0.000 OA
ATOM     23  C   UNL     1      -0.286  -4.481 -10.450  0.00  0.00    +0.000 C 
ENDBRANCH  16  22
ENDBRANCH   9  12
ENDBRANCH   1   9
BRANCH   8  24
ATOM     24  C   UNL     1       1.552   2.199  -8.580  0.00  0.00    +0.000 C 
ATOM     25  O   UNL     1       1.365   2.174  -7.386  0.00  0.00    +0.000 OA
BRANCH  24  26
ATOM     26  O   UNL     1       2.585   1.525  -9.110  0.00  0.00    +0.000 OA
BRANCH  26  27
ATOM     27  C   UNL     1       3.891   1.583  -8.479  0.00  0.00    +0.000 C 
BRANCH  27  28
ATOM     28  C   UNL     1       4.588   2.890  -8.866  0.00  0.00    +0.000 C 
BRANCH  28  29
ATOM     29  C   UNL     1       4.699   3.792  -7.636  0.00  0.00    +0.000 C 
BRANCH  29  30
ATOM     30  C   UNL     1       6.174   4.051  -7.324  0.00  0.00    +0.000 C 
BRANCH  30  31
ATOM     31  C   UNL     1       6.476   3.606  -5.916  0.00  0.00    +0.000 A 
ATOM     32  C   UNL     1       5.892   2.463  -5.403  0.00  0.00    +0.000 A 
ATOM     33  N   UNL     1       6.156   2.064  -4.175  0.00  0.00    +0.000 NA
ATOM     34  C   UNL     1       6.971   2.738  -3.387  0.00  0.00    +0.000 A 
ATOM     35  C   UNL     1       7.588   3.892  -3.830  0.00  0.00    +0.000 A 
ATOM     36  C   UNL     1       7.339   4.340  -5.117  0.00  0.00    +0.000 A 
ENDBRANCH  30  31
ENDBRANCH  29  30
ENDBRANCH  28  29
ENDBRANCH  27  28
BRANCH  27  37
ATOM     37  C   UNL     1       4.736   0.397  -8.947  0.00  0.00    +0.000 C 
BRANCH  37  38
ATOM     38  C   UNL     1       6.211   0.801  -8.976  0.00  0.00    +0.000 C 
BRANCH  38  39
ATOM     39  C   UNL     1       7.073  -0.374  -8.512  0.00  0.00    +0.000 C 
BRANCH  39  40
ATOM     40  C   UNL     1       7.921   0.055  -7.343  0.00  0.00    +0.000 A 
ATOM     41  C   UNL     1       7.859  -0.642  -6.151  0.00  0.00    +0.000 A 
ATOM     42  C   UNL     1       8.638  -0.247  -5.079  0.00  0.00    +0.000 A 
ATOM     43  C   UNL     1       9.478   0.843  -5.200  0.00  0.00    +0.000 A 
ATOM     44  C   UNL     1       9.541   1.541  -6.392  0.00  0.00    +0.000 A 
ATOM     45  C   UNL     1       8.765   1.144  -7.466  0.00  0.00    +0.000 A 
ENDBRANCH  39  40
ENDBRANCH  38  39
ENDBRANCH  37  38
ENDBRANCH  27  37
ENDBRANCH  26  27
ENDBRANCH  24  26
ENDBRANCH   8  24
TORSDOF 16
ENDMDL
MODEL 5
REMARK VINA RESULT:      -6.7      3.065      9.896
REMARK  Name = 001
REMARK  19 active torsions:
REMARK  status: ('A' for Active; 'I' for Inactive)
REMARK    1  A    between atoms: C_1  and  C_13
REMARK    2  A    between atoms: C_3  and  O_7
REMARK    3  A    between atoms: C_4  and  O_9
REMARK    4  A    between atoms: C_5  and  O_11
REMARK    5  A    between atoms: O_7  and  C_8
REMARK    6  A    between atoms: O_9  and  C_10
REMARK    7  A    between atoms: O_11  and  C_12
REMARK    8  A    between atoms: C_13  and  C_16
REMARK    9  A    between atoms: C_23  and  C_24
REMARK   10  A    between atoms: C_24  and  O_26
REMARK   11  A    between atoms: O_26  and  C_27
REMARK   12  A    between atoms: C_27  and  C_28
REMARK   13  A    between atoms: C_27  and  C_37
REMARK   14  A    between atoms: C_28  and  C_29
REMARK   15  A    between atoms: C_29  and  C_30
REMARK   16  A    between atoms: C_30  and  C_31
REMARK   17  A    between atoms: C_37  and  C_38
REMARK   18  A    between atoms: C_38  and  C_39
REMARK   19  A    between atoms: C_39  and  C_40
REMARK                            x       y       z     vdW  Elec       q    Type
REMARK                         _______ _______ _______ _____ _____    ______ ____
ROOT
ATOM      1  C   UNL     1       1.907   3.219  -7.431  0.00  0.00    +0.000 C 
ATOM      2  O   UNL     1       1.338   2.239  -6.998  0.00  0.00    +0.000 OA
ATOM      3  N   UNL     1       2.167   3.319  -8.750  0.00  0.00    +0.000 N 
ATOM      4  C   UNL     1       2.937   4.453  -9.277  0.00  0.00    +0.000 C 
ATOM      5  C   UNL     1       4.110   3.911 -10.100  0.00  0.00    +0.000 C 
ATOM      6  C   UNL     1       3.579   2.960 -11.174  0.00  0.00    +0.000 C 
ATOM      7  C   UNL     1       2.872   1.778 -10.506  0.00  0.00    +0.000 C 
ATOM      8  C   UNL     1       1.689   2.292  -9.687  0.00  0.00    +0.000 C 
ENDROOT
BRANCH   1   9
ATOM      9  C   UNL     1       2.323   4.325  -6.495  0.00  0.00    +0.000 C 
ATOM     10  F   UNL     1       1.658   4.176  -5.274  0.00  0.00    +0.000 F 
ATOM     11  F   UNL     1       1.993   5.561  -7.059  0.00  0.00    +0.000 F 
BRANCH   9  12
ATOM     12  C   UNL     1       3.811   4.256  -6.268  0.00  0.00    +0.000 A 
ATOM     13  C   UNL     1       4.543   5.420  -6.131  0.00  0.00    +0.000 A 
ATOM     14  C   UNL     1       5.912   5.361  -5.921  0.00  0.00    +0.000 A 
ATOM     15  C   UNL     1       6.550   4.127  -5.855  0.00  0.00    +0.000 A 
ATOM     16  C   UNL     1       5.810   2.959  -5.988  0.00  0.00    +0.000 A 
ATOM     17  C   UNL     1       4.441   3.027  -6.197  0.00  0.00    +0.000 A 
BRANCH  14  18
ATOM     18  O   UNL     1       6.631   6.508  -5.786  0.00  0.00    +0.000 OA
ATOM     19  C   UNL     1       6.370   7.297  -6.948  0.00  0.00    +0.000 C 
ENDBRANCH  14  18
BRANCH  15  20
ATOM     20  O   UNL     1       7.895   4.065  -5.650  0.00  0.00    +0.000 OA
ATOM     21  C   UNL     1       8.512   4.121  -6.938  0.00  0.00    +0.000 C 
ENDBRANCH  15  20
BRANCH  16  22
ATOM     22  O   UNL     1       6.429   1.750  -5.918  0.00  0.00    +0.000 OA
ATOM     23  C   UNL     1       6.282   1.136  -7.201  0.00  0.00    +0.000 C 
ENDBRANCH  16  22
ENDBRANCH   9  12
ENDBRANCH   1   9
BRANCH   8  24
ATOM     24  C   UNL     1       1.070   1.152  -8.921  0.00  0.00    +0.000 C 
ATOM     25  O   UNL     1       1.739   0.190  -8.625  0.00  0.00    +0.000 OA
BRANCH  24  26
ATOM     26  O   UNL     1      -0.223   1.204  -8.567  0.00  0.00    +0.000 OA
BRANCH  26  27
ATOM     27  C   UNL     1      -1.144   0.181  -9.029  0.00  0.00    +0.000 C 
BRANCH  27  28
ATOM     28  C   UNL     1      -1.462   0.410 -10.509  0.00  0.00    +0.000 C 
BRANCH  28  29
ATOM     29  C   UNL     1      -1.428  -0.928 -11.250  0.00  0.00    +0.000 C 
BRANCH  29  30
ATOM     30  C   UNL     1       0.013  -1.438 -11.317  0.00  0.00    +0.000 C 
BRANCH  30  31
ATOM     31  C   UNL     1       0.075  -2.844 -10.778  0.00  0.00    +0.000 A 
ATOM     32  C   UNL     1      -0.056  -3.926 -11.629  0.00  0.00    +0.000 A 
ATOM     33  N   UNL     1       0.003  -5.158 -11.166  0.00  0.00    +0.000 NA
ATOM     34  C   UNL     1       0.177  -5.410  -9.884  0.00  0.00    +0.000 A 
ATOM     35  C   UNL     1       0.311  -4.379  -8.973  0.00  0.00    +0.000 A 
ATOM     36  C   UNL     1       0.259  -3.070  -9.423  0.00  0.00    +0.000 A 
ENDBRANCH  30  31
ENDBRANCH  29  30
ENDBRANCH  28  29
ENDBRANCH  27  28
BRANCH  27  37
ATOM     37  C   UNL     1      -2.437   0.252  -8.213  0.00  0.00    +0.000 C 
BRANCH  37  38
ATOM     38  C   UNL     1      -3.624  -0.115  -9.105  0.00  0.00    +0.000 C 
BRANCH  38  39
ATOM     39  C   UNL     1      -4.684  -0.840  -8.273  0.00  0.00    +0.000 C 
BRANCH  39  40
ATOM     40  C   UNL     1      -4.316  -2.295  -8.148  0.00  0.00    +0.000 A 
ATOM     41  C   UNL     1      -3.649  -2.930  -9.178  0.00  0.00    +0.000 A 
ATOM     42  C   UNL     1      -3.311  -4.266  -9.062  0.00  0.00    +0.000 A 
ATOM     43  C   UNL     1      -3.641  -4.966  -7.916  0.00  0.00    +0.000 A 
ATOM     44  C   UNL     1      -4.307  -4.330  -6.885  0.00  0.00    +0.000 A 
ATOM     45  C   UNL     1      -4.641  -2.993  -6.999  0.00  0.00    +0.000 A 
ENDBRANCH  39  40
ENDBRANCH  38  39
ENDBRANCH  37  38
ENDBRANCH  27  37
ENDBRANCH  26  27
ENDBRANCH  24  26
ENDBRANCH   8  24
TORSDOF 16
ENDMDL
MODEL 6
REMARK VINA RESULT:      -6.7      2.467      5.146
REMARK  Name = 001
REMARK  19 active torsions:
REMARK  status: ('A' for Active; 'I' for Inactive)
REMARK    1  A    between atoms: C_1  and  C_13
REMARK    2  A    between atoms: C_3  and  O_7
REMARK    3  A    between atoms: C_4  and  O_9
REMARK    4  A    between atoms: C_5  and  O_11
REMARK    5  A    between atoms: O_7  and  C_8
REMARK    6  A    between atoms: O_9  and  C_10
REMARK    7  A    between atoms: O_11  and  C_12
REMARK    8  A    between atoms: C_13  and  C_16
REMARK    9  A    between atoms: C_23  and  C_24
REMARK   10  A    between atoms: C_24  and  O_26
REMARK   11  A    between atoms: O_26  and  C_27
REMARK   12  A    between atoms: C_27  and  C_28
REMARK   13  A    between atoms: C_27  and  C_37
REMARK   14  A    between atoms: C_28  and  C_29
REMARK   15  A    between atoms: C_29  and  C_30
REMARK   16  A    between atoms: C_30  and  C_31
REMARK   17  A    between atoms: C_37  and  C_38
REMARK   18  A    between atoms: C_38  and  C_39
REMARK   19  A    between atoms: C_39  and  C_40
REMARK                            x       y       z     vdW  Elec       q    Type
REMARK                         _______ _______ _______ _____ _____    ______ ____
ROOT
ATOM      1  C   UNL     1      -0.425  -1.962  -9.375  0.00  0.00    +0.000 C 
ATOM      2  O   UNL     1      -0.097  -1.215  -8.477  0.00  0.00    +0.000 OA
ATOM      3  N   UNL     1      -1.236  -1.520 -10.356  0.00  0.00    +0.000 N 
ATOM      4  C   UNL     1      -1.717  -2.435 -11.400  0.00  0.00    +0.000 C 
ATOM      5  C   UNL     1      -3.245  -2.353 -11.460  0.00  0.00    +0.000 C 
ATOM      6  C   UNL     1      -3.667  -0.896 -11.661  0.00  0.00    +0.000 C 
ATOM      7  C   UNL     1      -3.185  -0.057 -10.475  0.00  0.00    +0.000 C 
ATOM      8  C   UNL     1      -1.660  -0.113 -10.400  0.00  0.00    +0.000 C 
ENDROOT
BRANCH   1   9
ATOM      9  C   UNL     1       0.076  -3.383  -9.395  0.00  0.00    +0.000 C 
ATOM     10  F   UNL     1       1.313  -3.450  -8.745  0.00  0.00    +0.000 F 
ATOM     11  F   UNL     1       0.221  -3.808 -10.719  0.00  0.00    +0.000 F 
BRANCH   9  12
ATOM     12  C   UNL     1      -0.912  -4.273  -8.685  0.00  0.00    +0.000 A 
ATOM     13  C   UNL     1      -1.785  -3.734  -7.760  0.00  0.00    +0.000 A 
ATOM     14  C   UNL     1      -2.696  -4.549  -7.106  0.00  0.00    +0.000 A 
ATOM     15  C   UNL     1      -2.726  -5.912  -7.378  0.00  0.00    +0.000 A 
ATOM     16  C   UNL     1      -1.850  -6.450  -8.313  0.00  0.00    +0.000 A 
ATOM     17  C   UNL     1      -0.942  -5.627  -8.964  0.00  0.00    +0.000 A 
BRANCH  14  18
ATOM     18  O   UNL     1      -3.555  -4.018  -6.195  0.00  0.00    +0.000 OA
ATOM     19  C   UNL     1      -4.493  -3.226  -6.927  0.00  0.00    +0.000 C 
ENDBRANCH  14  18
BRANCH  15  20
ATOM     20  O   UNL     1      -3.618  -6.716  -6.737  0.00  0.00    +0.000 OA
ATOM     21  C   UNL     1      -4.730  -6.885  -7.620  0.00  0.00    +0.000 C 
ENDBRANCH  15  20
BRANCH  16  22
ATOM     22  O   UNL     1      -1.879  -7.782  -8.587  0.00  0.00    +0.000 OA
ATOM     23  C   UNL     1      -1.971  -7.910 -10.007  0.00  0.00    +0.000 C 
ENDBRANCH  16  22
ENDBRANCH   9  12
ENDBRANCH   1   9
BRANCH   8  24
ATOM     24  C   UNL     1      -1.188   0.600  -9.160  0.00  0.00    +0.000 C 
ATOM     25  O   UNL     1      -1.791   0.468  -8.121  0.00  0.00    +0.000 OA
BRANCH  24  26
ATOM     26  O   UNL     1      -0.098   1.382  -9.208  0.00  0.00    +0.000 OA
BRANCH  26  27
ATOM     27  C   UNL     1       0.580   1.606 -10.472  0.00  0.00    +0.000 C 
BRANCH  27  28
ATOM     28  C   UNL     1       1.995   1.025 -10.402  0.00  0.00    +0.000 C 
BRANCH  28  29
ATOM     29  C   UNL     1       2.613   1.353  -9.041  0.00  0.00    +0.000 C 
BRANCH  29  30
ATOM     30  C   UNL     1       3.901   2.153  -9.246  0.00  0.00    +0.000 C 
BRANCH  30  31
ATOM     31  C   UNL     1       5.026   1.501  -8.482  0.00  0.00    +0.000 A 
ATOM     32  C   UNL     1       5.610   0.341  -8.953  0.00  0.00    +0.000 A 
ATOM     33  N   UNL     1       6.598  -0.232  -8.294  0.00  0.00    +0.000 NA
ATOM     34  C   UNL     1       7.057   0.266  -7.163  0.00  0.00    +0.000 A 
ATOM     35  C   UNL     1       6.519   1.421  -6.629  0.00  0.00    +0.000 A 
ATOM     36  C   UNL     1       5.482   2.054  -7.296  0.00  0.00    +0.000 A 
ENDBRANCH  30  31
ENDBRANCH  29  30
ENDBRANCH  28  29
ENDBRANCH  27  28
BRANCH  27  37
ATOM     37  C   UNL     1       0.659   3.108 -10.750  0.00  0.00    +0.000 C 
BRANCH  37  38
ATOM     38  C   UNL     1      -0.058   3.871  -9.635  0.00  0.00    +0.000 C 
BRANCH  38  39
ATOM     39  C   UNL     1       0.703   5.163  -9.329  0.00  0.00    +0.000 C 
BRANCH  39  40
ATOM     40  C   UNL     1       1.638   4.934  -8.171  0.00  0.00    +0.000 A 
ATOM     41  C   UNL     1       1.290   4.052  -7.165  0.00  0.00    +0.000 A 
ATOM     42  C   UNL     1       2.149   3.841  -6.103  0.00  0.00    +0.000 A 
ATOM     43  C   UNL     1       3.356   4.512  -6.046  0.00  0.00    +0.000 A 
ATOM     44  C   UNL     1       3.705   5.394  -7.052  0.00  0.00    +0.000 A 
ATOM     45  C   UNL     1       2.848   5.601  -8.117  0.00  0.00    +0.000 A 
ENDBRANCH  39  40
ENDBRANCH  38  39
ENDBRANCH  37  38
ENDBRANCH  27  37
ENDBRANCH  26  27
ENDBRANCH  24  26
ENDBRANCH   8  24
TORSDOF 16
ENDMDL
MODEL 7
REMARK VINA RESULT:      -6.7      3.068      9.930
REMARK  Name = 001
REMARK  19 active torsions:
REMARK  status: ('A' for Active; 'I' for Inactive)
REMARK    1  A    between atoms: C_1  and  C_13
REMARK    2  A    between atoms: C_3  and  O_7
REMARK    3  A    between atoms: C_4  and  O_9
REMARK    4  A    between atoms: C_5  and  O_11
REMARK    5  A    between atoms: O_7  and  C_8
REMARK    6  A    between atoms: O_9  and  C_10
REMARK    7  A    between atoms: O_11  and  C_12
REMARK    8  A    between atoms: C_13  and  C_16
REMARK    9  A    between atoms: C_23  and  C_24
REMARK   10  A    between atoms: C_24  and  O_26
REMARK   11  A    between atoms: O_26  and  C_27
REMARK   12  A    between atoms: C_27  and  C_28
REMARK   13  A    between atoms: C_27  and  C_37
REMARK   14  A    between atoms: C_28  and  C_29
REMARK   15  A    between atoms: C_29  and  C_30
REMARK   16  A    between atoms: C_30  and  C_31
REMARK   17  A    between atoms: C_37  and  C_38
REMARK   18  A    between atoms: C_38  and  C_39
REMARK   19  A    between atoms: C_39  and  C_40
REMARK                            x       y       z     vdW  Elec       q    Type
REMARK                         _______ _______ _______ _____ _____    ______ ____
ROOT
ATOM      1  C   UNL     1       1.813   3.180  -7.347  0.00  0.00    +0.000 C 
ATOM      2  O   UNL     1       1.406   2.116  -6.930  0.00  0.00    +0.000 OA
ATOM      3  N   UNL     1       1.895   3.396  -8.674  0.00  0.00    +0.000 N 
ATOM      4  C   UNL     1       2.473   4.643  -9.195  0.00  0.00    +0.000 C 
ATOM      5  C   UNL     1       3.584   4.292 -10.189  0.00  0.00    +0.000 C 
ATOM      6  C   UNL     1       3.025   3.361 -11.268  0.00  0.00    +0.000 C 
ATOM      7  C   UNL     1       2.532   2.065 -10.618  0.00  0.00    +0.000 C 
ATOM      8  C   UNL     1       1.413   2.388  -9.629  0.00  0.00    +0.000 C 
ENDROOT
BRANCH   1   9
ATOM      9  C   UNL     1       2.225   4.260  -6.380  0.00  0.00    +0.000 C 
ATOM     10  F   UNL     1       1.661   4.003  -5.126  0.00  0.00    +0.000 F 
ATOM     11  F   UNL     1       1.778   5.499  -6.848  0.00  0.00    +0.000 F 
BRANCH   9  12
ATOM     12  C   UNL     1       3.727   4.279  -6.261  0.00  0.00    +0.000 A 
ATOM     13  C   UNL     1       4.400   5.484  -6.199  0.00  0.00    +0.000 A 
ATOM     14  C   UNL     1       5.781   5.506  -6.088  0.00  0.00    +0.000 A 
ATOM     15  C   UNL     1       6.492   4.312  -6.046  0.00  0.00    +0.000 A 
ATOM     16  C   UNL     1       5.812   3.101  -6.103  0.00  0.00    +0.000 A 
ATOM     17  C   UNL     1       4.429   3.089  -6.212  0.00  0.00    +0.000 A 
BRANCH  14  18
ATOM     18  O   UNL     1       6.442   6.693  -6.028  0.00  0.00    +0.000 OA
ATOM     19  C   UNL     1       6.250   7.336  -7.289  0.00  0.00    +0.000 C 
ENDBRANCH  14  18
BRANCH  15  20
ATOM     20  O   UNL     1       7.849   4.328  -5.939  0.00  0.00    +0.000 OA
ATOM     21  C   UNL     1       8.369   4.288  -7.269  0.00  0.00    +0.000 C 
ENDBRANCH  15  20
BRANCH  16  22
ATOM     22  O   UNL     1       6.502   1.930  -6.056  0.00  0.00    +0.000 OA
ATOM     23  C   UNL     1       6.211   1.230  -7.268  0.00  0.00    +0.000 C 
ENDBRANCH  16  22
ENDBRANCH   9  12
ENDBRANCH   1   9
BRANCH   8  24
ATOM     24  C   UNL     1       1.015   1.136  -8.890  0.00  0.00    +0.000 C 
ATOM     25  O   UNL     1       1.848   0.301  -8.624  0.00  0.00    +0.000 OA
BRANCH  24  26
ATOM     26  O   UNL     1      -0.263   0.948  -8.527  0.00  0.00    +0.000 OA
BRANCH  26  27
ATOM     27  C   UNL     1      -1.124   0.087  -9.317  0.00  0.00    +0.000 C 
BRANCH  27  28
ATOM     28  C   UNL     1      -2.582   0.512  -9.131  0.00  0.00    +0.000 C 
BRANCH  28  29
ATOM     29  C   UNL     1      -3.502  -0.665  -9.462  0.00  0.00    +0.000 C 
BRANCH  29  30
ATOM     30  C   UNL     1      -4.527  -0.842  -8.340  0.00  0.00    +0.000 C 
BRANCH  30  31
ATOM     31  C   UNL     1      -4.454  -2.252  -7.810  0.00  0.00    +0.000 A 
ATOM     32  C   UNL     1      -5.000  -2.565  -6.579  0.00  0.00    +0.000 A 
ATOM     33  N   UNL     1      -4.945  -3.796  -6.111  0.00  0.00    +0.000 NA
ATOM     34  C   UNL     1      -4.363  -4.768  -6.785  0.00  0.00    +0.000 A 
ATOM     35  C   UNL     1      -3.792  -4.529  -8.020  0.00  0.00    +0.000 A 
ATOM     36  C   UNL     1      -3.834  -3.248  -8.547  0.00  0.00    +0.000 A 
ENDBRANCH  30  31
ENDBRANCH  29  30
ENDBRANCH  28  29
ENDBRANCH  27  28
BRANCH  27  37
ATOM     37  C   UNL     1      -0.953  -1.363  -8.860  0.00  0.00    +0.000 C 
BRANCH  37  38
ATOM     38  C   UNL     1      -0.224  -2.158  -9.945  0.00  0.00    +0.000 C 
BRANCH  38  39
ATOM     39  C   UNL     1       0.313  -3.461  -9.350  0.00  0.00    +0.000 C 
BRANCH  39  40
ATOM     40  C   UNL     1      -0.432  -4.628  -9.944  0.00  0.00    +0.000 A 
ATOM     41  C   UNL     1      -0.211  -5.906  -9.465  0.00  0.00    +0.000 A 
ATOM     42  C   UNL     1      -0.895  -6.976 -10.010  0.00  0.00    +0.000 A 
ATOM     43  C   UNL     1      -1.800  -6.769 -11.035  0.00  0.00    +0.000 A 
ATOM     44  C   UNL     1      -2.021  -5.491 -11.514  0.00  0.00    +0.000 A 
ATOM     45  C   UNL     1      -1.340  -4.420 -10.966  0.00  0.00    +0.000 A 
ENDBRANCH  39  40
ENDBRANCH  38  39
ENDBRANCH  37  38
ENDBRANCH  27  37
ENDBRANCH  26  27
ENDBRANCH  24  26
ENDBRANCH   8  24
TORSDOF 16
ENDMDL
MODEL 8
REMARK VINA RESULT:      -6.6      3.561      9.703
REMARK  Name = 001
REMARK  19 active torsions:
REMARK  status: ('A' for Active; 'I' for Inactive)
REMARK    1  A    between atoms: C_1  and  C_13
REMARK    2  A    between atoms: C_3  and  O_7
REMARK    3  A    between atoms: C_4  and  O_9
REMARK    4  A    between atoms: C_5  and  O_11
REMARK    5  A    between atoms: O_7  and  C_8
REMARK    6  A    between atoms: O_9  and  C_10
REMARK    7  A    between atoms: O_11  and  C_12
REMARK    8  A    between atoms: C_13  and  C_16
REMARK    9  A    between atoms: C_23  and  C_24
REMARK   10  A    between atoms: C_24  and  O_26
REMARK   11  A    between atoms: O_26  and  C_27
REMARK   12  A    between atoms: C_27  and  C_28
REMARK   13  A    between atoms: C_27  and  C_37
REMARK   14  A    between atoms: C_28  and  C_29
REMARK   15  A    between atoms: C_29  and  C_30
REMARK   16  A    between atoms: C_30  and  C_31
REMARK   17  A    between atoms: C_37  and  C_38
REMARK   18  A    between atoms: C_38  and  C_39
REMARK   19  A    between atoms: C_39  and  C_40
REMARK                            x       y       z     vdW  Elec       q    Type
REMARK                         _______ _______ _______ _____ _____    ______ ____
ROOT
ATOM      1  C   UNL     1       4.653   3.849  -6.825  0.00  0.00    +0.000 C 
ATOM      2  O   UNL     1       4.168   2.748  -6.666  0.00  0.00    +0.000 OA
ATOM      3  N   UNL     1       3.945   4.812  -7.448  0.00  0.00    +0.000 N 
ATOM      4  C   UNL     1       4.551   6.120  -7.732  0.00  0.00    +0.000 C 
ATOM      5  C   UNL     1       4.390   6.423  -9.225  0.00  0.00    +0.000 C 
ATOM      6  C   UNL     1       2.912   6.320  -9.607  0.00  0.00    +0.000 C 
ATOM      7  C   UNL     1       2.416   4.895  -9.348  0.00  0.00    +0.000 C 
ATOM      8  C   UNL     1       2.555   4.572  -7.861  0.00  0.00    +0.000 C 
ENDROOT
BRANCH   1   9
ATOM      9  C   UNL     1       6.045   4.140  -6.326  0.00  0.00    +0.000 C 
ATOM     10  F   UNL     1       6.012   5.244  -5.470  0.00  0.00    +0.000 F 
ATOM     11  F   UNL     1       6.881   4.416  -7.412  0.00  0.00    +0.000 F 
BRANCH   9  12
ATOM     12  C   UNL     1       6.569   2.941  -5.579  0.00  0.00    +0.000 A 
ATOM     13  C   UNL     1       7.032   1.841  -6.275  0.00  0.00    +0.000 A 
ATOM     14  C   UNL     1       7.516   0.736  -5.591  0.00  0.00    +0.000 A 
ATOM     15  C   UNL     1       7.529   0.734  -4.201  0.00  0.00    +0.000 A 
ATOM     16  C   UNL     1       7.069   1.844  -3.504  0.00  0.00    +0.000 A 
ATOM     17  C   UNL     1       6.587   2.945  -4.196  0.00  0.00    +0.000 A 
BRANCH  14  18
ATOM     18  O   UNL     1       7.971  -0.345  -6.279  0.00  0.00    +0.000 OA
ATOM     19  C   UNL     1       9.103   0.091  -7.033  0.00  0.00    +0.000 C 
ENDBRANCH  14  18
BRANCH  15  20
ATOM     20  O   UNL     1       8.003  -0.349  -3.526  0.00  0.00    +0.000 OA
ATOM     21  C   UNL     1       9.392  -0.113  -3.289  0.00  0.00    +0.000 C 
ENDBRANCH  15  20
BRANCH  16  22
ATOM     22  O   UNL     1       7.086   1.848  -2.144  0.00  0.00    +0.000 OA
ATOM     23  C   UNL     1       7.810   3.014  -1.743  0.00  0.00    +0.000 C 
ENDBRANCH  16  22
ENDBRANCH   9  12
ENDBRANCH   1   9
BRANCH   8  24
ATOM     24  C   UNL     1       2.194   3.129  -7.621  0.00  0.00    +0.000 C 
ATOM     25  O   UNL     1       1.675   2.802  -6.580  0.00  0.00    +0.000 OA
BRANCH  24  26
ATOM     26  O   UNL     1       2.449   2.207  -8.562  0.00  0.00    +0.000 OA
BRANCH  26  27
ATOM     27  C   UNL     1       1.429   1.241  -8.927  0.00  0.00    +0.000 C 
BRANCH  27  28
ATOM     28  C   UNL     1       2.095  -0.013  -9.499  0.00  0.00    +0.000 C 
BRANCH  28  29
ATOM     29  C   UNL     1       1.282  -1.247  -9.105  0.00  0.00    +0.000 C 
BRANCH  29  30
ATOM     30  C   UNL     1       0.641  -1.856 -10.354  0.00  0.00    +0.000 C 
BRANCH  30  31
ATOM     31  C   UNL     1      -0.574  -2.657  -9.956  0.00  0.00    +0.000 A 
ATOM     32  C   UNL     1      -0.599  -3.338  -8.754  0.00  0.00    +0.000 A 
ATOM     33  N   UNL     1      -1.659  -4.036  -8.397  0.00  0.00    +0.000 NA
ATOM     34  C   UNL     1      -2.725  -4.121  -9.169  0.00  0.00    +0.000 A 
ATOM     35  C   UNL     1      -2.769  -3.471 -10.387  0.00  0.00    +0.000 A 
ATOM     36  C   UNL     1      -1.676  -2.724 -10.794  0.00  0.00    +0.000 A 
ENDBRANCH  30  31
ENDBRANCH  29  30
ENDBRANCH  28  29
ENDBRANCH  27  28
BRANCH  27  37
ATOM     37  C   UNL     1       0.502   1.850  -9.980  0.00  0.00    +0.000 C 
BRANCH  37  38
ATOM     38  C   UNL     1      -0.898   2.025  -9.388  0.00  0.00    +0.000 C 
BRANCH  38  39
ATOM     39  C   UNL     1      -1.890   1.150 -10.155  0.00  0.00    +0.000 C 
BRANCH  39  40
ATOM     40  C   UNL     1      -2.686   0.321  -9.182  0.00  0.00    +0.000 A 
ATOM     41  C   UNL     1      -2.124  -0.065  -7.980  0.00  0.00    +0.000 A 
ATOM     42  C   UNL     1      -2.856  -0.825  -7.087  0.00  0.00    +0.000 A 
ATOM     43  C   UNL     1      -4.151  -1.199  -7.396  0.00  0.00    +0.000 A 
ATOM     44  C   UNL     1      -4.714  -0.812  -8.598  0.00  0.00    +0.000 A 
ATOM     45  C   UNL     1      -3.984  -0.048  -9.489  0.00  0.00    +0.000 A 
ENDBRANCH  39  40
ENDBRANCH  38  39
ENDBRANCH  37  38
ENDBRANCH  27  37
ENDBRANCH  26  27
ENDBRANCH  24  26
ENDBRANCH   8  24
TORSDOF 16
ENDMDL
MODEL 9
REMARK VINA RESULT:      -6.6      1.903      4.055
REMARK  Name = 001
REMARK  19 active torsions:
REMARK  status: ('A' for Active; 'I' for Inactive)
REMARK    1  A    between atoms: C_1  and  C_13
REMARK    2  A    between atoms: C_3  and  O_7
REMARK    3  A    between atoms: C_4  and  O_9
REMARK    4  A    between atoms: C_5  and  O_11
REMARK    5  A    between atoms: O_7  and  C_8
REMARK    6  A    between atoms: O_9  and  C_10
REMARK    7  A    between atoms: O_11  and  C_12
REMARK    8  A    between atoms: C_13  and  C_16
REMARK    9  A    between atoms: C_23  and  C_24
REMARK   10  A    between atoms: C_24  and  O_26
REMARK   11  A    between atoms: O_26  and  C_27
REMARK   12  A    between atoms: C_27  and  C_28
REMARK   13  A    between atoms: C_27  and  C_37
REMARK   14  A    between atoms: C_28  and  C_29
REMARK   15  A    between atoms: C_29  and  C_30
REMARK   16  A    between atoms: C_30  and  C_31
REMARK   17  A    between atoms: C_37  and  C_38
REMARK   18  A    between atoms: C_38  and  C_39
REMARK   19  A    between atoms: C_39  and  C_40
REMARK                            x       y       z     vdW  Elec       q    Type
REMARK                         _______ _______ _______ _____ _____    ______ ____
ROOT
ATOM      1  C   UNL     1       0.399  -0.606  -9.687  0.00  0.00    +0.000 C 
ATOM      2  O   UNL     1       1.161  -0.551  -8.744  0.00  0.00    +0.000 OA
ATOM      3  N   UNL     1       0.101   0.512 -10.378  0.00  0.00    +0.000 N 
ATOM      4  C   UNL     1      -0.891   0.480 -11.461  0.00  0.00    +0.000 C 
ATOM      5  C   UNL     1      -1.946   1.558 -11.195  0.00  0.00    +0.000 C 
ATOM      6  C   UNL     1      -1.254   2.912 -11.017  0.00  0.00    +0.000 C 
ATOM      7  C   UNL     1      -0.312   2.849  -9.812  0.00  0.00    +0.000 C 
ATOM      8  C   UNL     1       0.758   1.787 -10.059  0.00  0.00    +0.000 C 
ENDROOT
BRANCH   1   9
ATOM      9  C   UNL     1      -0.213  -1.924 -10.085  0.00  0.00    +0.000 C 
ATOM     10  F   UNL     1       0.800  -2.867 -10.286  0.00  0.00    +0.000 F 
ATOM     11  F   UNL     1      -0.941  -1.761 -11.267  0.00  0.00    +0.000 F 
BRANCH   9  12
ATOM     12  C   UNL     1      -1.133  -2.401  -8.990  0.00  0.00    +0.000 A 
ATOM     13  C   UNL     1      -2.091  -1.550  -8.474  0.00  0.00    +0.000 A 
ATOM     14  C   UNL     1      -2.939  -1.986  -7.467  0.00  0.00    +0.000 A 
ATOM     15  C   UNL     1      -2.819  -3.279  -6.971  0.00  0.00    +0.000 A 
ATOM     16  C   UNL     1      -1.857  -4.133  -7.496  0.00  0.00    +0.000 A 
ATOM     17  C   UNL     1      -1.014  -3.690  -8.504  0.00  0.00    +0.000 A 
BRANCH  14  18
ATOM     18  O   UNL     1      -3.883  -1.147  -6.960  0.00  0.00    +0.000 OA
ATOM     19  C   UNL     1      -4.823  -0.903  -8.008  0.00  0.00    +0.000 C 
ENDBRANCH  14  18
BRANCH  15  20
ATOM     20  O   UNL     1      -3.649  -3.709  -5.982  0.00  0.00    +0.000 OA
ATOM     21  C   UNL     1      -4.755  -4.350  -6.620  0.00  0.00    +0.000 C 
ENDBRANCH  15  20
BRANCH  16  22
ATOM     22  O   UNL     1      -1.740  -5.401  -7.018  0.00  0.00    +0.000 OA
ATOM     23  C   UNL     1      -1.992  -6.282  -8.115  0.00  0.00    +0.000 C 
ENDBRANCH  16  22
ENDBRANCH   9  12
ENDBRANCH   1   9
BRANCH   8  24
ATOM     24  C   UNL     1       1.607   1.628  -8.824  0.00  0.00    +0.000 C 
ATOM     25  O   UNL     1       1.085   1.574  -7.735  0.00  0.00    +0.000 OA
BRANCH  24  26
ATOM     26  O   UNL     1       2.942   1.546  -8.932  0.00  0.00    +0.000 OA
BRANCH  26  27
ATOM     27  C   UNL     1       3.575   1.677 -10.232  0.00  0.00    +0.000 C 
BRANCH  27  28
ATOM     28  C   UNL     1       5.028   1.205 -10.143  0.00  0.00    +0.000 C 
BRANCH  28  29
ATOM     29  C   UNL     1       5.193   0.291  -8.927  0.00  0.00    +0.000 C 
BRANCH  29  30
ATOM     30  C   UNL     1       6.674  -0.045  -8.739  0.00  0.00    +0.000 C 
BRANCH  30  31
ATOM     31  C   UNL     1       7.042   0.103  -7.284  0.00  0.00    +0.000 A 
ATOM     32  C   UNL     1       7.782  -0.875  -6.648  0.00  0.00    +0.000 A 
ATOM     33  N   UNL     1       8.113  -0.750  -5.378  0.00  0.00    +0.000 NA
ATOM     34  C   UNL     1       7.747   0.297  -4.666  0.00  0.00    +0.000 A 
ATOM     35  C   UNL     1       7.002   1.312  -5.234  0.00  0.00    +0.000 A 
ATOM     36  C   UNL     1       6.639   1.218  -6.568  0.00  0.00    +0.000 A 
ENDBRANCH  30  31
ENDBRANCH  29  30
ENDBRANCH  28  29
ENDBRANCH  27  28
BRANCH  27  37
ATOM     37  C   UNL     1       3.541   3.142 -10.671  0.00  0.00    +0.000 C 
BRANCH  37  38
ATOM     38  C   UNL     1       4.720   3.889 -10.046  0.00  0.00    +0.000 C 
BRANCH  38  39
ATOM     39  C   UNL     1       4.210   5.141  -9.329  0.00  0.00    +0.000 C 
BRANCH  39  40
ATOM     40  C   UNL     1       3.541   4.744  -8.040  0.00  0.00    +0.000 A 
ATOM     41  C   UNL     1       2.237   5.130  -7.790  0.00  0.00    +0.000 A 
ATOM     42  C   UNL     1       1.623   4.764  -6.606  0.00  0.00    +0.000 A 
ATOM     43  C   UNL     1       2.313   4.013  -5.673  0.00  0.00    +0.000 A 
ATOM     44  C   UNL     1       3.616   3.627  -5.923  0.00  0.00    +0.000 A 
ATOM     45  C   UNL     1       4.229   3.988  -7.108  0.00  0.00    +0.000 A 
ENDBRANCH  39  40
ENDBRANCH  38  39
ENDBRANCH  37  38
ENDBRANCH  27  37
ENDBRANCH  26  27
ENDBRANCH  24  26
ENDBRANCH   8  24
TORSDOF 16
ENDMDL
