MODEL 1
REMARK VINA RESULT:      -4.8      0.000      0.000
REMARK  Name = 007
REMARK  3 active torsions:
REMARK  status: ('A' for Active; 'I' for Inactive)
REMARK    1  A    between atoms: C_3  and  C_6
REMARK    2  A    between atoms: C_3  and  C_12
REMARK    3  A    between atoms: C_12  and  N_13
REMARK                            x       y       z     vdW  Elec       q    Type
REMARK                         _______ _______ _______ _____ _____    ______ ____
ROOT
ATOM      1  C   UNL     1       8.922  -1.713   3.393  0.00  0.00    +0.002 C 
ATOM      2  C   UNL     1       9.834  -1.593   2.147  0.00  0.00    +0.000 C 
ATOM      3  C   UNL     1       7.612  -1.017   2.970  0.00  0.00    -0.001 C 
ATOM      4  C   UNL     1       9.498  -0.180   1.613  0.00  0.00    +0.000 C 
ATOM      5  C   UNL     1       7.979  -0.042   1.839  0.00  0.00    +0.002 C 
ENDROOT
BRANCH   3   6
ATOM      6  C   UNL     1       7.030  -0.261   4.136  0.00  0.00    -0.025 C 
ATOM      7  C   UNL     1       6.828  -0.902   5.344  0.00  0.00    -0.004 C 
ATOM      8  C   UNL     1       6.703   1.074   4.001  0.00  0.00    -0.004 C 
ATOM      9  C   UNL     1       6.294  -0.209   6.413  0.00  0.00    -0.000 C 
ATOM     10  C   UNL     1       6.166   1.766   5.069  0.00  0.00    -0.000 C 
ATOM     11  C   UNL     1       5.962   1.125   6.276  0.00  0.00    -0.000 C 
ENDBRANCH   3   6
BRANCH   3  12
ATOM     12  C   UNL     1       6.606  -2.054   2.464  0.00  0.00    -0.082 C 
BRANCH  12  13
ATOM     13  N   UNL     1       6.202  -1.715   1.093  0.00  0.00    +0.381 N 
ATOM     14  H   UNL     1       6.743  -2.272   0.432  0.00  0.00    -0.089 HD
ATOM     15  H   UNL     1       6.374  -0.724   0.923  0.00  0.00    -0.089 HD
ATOM     16  H   UNL     1       5.209  -1.913   0.973  0.00  0.00    -0.089 HD
ENDBRANCH  12  13
ENDBRANCH   3  12
TORSDOF 3
ENDMDL
MODEL 2
REMARK VINA RESULT:      -4.8      2.725      4.937
REMARK  Name = 007
REMARK  3 active torsions:
REMARK  status: ('A' for Active; 'I' for Inactive)
REMARK    1  A    between atoms: C_3  and  C_6
REMARK    2  A    between atoms: C_3  and  C_12
REMARK    3  A    between atoms: C_12  and  N_13
REMARK                            x       y       z     vdW  Elec       q    Type
REMARK                         _______ _______ _______ _____ _____    ______ ____
ROOT
ATOM      1  C   UNL     1       8.056   0.382   2.290  0.00  0.00    +0.002 C 
ATOM      2  C   UNL     1       9.106  -0.263   3.228  0.00  0.00    +0.000 C 
ATOM      3  C   UNL     1       8.474  -0.082   0.880  0.00  0.00    -0.001 C 
ATOM      4  C   UNL     1      10.413  -0.148   2.408  0.00  0.00    +0.000 C 
ATOM      5  C   UNL     1       9.973  -0.419   0.956  0.00  0.00    +0.002 C 
ENDROOT
BRANCH   3   6
ATOM      6  C   UNL     1       8.241   1.023  -0.118  0.00  0.00    -0.025 C 
ATOM      7  C   UNL     1       8.545   2.329   0.215  0.00  0.00    -0.004 C 
ATOM      8  C   UNL     1       7.731   0.729  -1.367  0.00  0.00    -0.004 C 
ATOM      9  C   UNL     1       8.332   3.343  -0.700  0.00  0.00    -0.000 C 
ATOM     10  C   UNL     1       7.514   1.744  -2.280  0.00  0.00    -0.000 C 
ATOM     11  C   UNL     1       7.816   3.049  -1.948  0.00  0.00    -0.000 C 
ENDBRANCH   3   6
BRANCH   3  12
ATOM     12  C   UNL     1       7.677  -1.325   0.479  0.00  0.00    -0.082 C 
BRANCH  12  13
ATOM     13  N   UNL     1       6.380  -1.319   1.169  0.00  0.00    +0.381 N 
ATOM     14  H   UNL     1       6.026  -2.273   1.238  0.00  0.00    -0.089 HD
ATOM     15  H   UNL     1       5.718  -0.748   0.644  0.00  0.00    -0.089 HD
ATOM     16  H   UNL     1       6.495  -0.930   2.105  0.00  0.00    -0.089 HD
ENDBRANCH  12  13
ENDBRANCH   3  12
TORSDOF 3
ENDMDL
MODEL 3
REMARK VINA RESULT:      -4.8      1.953      4.456
REMARK  Name = 007
REMARK  3 active torsions:
REMARK  status: ('A' for Active; 'I' for Inactive)
REMARK    1  A    between atoms: C_3  and  C_6
REMARK    2  A    between atoms: C_3  and  C_12
REMARK    3  A    between atoms: C_12  and  N_13
REMARK                            x       y       z     vdW  Elec       q    Type
REMARK                         _______ _______ _______ _____ _____    ______ ____
ROOT
ATOM      1  C   UNL     1       7.311   1.023   3.803  0.00  0.00    +0.002 C 
ATOM      2  C   UNL     1       7.969   0.825   5.190  0.00  0.00    +0.000 C 
ATOM      3  C   UNL     1       7.775  -0.200   2.985  0.00  0.00    -0.001 C 
ATOM      4  C   UNL     1       9.357   0.243   4.828  0.00  0.00    +0.000 C 
ATOM      5  C   UNL     1       9.076  -0.695   3.638  0.00  0.00    +0.002 C 
ENDROOT
BRANCH   3   6
ATOM      6  C   UNL     1       8.032   0.202   1.556  0.00  0.00    -0.025 C 
ATOM      7  C   UNL     1       8.322   1.518   1.250  0.00  0.00    -0.004 C 
ATOM      8  C   UNL     1       7.985  -0.746   0.553  0.00  0.00    -0.004 C 
ATOM      9  C   UNL     1       8.559   1.886  -0.061  0.00  0.00    -0.000 C 
ATOM     10  C   UNL     1       8.218  -0.377  -0.758  0.00  0.00    -0.000 C 
ATOM     11  C   UNL     1       8.506   0.938  -1.065  0.00  0.00    -0.000 C 
ENDBRANCH   3   6
BRANCH   3  12
ATOM     12  C   UNL     1       6.710  -1.298   3.036  0.00  0.00    -0.082 C 
BRANCH  12  13
ATOM     13  N   UNL     1       7.296  -2.521   3.602  0.00  0.00    +0.381 N 
ATOM     14  H   UNL     1       8.313  -2.446   3.596  0.00  0.00    -0.089 HD
ATOM     15  H   UNL     1       7.011  -3.325   3.043  0.00  0.00    -0.089 HD
ATOM     16  H   UNL     1       6.970  -2.641   4.561  0.00  0.00    -0.089 HD
ENDBRANCH  12  13
ENDBRANCH   3  12
TORSDOF 3
ENDMDL
MODEL 4
REMARK VINA RESULT:      -4.8      2.580      4.918
REMARK  Name = 007
REMARK  3 active torsions:
REMARK  status: ('A' for Active; 'I' for Inactive)
REMARK    1  A    between atoms: C_3  and  C_6
REMARK    2  A    between atoms: C_3  and  C_12
REMARK    3  A    between atoms: C_12  and  N_13
REMARK                            x       y       z     vdW  Elec       q    Type
REMARK                         _______ _______ _______ _____ _____    ______ ____
ROOT
ATOM      1  C   UNL     1       7.275  -1.485   1.021  0.00  0.00    +0.002 C 
ATOM      2  C   UNL     1       6.831  -1.953   2.429  0.00  0.00    +0.000 C 
ATOM      3  C   UNL     1       8.326  -0.391   1.301  0.00  0.00    -0.001 C 
ATOM      4  C   UNL     1       6.814  -0.634   3.238  0.00  0.00    +0.000 C 
ATOM      5  C   UNL     1       8.033   0.149   2.710  0.00  0.00    +0.002 C 
ENDROOT
BRANCH   3   6
ATOM      6  C   UNL     1       8.202   0.715   0.286  0.00  0.00    -0.025 C 
ATOM      7  C   UNL     1       8.562   2.006   0.625  0.00  0.00    -0.004 C 
ATOM      8  C   UNL     1       7.736   0.440  -0.984  0.00  0.00    -0.004 C 
ATOM      9  C   UNL     1       8.450   3.022  -0.306  0.00  0.00    -0.000 C 
ATOM     10  C   UNL     1       7.620   1.456  -1.913  0.00  0.00    -0.000 C 
ATOM     11  C   UNL     1       7.978   2.746  -1.575  0.00  0.00    -0.000 C 
ENDBRANCH   3   6
BRANCH   3  12
ATOM     12  C   UNL     1       9.733  -0.992   1.251  0.00  0.00    -0.082 C 
BRANCH  12  13
ATOM     13  N   UNL     1       9.731  -2.171   0.374  0.00  0.00    +0.381 N 
ATOM     14  H   UNL     1       9.509  -3.002   0.923  0.00  0.00    -0.089 HD
ATOM     15  H   UNL     1      10.651  -2.279  -0.051  0.00  0.00    -0.089 HD
ATOM     16  H   UNL     1       9.031  -2.049  -0.357  0.00  0.00    -0.089 HD
ENDBRANCH  12  13
ENDBRANCH   3  12
TORSDOF 3
ENDMDL
MODEL 5
REMARK VINA RESULT:      -4.8      3.405      5.563
REMARK  Name = 007
REMARK  3 active torsions:
REMARK  status: ('A' for Active; 'I' for Inactive)
REMARK    1  A    between atoms: C_3  and  C_6
REMARK    2  A    between atoms: C_3  and  C_12
REMARK    3  A    between atoms: C_12  and  N_13
REMARK                            x       y       z     vdW  Elec       q    Type
REMARK                         _______ _______ _______ _____ _____    ______ ____
ROOT
ATOM      1  C   UNL     1      10.068   0.335   0.324  0.00  0.00    +0.002 C 
ATOM      2  C   UNL     1      10.112  -1.182   0.630  0.00  0.00    +0.000 C 
ATOM      3  C   UNL     1       8.573   0.699   0.429  0.00  0.00    -0.001 C 
ATOM      4  C   UNL     1       8.831  -1.707  -0.063  0.00  0.00    +0.000 C 
ATOM      5  C   UNL     1       7.788  -0.599   0.183  0.00  0.00    +0.002 C 
ENDROOT
BRANCH   3   6
ATOM      6  C   UNL     1       8.217   1.726  -0.615  0.00  0.00    -0.025 C 
ATOM      7  C   UNL     1       8.530   3.056  -0.410  0.00  0.00    -0.004 C 
ATOM      8  C   UNL     1       7.583   1.337  -1.778  0.00  0.00    -0.004 C 
ATOM      9  C   UNL     1       8.203   3.998  -1.367  0.00  0.00    -0.000 C 
ATOM     10  C   UNL     1       7.252   2.280  -2.733  0.00  0.00    -0.000 C 
ATOM     11  C   UNL     1       7.564   3.609  -2.529  0.00  0.00    -0.000 C 
ENDBRANCH   3   6
BRANCH   3  12
ATOM     12  C   UNL     1       8.264   1.244   1.826  0.00  0.00    -0.082 C 
BRANCH  12  13
ATOM     13  N   UNL     1       7.334   0.336   2.510  0.00  0.00    +0.381 N 
ATOM     14  H   UNL     1       7.859  -0.417   2.955  0.00  0.00    -0.089 HD
ATOM     15  H   UNL     1       6.683  -0.060   1.831  0.00  0.00    -0.089 HD
ATOM     16  H   UNL     1       6.813   0.852   3.218  0.00  0.00    -0.089 HD
ENDBRANCH  12  13
ENDBRANCH   3  12
TORSDOF 3
ENDMDL
MODEL 6
REMARK VINA RESULT:      -4.8      1.363      2.012
REMARK  Name = 007
REMARK  3 active torsions:
REMARK  status: ('A' for Active; 'I' for Inactive)
REMARK    1  A    between atoms: C_3  and  C_6
REMARK    2  A    between atoms: C_3  and  C_12
REMARK    3  A    between atoms: C_12  and  N_13
REMARK                            x       y       z     vdW  Elec       q    Type
REMARK                         _______ _______ _______ _____ _____    ______ ____
ROOT
ATOM      1  C   UNL     1       8.110  -0.195   2.175  0.00  0.00    +0.002 C 
ATOM      2  C   UNL     1       7.840  -1.084   0.936  0.00  0.00    +0.000 C 
ATOM      3  C   UNL     1       7.628  -1.050   3.365  0.00  0.00    -0.001 C 
ATOM      4  C   UNL     1       6.496  -1.765   1.290  0.00  0.00    +0.000 C 
ATOM      5  C   UNL     1       6.603  -2.048   2.801  0.00  0.00    +0.002 C 
ENDROOT
BRANCH   3   6
ATOM      6  C   UNL     1       6.980  -0.172   4.403  0.00  0.00    -0.025 C 
ATOM      7  C   UNL     1       6.698  -0.679   5.658  0.00  0.00    -0.004 C 
ATOM      8  C   UNL     1       6.674   1.141   4.105  0.00  0.00    -0.004 C 
ATOM      9  C   UNL     1       6.104   0.126   6.611  0.00  0.00    -0.000 C 
ATOM     10  C   UNL     1       6.076   1.945   5.057  0.00  0.00    -0.000 C 
ATOM     11  C   UNL     1       5.793   1.438   6.310  0.00  0.00    -0.000 C 
ENDBRANCH   3   6
BRANCH   3  12
ATOM     12  C   UNL     1       8.810  -1.804   3.980  0.00  0.00    -0.082 C 
BRANCH  12  13
ATOM     13  N   UNL     1       8.529  -3.246   3.971  0.00  0.00    +0.381 N 
ATOM     14  H   UNL     1       8.810  -3.641   3.073  0.00  0.00    -0.089 HD
ATOM     15  H   UNL     1       7.531  -3.399   4.112  0.00  0.00    -0.089 HD
ATOM     16  H   UNL     1       9.051  -3.699   4.720  0.00  0.00    -0.089 HD
ENDBRANCH  12  13
ENDBRANCH   3  12
TORSDOF 3
ENDMDL
MODEL 7
REMARK VINA RESULT:      -4.7      2.645      4.150
REMARK  Name = 007
REMARK  3 active torsions:
REMARK  status: ('A' for Active; 'I' for Inactive)
REMARK    1  A    between atoms: C_3  and  C_6
REMARK    2  A    between atoms: C_3  and  C_12
REMARK    3  A    between atoms: C_12  and  N_13
REMARK                            x       y       z     vdW  Elec       q    Type
REMARK                         _______ _______ _______ _____ _____    ______ ____
ROOT
ATOM      1  C   UNL     1       8.617   2.183   0.418  0.00  0.00    +0.002 C 
ATOM      2  C   UNL     1       8.453   2.755  -1.012  0.00  0.00    +0.000 C 
ATOM      3  C   UNL     1       8.707   0.658   0.206  0.00  0.00    -0.001 C 
ATOM      4  C   UNL     1       7.533   1.713  -1.693  0.00  0.00    +0.000 C 
ATOM      5  C   UNL     1       8.018   0.360  -1.136  0.00  0.00    +0.002 C 
ENDROOT
BRANCH   3   6
ATOM      6  C   UNL     1       7.997  -0.061   1.324  0.00  0.00    -0.025 C 
ATOM      7  C   UNL     1       7.415  -1.293   1.093  0.00  0.00    -0.004 C 
ATOM      8  C   UNL     1       7.933   0.508   2.581  0.00  0.00    -0.004 C 
ATOM      9  C   UNL     1       6.765  -1.953   2.118  0.00  0.00    -0.000 C 
ATOM     10  C   UNL     1       7.279  -0.150   3.605  0.00  0.00    -0.000 C 
ATOM     11  C   UNL     1       6.696  -1.381   3.374  0.00  0.00    -0.000 C 
ENDBRANCH   3   6
BRANCH   3  12
ATOM     12  C   UNL     1      10.173   0.222   0.151  0.00  0.00    -0.082 C 
BRANCH  12  13
ATOM     13  N   UNL     1      10.996   1.176   0.906  0.00  0.00    +0.381 N 
ATOM     14  H   UNL     1      11.924   0.780   1.057  0.00  0.00    -0.089 HD
ATOM     15  H   UNL     1      10.557   1.366   1.807  0.00  0.00    -0.089 HD
ATOM     16  H   UNL     1      11.079   2.045   0.379  0.00  0.00    -0.089 HD
ENDBRANCH  12  13
ENDBRANCH   3  12
TORSDOF 3
ENDMDL
MODEL 8
REMARK VINA RESULT:      -4.6     14.544     15.875
REMARK  Name = 007
REMARK  3 active torsions:
REMARK  status: ('A' for Active; 'I' for Inactive)
REMARK    1  A    between atoms: C_3  and  C_6
REMARK    2  A    between atoms: C_3  and  C_12
REMARK    3  A    between atoms: C_12  and  N_13
REMARK                            x       y       z     vdW  Elec       q    Type
REMARK                         _______ _______ _______ _____ _____    ______ ____
ROOT
ATOM      1  C   UNL     1      -2.573  -2.298  -6.595  0.00  0.00    +0.002 C 
ATOM      2  C   UNL     1      -3.111  -0.960  -7.161  0.00  0.00    +0.000 C 
ATOM      3  C   UNL     1      -3.024  -3.352  -7.627  0.00  0.00    -0.001 C 
ATOM      4  C   UNL     1      -4.485  -1.365  -7.748  0.00  0.00    +0.000 C 
ATOM      5  C   UNL     1      -4.238  -2.759  -8.359  0.00  0.00    +0.002 C 
ENDROOT
BRANCH   3   6
ATOM      6  C   UNL     1      -3.414  -4.628  -6.926  0.00  0.00    -0.025 C 
ATOM      7  C   UNL     1      -4.577  -4.678  -6.180  0.00  0.00    -0.004 C 
ATOM      8  C   UNL     1      -2.614  -5.748  -7.034  0.00  0.00    -0.004 C 
ATOM      9  C   UNL     1      -4.935  -5.847  -5.537  0.00  0.00    -0.000 C 
ATOM     10  C   UNL     1      -2.971  -6.917  -6.387  0.00  0.00    -0.000 C 
ATOM     11  C   UNL     1      -4.132  -6.967  -5.641  0.00  0.00    -0.000 C 
ENDBRANCH   3   6
BRANCH   3  12
ATOM     12  C   UNL     1      -1.894  -3.628  -8.623  0.00  0.00    -0.082 C 
BRANCH  12  13
ATOM     13  N   UNL     1      -0.625  -3.137  -8.070  0.00  0.00    +0.381 N 
ATOM     14  H   UNL     1       0.121  -3.795  -8.295  0.00  0.00    -0.089 HD
ATOM     15  H   UNL     1      -0.706  -3.048  -7.058  0.00  0.00    -0.089 HD
ATOM     16  H   UNL     1      -0.408  -2.226  -8.474  0.00  0.00    -0.089 HD
ENDBRANCH  12  13
ENDBRANCH   3  12
TORSDOF 3
ENDMDL
MODEL 9
REMARK VINA RESULT:      -4.6     14.887     16.194
REMARK  Name = 007
REMARK  3 active torsions:
REMARK  status: ('A' for Active; 'I' for Inactive)
REMARK    1  A    between atoms: C_3  and  C_6
REMARK    2  A    between atoms: C_3  and  C_12
REMARK    3  A    between atoms: C_12  and  N_13
REMARK                            x       y       z     vdW  Elec       q    Type
REMARK                         _______ _______ _______ _____ _____    ______ ____
ROOT
ATOM      1  C   UNL     1      -3.808  -2.041  -9.134  0.00  0.00    +0.002 C 
ATOM      2  C   UNL     1      -4.183  -0.684  -8.490  0.00  0.00    +0.000 C 
ATOM      3  C   UNL     1      -3.271  -2.882  -7.959  0.00  0.00    -0.001 C 
ATOM      4  C   UNL     1      -3.053  -0.475  -7.453  0.00  0.00    +0.000 C 
ATOM      5  C   UNL     1      -2.791  -1.886  -6.890  0.00  0.00    +0.002 C 
ENDROOT
BRANCH   3   6
ATOM      6  C   UNL     1      -2.122  -3.740  -8.420  0.00  0.00    -0.025 C 
ATOM      7  C   UNL     1      -2.290  -5.105  -8.555  0.00  0.00    -0.004 C 
ATOM      8  C   UNL     1      -0.902  -3.162  -8.715  0.00  0.00    -0.004 C 
ATOM      9  C   UNL     1      -1.236  -5.892  -8.979  0.00  0.00    -0.000 C 
ATOM     10  C   UNL     1       0.153  -3.950  -9.134  0.00  0.00    -0.000 C 
ATOM     11  C   UNL     1      -0.014  -5.315  -9.268  0.00  0.00    -0.000 C 
ENDBRANCH   3   6
BRANCH   3  12
ATOM     12  C   UNL     1      -4.386  -3.763  -7.391  0.00  0.00    -0.082 C 
BRANCH  12  13
ATOM     13  N   UNL     1      -5.021  -3.079  -6.257  0.00  0.00    +0.381 N 
ATOM     14  H   UNL     1      -6.033  -3.079  -6.382  0.00  0.00    -0.089 HD
ATOM     15  H   UNL     1      -4.684  -2.118  -6.208  0.00  0.00    -0.089 HD
ATOM     16  H   UNL     1      -4.786  -3.566  -5.392  0.00  0.00    -0.089 HD
ENDBRANCH  12  13
ENDBRANCH   3  12
TORSDOF 3
ENDMDL
