REMARK  Name = 007
REMARK  3 active torsions:
REMARK  status: ('A' for Active; 'I' for Inactive)
REMARK    1  A    between atoms: C_3  and  C_6
REMARK    2  A    between atoms: C_3  and  C_12
REMARK    3  A    between atoms: C_12  and  N_13
REMARK                            x       y       z     vdW  Elec       q    Type
REMARK                         _______ _______ _______ _____ _____    ______ ____
ROOT
ATOM      1  C   UNL     1      -1.169  -0.811   1.498  0.00  0.00    +0.002 C 
ATOM      2  C   UNL     1      -1.269  -0.094   2.867  0.00  0.00    +0.000 C 
ATOM      3  C   UNL     1       0.113  -0.235   0.863  0.00  0.00    -0.001 C 
ATOM      4  C   UNL     1      -0.789   1.340   2.537  0.00  0.00    +0.000 C 
ATOM      5  C   UNL     1       0.354   1.132   1.524  0.00  0.00    +0.002 C 
ENDROOT
BRANCH   3   6
ATOM      6  C   UNL     1      -0.077  -0.066  -0.622  0.00  0.00    -0.025 C 
ATOM      7  C   UNL     1      -0.972  -0.872  -1.300  0.00  0.00    -0.004 C 
ATOM      8  C   UNL     1       0.638   0.898  -1.305  0.00  0.00    -0.004 C 
ATOM      9  C   UNL     1      -1.147  -0.717  -2.662  0.00  0.00    -0.000 C 
ATOM     10  C   UNL     1       0.466   1.050  -2.668  0.00  0.00    -0.000 C 
ATOM     11  C   UNL     1      -0.427   0.244  -3.346  0.00  0.00    -0.000 C 
ENDBRANCH   3   6
BRANCH   3  12
ATOM     12  C   UNL     1       1.297  -1.166   1.136  0.00  0.00    -0.082 C 
BRANCH  12  13
ATOM     13  N   UNL     1       2.532  -0.546   0.638  0.00  0.00    +0.381 N 
ATOM     14  H   UNL     1       2.451  -0.385  -0.366  0.00  0.00    -0.089 HD
ATOM     15  H   UNL     1       3.321  -1.166   0.820  0.00  0.00    -0.089 HD
ATOM     16  H   UNL     1       2.682   0.343   1.114  0.00  0.00    -0.089 HD
ENDBRANCH  12  13
ENDBRANCH   3  12
TORSDOF 3
