MODEL 1
REMARK VINA RESULT:      -6.4      0.000      0.000
REMARK  2 active torsions:
REMARK  status: ('A' for Active; 'I' for Inactive)
REMARK    1  A    between atoms: C_10  and  C_17 
REMARK    2  A    between atoms: C_12  and  N_14 
ROOT
HETATM    1  C   UNK     0      -7.161  -3.775  -6.372  0.00  0.00     0.013 A 
HETATM    2  C   UNK     0      -6.980  -3.494  -7.743  0.00  0.00     0.001 A 
HETATM    3  C   UNK     0      -7.259  -2.208  -8.254  0.00  0.00     0.001 A 
HETATM    4  C   UNK     0      -7.729  -1.187  -7.401  0.00  0.00     0.008 A 
HETATM    5  C   UNK     0      -7.908  -1.476  -6.034  0.00  0.00    -0.043 A 
HETATM    6  C   UNK     0      -7.628  -2.750  -5.529  0.00  0.00    -0.019 A 
HETATM    7  C   UNK     0      -8.378  -0.571  -4.978  0.00  0.00     0.080 A 
HETATM    8  C   UNK     0      -8.328  -1.461  -3.797  0.00  0.00    -0.032 A 
HETATM    9  C   UNK     0      -7.903  -2.746  -4.163  0.00  0.00    -0.016 A 
HETATM   10  C   UNK     0      -8.678  -1.166  -2.454  0.00  0.00    -0.016 A 
HETATM   11  C   UNK     0      -8.630  -2.224  -1.511  0.00  0.00     0.042 A 
HETATM   12  C   UNK     0      -8.233  -3.527  -1.890  0.00  0.00     0.027 A 
HETATM   13  C   UNK     0      -7.845  -3.790  -3.221  0.00  0.00     0.042 A 
ENDROOT
BRANCH  10  14
HETATM   14  C   UNK     0      -9.104   0.132  -2.060  0.00  0.00    -0.023 A 
HETATM   15  C   UNK     0     -10.475   0.473  -2.077  0.00  0.00     0.029 A 
HETATM   16  C   UNK     0     -10.878   1.775  -1.727  0.00  0.00     0.090 A 
HETATM   17  N   UNK     0      -9.962   2.727  -1.366  0.00  0.00    -0.371 N 
HETATM   18  C   UNK     0      -8.630   2.411  -1.325  0.00  0.00     0.090 A 
HETATM   19  C   UNK     0     -10.403   4.050  -1.000  0.00  0.00     0.154 C 
HETATM   20  C   UNK     0      -8.179   1.120  -1.655  0.00  0.00     0.029 A 
ENDBRANCH  10  14
BRANCH  12  21
HETATM   21  N   UNK     0      -8.244  -4.528  -0.986  0.00  0.00    -0.399 N 
HETATM   22  H   UNK     0      -9.034  -5.085  -0.886  0.00  0.00     0.156 HD
HETATM   23  H   UNK     0      -7.463  -4.698  -0.438  0.00  0.00     0.156 HD
ENDBRANCH  12  21
TORSDOF 2
ENDMDL
MODEL 2
REMARK VINA RESULT:      -6.1      2.117      6.073
REMARK  2 active torsions:
REMARK  status: ('A' for Active; 'I' for Inactive)
REMARK    1  A    between atoms: C_10  and  C_17 
REMARK    2  A    between atoms: C_12  and  N_14 
ROOT
HETATM    1  C   UNK     0      -8.408   1.191  -1.606  0.00  0.00     0.013 A 
HETATM    2  C   UNK     0      -8.431   2.578  -1.866  0.00  0.00     0.001 A 
HETATM    3  C   UNK     0      -8.438   3.057  -3.194  0.00  0.00     0.001 A 
HETATM    4  C   UNK     0      -8.414   2.157  -4.279  0.00  0.00     0.008 A 
HETATM    5  C   UNK     0      -8.391   0.774  -4.011  0.00  0.00    -0.043 A 
HETATM    6  C   UNK     0      -8.387   0.300  -2.695  0.00  0.00    -0.019 A 
HETATM    7  C   UNK     0      -8.369  -0.329  -4.979  0.00  0.00     0.080 A 
HETATM    8  C   UNK     0      -8.366  -1.502  -4.075  0.00  0.00    -0.032 A 
HETATM    9  C   UNK     0      -8.354  -1.093  -2.734  0.00  0.00    -0.016 A 
HETATM   10  C   UNK     0      -8.337  -2.878  -4.416  0.00  0.00    -0.016 A 
HETATM   11  C   UNK     0      -8.246  -3.819  -3.358  0.00  0.00     0.042 A 
HETATM   12  C   UNK     0      -8.200  -3.401  -2.008  0.00  0.00     0.027 A 
HETATM   13  C   UNK     0      -8.276  -2.029  -1.688  0.00  0.00     0.042 A 
ENDROOT
BRANCH  10  14
HETATM   14  C   UNK     0      -8.357  -3.315  -5.769  0.00  0.00    -0.023 A 
HETATM   15  C   UNK     0      -9.577  -3.644  -6.398  0.00  0.00     0.029 A 
HETATM   16  C   UNK     0      -9.577  -4.119  -7.724  0.00  0.00     0.090 A 
HETATM   17  N   UNK     0      -8.409  -4.269  -8.422  0.00  0.00    -0.371 N 
HETATM   18  C   UNK     0      -7.216  -3.937  -7.835  0.00  0.00     0.090 A 
HETATM   19  C   UNK     0      -8.437  -4.745  -9.783  0.00  0.00     0.154 C 
HETATM   20  C   UNK     0      -7.166  -3.448  -6.517  0.00  0.00     0.029 A 
ENDBRANCH  10  14
BRANCH  12  21
HETATM   21  N   UNK     0      -8.062  -4.313  -1.023  0.00  0.00    -0.399 N 
HETATM   22  H   UNK     0      -8.419  -5.209  -1.135  0.00  0.00     0.156 HD
HETATM   23  H   UNK     0      -7.601  -4.077  -0.202  0.00  0.00     0.156 HD
ENDBRANCH  12  21
TORSDOF 2
ENDMDL
MODEL 3
REMARK VINA RESULT:      -5.9     20.071     20.793
REMARK  2 active torsions:
REMARK  status: ('A' for Active; 'I' for Inactive)
REMARK    1  A    between atoms: C_10  and  C_17 
REMARK    2  A    between atoms: C_12  and  N_14 
ROOT
HETATM    1  C   UNK     0       9.846   0.912  -3.377  0.00  0.00     0.013 A 
HETATM    2  C   UNK     0      10.492   1.700  -4.353  0.00  0.00     0.001 A 
HETATM    3  C   UNK     0      11.802   2.179  -4.133  0.00  0.00     0.001 A 
HETATM    4  C   UNK     0      12.480   1.884  -2.932  0.00  0.00     0.008 A 
HETATM    5  C   UNK     0      11.827   1.098  -1.963  0.00  0.00    -0.043 A 
HETATM    6  C   UNK     0      10.531   0.620  -2.182  0.00  0.00    -0.019 A 
HETATM    7  C   UNK     0      12.342   0.670  -0.656  0.00  0.00     0.080 A 
HETATM    8  C   UNK     0      11.202  -0.123  -0.146  0.00  0.00    -0.032 A 
HETATM    9  C   UNK     0      10.141  -0.112  -1.062  0.00  0.00    -0.016 A 
HETATM   10  C   UNK     0      11.083  -0.801   1.095  0.00  0.00    -0.016 A 
HETATM   11  C   UNK     0       9.842  -1.420   1.393  0.00  0.00     0.042 A 
HETATM   12  C   UNK     0       8.764  -1.378   0.481  0.00  0.00     0.027 A 
HETATM   13  C   UNK     0       8.916  -0.738  -0.767  0.00  0.00     0.042 A 
ENDROOT
BRANCH  10  14
HETATM   14  C   UNK     0      12.149  -0.832   2.036  0.00  0.00    -0.023 A 
HETATM   15  C   UNK     0      13.256  -1.686   1.837  0.00  0.00     0.029 A 
HETATM   16  C   UNK     0      14.282  -1.740   2.800  0.00  0.00     0.090 A 
HETATM   17  N   UNK     0      14.229  -0.974   3.934  0.00  0.00    -0.371 N 
HETATM   18  C   UNK     0      13.173  -0.125   4.136  0.00  0.00     0.090 A 
HETATM   19  C   UNK     0      15.300  -1.038   4.898  0.00  0.00     0.154 C 
HETATM   20  C   UNK     0      12.130  -0.028   3.197  0.00  0.00     0.029 A 
ENDBRANCH  10  14
BRANCH  12  21
HETATM   21  N   UNK     0       7.578  -1.930   0.810  0.00  0.00    -0.399 N 
HETATM   22  H   UNK     0       7.111  -2.497   0.173  0.00  0.00     0.156 HD
HETATM   23  H   UNK     0       7.192  -1.770   1.685  0.00  0.00     0.156 HD
ENDBRANCH  12  21
TORSDOF 2
ENDMDL
MODEL 4
REMARK VINA RESULT:      -5.9     11.960     14.951
REMARK  2 active torsions:
REMARK  status: ('A' for Active; 'I' for Inactive)
REMARK    1  A    between atoms: C_10  and  C_17 
REMARK    2  A    between atoms: C_12  and  N_14 
ROOT
HETATM    1  C   UNK     0      -0.212   1.888 -10.945  0.00  0.00     0.013 A 
HETATM    2  C   UNK     0      -1.436   2.401 -11.424  0.00  0.00     0.001 A 
HETATM    3  C   UNK     0      -2.090   1.789 -12.516  0.00  0.00     0.001 A 
HETATM    4  C   UNK     0      -1.526   0.662 -13.148  0.00  0.00     0.008 A 
HETATM    5  C   UNK     0      -0.303   0.157 -12.664  0.00  0.00    -0.043 A 
HETATM    6  C   UNK     0       0.343   0.761 -11.580  0.00  0.00    -0.019 A 
HETATM    7  C   UNK     0       0.453  -0.998 -13.163  0.00  0.00     0.080 A 
HETATM    8  C   UNK     0       1.607  -1.006 -12.238  0.00  0.00    -0.032 A 
HETATM    9  C   UNK     0       1.522   0.060 -11.331  0.00  0.00    -0.016 A 
HETATM   10  C   UNK     0       2.713  -1.893 -12.213  0.00  0.00    -0.016 A 
HETATM   11  C   UNK     0       3.748  -1.635 -11.277  0.00  0.00     0.042 A 
HETATM   12  C   UNK     0       3.673  -0.539 -10.387  0.00  0.00     0.027 A 
HETATM   13  C   UNK     0       2.543   0.306 -10.395  0.00  0.00     0.042 A 
ENDROOT
BRANCH  10  14
HETATM   14  C   UNK     0       2.817  -2.986 -13.118  0.00  0.00    -0.023 A 
HETATM   15  C   UNK     0       2.273  -4.246 -12.786  0.00  0.00     0.029 A 
HETATM   16  C   UNK     0       2.423  -5.329 -13.671  0.00  0.00     0.090 A 
HETATM   17  N   UNK     0       3.090  -5.186 -14.859  0.00  0.00    -0.371 N 
HETATM   18  C   UNK     0       3.609  -3.968 -15.208  0.00  0.00     0.090 A 
HETATM   19  C   UNK     0       3.219  -6.310 -15.754  0.00  0.00     0.154 C 
HETATM   20  C   UNK     0       3.475  -2.852 -14.361  0.00  0.00     0.029 A 
ENDBRANCH  10  14
BRANCH  12  21
HETATM   21  N   UNK     0       4.693  -0.285  -9.541  0.00  0.00    -0.399 N 
HETATM   22  H   UNK     0       5.588  -0.136  -9.887  0.00  0.00     0.156 HD
HETATM   23  H   UNK     0       4.534  -0.243  -8.585  0.00  0.00     0.156 HD
ENDBRANCH  12  21
TORSDOF 2
ENDMDL
MODEL 5
REMARK VINA RESULT:      -5.9      3.126      5.809
REMARK  2 active torsions:
REMARK  status: ('A' for Active; 'I' for Inactive)
REMARK    1  A    between atoms: C_10  and  C_17 
REMARK    2  A    between atoms: C_12  and  N_14 
ROOT
HETATM    1  C   UNK     0      -7.738  -3.799  -3.115  0.00  0.00     0.013 A 
HETATM    2  C   UNK     0      -8.149  -3.516  -1.795  0.00  0.00     0.001 A 
HETATM    3  C   UNK     0      -8.879  -2.341  -1.509  0.00  0.00     0.001 A 
HETATM    4  C   UNK     0      -9.200  -1.430  -2.537  0.00  0.00     0.008 A 
HETATM    5  C   UNK     0      -8.785  -1.719  -3.851  0.00  0.00    -0.043 A 
HETATM    6  C   UNK     0      -8.065  -2.885  -4.135  0.00  0.00    -0.019 A 
HETATM    7  C   UNK     0      -9.012  -0.922  -5.062  0.00  0.00     0.080 A 
HETATM    8  C   UNK     0      -8.354  -1.763  -6.087  0.00  0.00    -0.032 A 
HETATM    9  C   UNK     0      -7.785  -2.902  -5.500  0.00  0.00    -0.016 A 
HETATM   10  C   UNK     0      -8.224  -1.520  -7.478  0.00  0.00    -0.016 A 
HETATM   11  C   UNK     0      -7.462  -2.442  -8.241  0.00  0.00     0.042 A 
HETATM   12  C   UNK     0      -6.862  -3.572  -7.640  0.00  0.00     0.027 A 
HETATM   13  C   UNK     0      -7.040  -3.820  -6.263  0.00  0.00     0.042 A 
ENDROOT
BRANCH  10  14
HETATM   14  C   UNK     0      -8.799  -0.375  -8.095  0.00  0.00    -0.023 A 
HETATM   15  C   UNK     0      -8.863   0.855  -7.405  0.00  0.00     0.029 A 
HETATM   16  C   UNK     0      -9.475   1.968  -8.010  0.00  0.00     0.090 A 
HETATM   17  N   UNK     0     -10.014   1.883  -9.266  0.00  0.00    -0.371 N 
HETATM   18  C   UNK     0      -9.946   0.704  -9.960  0.00  0.00     0.090 A 
HETATM   19  C   UNK     0     -10.625   3.042  -9.869  0.00  0.00     0.154 C 
HETATM   20  C   UNK     0      -9.334  -0.433  -9.401  0.00  0.00     0.029 A 
ENDBRANCH  10  14
BRANCH  12  21
HETATM   21  N   UNK     0      -6.099  -4.405  -8.378  0.00  0.00    -0.399 N 
HETATM   22  H   UNK     0      -5.200  -4.629  -8.087  0.00  0.00     0.156 HD
HETATM   23  H   UNK     0      -6.449  -4.788  -9.197  0.00  0.00     0.156 HD
ENDBRANCH  12  21
TORSDOF 2
ENDMDL
MODEL 6
REMARK VINA RESULT:      -5.8     11.934     13.281
REMARK  2 active torsions:
REMARK  status: ('A' for Active; 'I' for Inactive)
REMARK    1  A    between atoms: C_10  and  C_17 
REMARK    2  A    between atoms: C_12  and  N_14 
ROOT
HETATM    1  C   UNK     0      -4.227   3.778 -13.645  0.00  0.00     0.013 A 
HETATM    2  C   UNK     0      -4.563   5.043 -13.118  0.00  0.00     0.001 A 
HETATM    3  C   UNK     0      -3.751   5.647 -12.134  0.00  0.00     0.001 A 
HETATM    4  C   UNK     0      -2.597   4.992 -11.658  0.00  0.00     0.008 A 
HETATM    5  C   UNK     0      -2.269   3.729 -12.189  0.00  0.00    -0.043 A 
HETATM    6  C   UNK     0      -3.072   3.132 -13.167  0.00  0.00    -0.019 A 
HETATM    7  C   UNK     0      -1.122   2.880 -11.846  0.00  0.00     0.080 A 
HETATM    8  C   UNK     0      -1.341   1.725 -12.745  0.00  0.00    -0.032 A 
HETATM    9  C   UNK     0      -2.514   1.898 -13.494  0.00  0.00    -0.016 A 
HETATM   10  C   UNK     0      -0.562   0.548 -12.877  0.00  0.00    -0.016 A 
HETATM   11  C   UNK     0      -1.035  -0.464 -13.752  0.00  0.00     0.042 A 
HETATM   12  C   UNK     0      -2.236  -0.300 -14.480  0.00  0.00     0.027 A 
HETATM   13  C   UNK     0      -2.974   0.897 -14.370  0.00  0.00     0.042 A 
ENDROOT
BRANCH  10  14
HETATM   14  C   UNK     0       0.635   0.356 -12.134  0.00  0.00    -0.023 A 
HETATM   15  C   UNK     0       1.893   0.622 -12.718  0.00  0.00     0.029 A 
HETATM   16  C   UNK     0       3.071   0.384 -11.986  0.00  0.00     0.090 A 
HETATM   17  N   UNK     0       3.023  -0.104 -10.707  0.00  0.00    -0.371 N 
HETATM   18  C   UNK     0       1.813  -0.351 -10.116  0.00  0.00     0.090 A 
HETATM   19  C   UNK     0       4.245  -0.327  -9.974  0.00  0.00     0.154 C 
HETATM   20  C   UNK     0       0.608  -0.118 -10.804  0.00  0.00     0.029 A 
ENDBRANCH  10  14
BRANCH  12  21
HETATM   21  N   UNK     0      -2.691  -1.298 -15.265  0.00  0.00    -0.399 N 
HETATM   22  H   UNK     0      -3.189  -2.036 -14.877  0.00  0.00     0.156 HD
HETATM   23  H   UNK     0      -2.530  -1.277 -16.222  0.00  0.00     0.156 HD
ENDBRANCH  12  21
TORSDOF 2
ENDMDL
MODEL 7
REMARK VINA RESULT:      -5.8      2.070      6.357
REMARK  2 active torsions:
REMARK  status: ('A' for Active; 'I' for Inactive)
REMARK    1  A    between atoms: C_10  and  C_17 
REMARK    2  A    between atoms: C_12  and  N_14 
ROOT
HETATM    1  C   UNK     0      -9.255   2.903   0.626  0.00  0.00     0.013 A 
HETATM    2  C   UNK     0      -8.788   4.234   0.613  0.00  0.00     0.001 A 
HETATM    3  C   UNK     0      -8.131   4.752  -0.525  0.00  0.00     0.001 A 
HETATM    4  C   UNK     0      -7.928   3.943  -1.662  0.00  0.00     0.008 A 
HETATM    5  C   UNK     0      -8.397   2.615  -1.641  0.00  0.00    -0.043 A 
HETATM    6  C   UNK     0      -9.050   2.104  -0.514  0.00  0.00    -0.019 A 
HETATM    7  C   UNK     0      -8.298   1.609  -2.706  0.00  0.00     0.080 A 
HETATM    8  C   UNK     0      -8.980   0.458  -2.075  0.00  0.00    -0.032 A 
HETATM    9  C   UNK     0      -9.390   0.778  -0.773  0.00  0.00    -0.016 A 
HETATM   10  C   UNK     0      -9.201  -0.838  -2.609  0.00  0.00    -0.016 A 
HETATM   11  C   UNK     0      -9.803  -1.806  -1.765  0.00  0.00     0.042 A 
HETATM   12  C   UNK     0     -10.185  -1.489  -0.441  0.00  0.00     0.027 A 
HETATM   13  C   UNK     0      -9.999  -0.182   0.056  0.00  0.00     0.042 A 
ENDROOT
BRANCH  10  14
HETATM   14  C   UNK     0      -8.800  -1.182  -3.929  0.00  0.00    -0.023 A 
HETATM   15  C   UNK     0      -7.627  -1.939  -4.148  0.00  0.00     0.029 A 
HETATM   16  C   UNK     0      -7.218  -2.233  -5.462  0.00  0.00     0.090 A 
HETATM   17  N   UNK     0      -7.939  -1.799  -6.542  0.00  0.00    -0.371 N 
HETATM   18  C   UNK     0      -9.089  -1.080  -6.351  0.00  0.00     0.090 A 
HETATM   19  C   UNK     0      -7.504  -2.126  -7.878  0.00  0.00     0.154 C 
HETATM   20  C   UNK     0      -9.545  -0.771  -5.056  0.00  0.00     0.029 A 
ENDBRANCH  10  14
BRANCH  12  21
HETATM   21  N   UNK     0     -10.710  -2.441   0.357  0.00  0.00    -0.399 N 
HETATM   22  H   UNK     0     -11.615  -2.761   0.205  0.00  0.00     0.156 HD
HETATM   23  H   UNK     0     -10.183  -2.815   1.081  0.00  0.00     0.156 HD
ENDBRANCH  12  21
TORSDOF 2
ENDMDL
MODEL 8
REMARK VINA RESULT:      -5.7     20.038     20.924
REMARK  2 active torsions:
REMARK  status: ('A' for Active; 'I' for Inactive)
REMARK    1  A    between atoms: C_10  and  C_17 
REMARK    2  A    between atoms: C_12  and  N_14 
ROOT
HETATM    1  C   UNK     0      12.878  -0.376   1.049  0.00  0.00     0.013 A 
HETATM    2  C   UNK     0      14.069  -0.017   1.714  0.00  0.00     0.001 A 
HETATM    3  C   UNK     0      14.944   0.938   1.151  0.00  0.00     0.001 A 
HETATM    4  C   UNK     0      14.641   1.541  -0.088  0.00  0.00     0.008 A 
HETATM    5  C   UNK     0      13.450   1.176  -0.746  0.00  0.00    -0.043 A 
HETATM    6  C   UNK     0      12.583   0.232  -0.186  0.00  0.00    -0.019 A 
HETATM    7  C   UNK     0      12.942   1.677  -2.029  0.00  0.00     0.080 A 
HETATM    8  C   UNK     0      11.672   0.926  -2.145  0.00  0.00    -0.032 A 
HETATM    9  C   UNK     0      11.504   0.065  -1.051  0.00  0.00    -0.016 A 
HETATM   10  C   UNK     0      10.715   0.967  -3.191  0.00  0.00    -0.016 A 
HETATM   11  C   UNK     0       9.614   0.075  -3.115  0.00  0.00     0.042 A 
HETATM   12  C   UNK     0       9.465  -0.815  -2.027  0.00  0.00     0.027 A 
HETATM   13  C   UNK     0      10.404  -0.808  -0.973  0.00  0.00     0.042 A 
ENDROOT
BRANCH  10  14
HETATM   14  C   UNK     0      10.862   1.837  -4.307  0.00  0.00    -0.023 A 
HETATM   15  C   UNK     0      10.241   3.105  -4.313  0.00  0.00     0.029 A 
HETATM   16  C   UNK     0      10.357   3.938  -5.442  0.00  0.00     0.090 A 
HETATM   17  N   UNK     0      11.067   3.540  -6.544  0.00  0.00    -0.371 N 
HETATM   18  C   UNK     0      11.692   2.322  -6.550  0.00  0.00     0.090 A 
HETATM   19  C   UNK     0      11.181   4.418  -7.683  0.00  0.00     0.154 C 
HETATM   20  C   UNK     0      11.614   1.460  -5.441  0.00  0.00     0.029 A 
ENDBRANCH  10  14
BRANCH  12  21
HETATM   21  N   UNK     0       8.437  -1.687  -2.003  0.00  0.00    -0.399 N 
HETATM   22  H   UNK     0       8.493  -2.519  -2.502  0.00  0.00     0.156 HD
HETATM   23  H   UNK     0       7.643  -1.491  -1.481  0.00  0.00     0.156 HD
ENDBRANCH  12  21
TORSDOF 2
ENDMDL
MODEL 9
REMARK VINA RESULT:      -5.7     13.165     15.340
REMARK  2 active torsions:
REMARK  status: ('A' for Active; 'I' for Inactive)
REMARK    1  A    between atoms: C_10  and  C_17 
REMARK    2  A    between atoms: C_12  and  N_14 
ROOT
HETATM    1  C   UNK     0       3.146  -0.073 -11.653  0.00  0.00     0.013 A 
HETATM    2  C   UNK     0       1.970   0.554 -12.116  0.00  0.00     0.001 A 
HETATM    3  C   UNK     0       0.778  -0.186 -12.273  0.00  0.00     0.001 A 
HETATM    4  C   UNK     0       0.748  -1.565 -11.977  0.00  0.00     0.008 A 
HETATM    5  C   UNK     0       1.927  -2.184 -11.516  0.00  0.00    -0.043 A 
HETATM    6  C   UNK     0       3.107  -1.448 -11.358  0.00  0.00    -0.019 A 
HETATM    7  C   UNK     0       2.119  -3.591 -11.148  0.00  0.00     0.080 A 
HETATM    8  C   UNK     0       3.542  -3.590 -10.744  0.00  0.00    -0.032 A 
HETATM    9  C   UNK     0       4.100  -2.313 -10.902  0.00  0.00    -0.016 A 
HETATM   10  C   UNK     0       4.332  -4.676 -10.288  0.00  0.00    -0.016 A 
HETATM   11  C   UNK     0       5.710  -4.437 -10.048  0.00  0.00     0.042 A 
HETATM   12  C   UNK     0       6.276  -3.156 -10.241  0.00  0.00     0.027 A 
HETATM   13  C   UNK     0       5.464  -2.077 -10.651  0.00  0.00     0.042 A 
ENDROOT
BRANCH  10  14
HETATM   14  C   UNK     0       3.785  -5.977 -10.113  0.00  0.00    -0.023 A 
HETATM   15  C   UNK     0       3.155  -6.332  -8.900  0.00  0.00     0.029 A 
HETATM   16  C   UNK     0       2.659  -7.638  -8.724  0.00  0.00     0.090 A 
HETATM   17  N   UNK     0       2.774  -8.578  -9.713  0.00  0.00    -0.371 N 
HETATM   18  C   UNK     0       3.365  -8.248 -10.904  0.00  0.00     0.090 A 
HETATM   19  C   UNK     0       2.246  -9.905  -9.511  0.00  0.00     0.154 C 
HETATM   20  C   UNK     0       3.866  -6.953 -11.131  0.00  0.00     0.029 A 
ENDBRANCH  10  14
BRANCH  12  21
HETATM   21  N   UNK     0       7.598  -2.966 -10.055  0.00  0.00    -0.399 N 
HETATM   22  H   UNK     0       8.240  -3.411 -10.632  0.00  0.00     0.156 HD
HETATM   23  H   UNK     0       7.912  -2.380  -9.349  0.00  0.00     0.156 HD
ENDBRANCH  12  21
TORSDOF 2
ENDMDL
