MODEL 1
REMARK VINA RESULT:      -6.2      0.000      0.000
REMARK  4 active torsions:
REMARK  status: ('A' for Active; 'I' for Inactive)
REMARK    1  A    between atoms: C_11  and  N_19 
REMARK    2  A    between atoms: C_13  and  C_14 
REMARK       I    between atoms: N_19  and  C_21 
REMARK    3  A    between atoms: C_21  and  C_22 
REMARK    4  A    between atoms: C_22  and  C_23 
ROOT
HETATM    1  C   UNK     0      -8.284  11.338  -0.854  0.00  0.00     0.008 A 
HETATM    2  C   UNK     0      -8.975  11.561  -2.062  0.00  0.00     0.001 A 
HETATM    3  C   UNK     0      -9.515  10.474  -2.785  0.00  0.00     0.001 A 
HETATM    4  C   UNK     0      -9.376   9.156  -2.302  0.00  0.00     0.013 A 
HETATM    5  C   UNK     0      -8.693   8.950  -1.088  0.00  0.00    -0.019 A 
HETATM    6  C   UNK     0      -8.145  10.021  -0.381  0.00  0.00    -0.043 A 
HETATM    7  C   UNK     0      -8.436   7.788  -0.372  0.00  0.00    -0.016 A 
HETATM    8  C   UNK     0      -7.706   8.109   0.782  0.00  0.00    -0.031 A 
HETATM    9  C   UNK     0      -7.453   9.567   0.831  0.00  0.00     0.080 A 
HETATM   10  C   UNK     0      -8.824   6.470  -0.658  0.00  0.00     0.042 A 
HETATM   11  C   UNK     0      -8.468   5.436   0.238  0.00  0.00     0.036 A 
HETATM   12  C   UNK     0      -7.756   5.771   1.415  0.00  0.00     0.043 A 
HETATM   13  C   UNK     0      -7.350   7.101   1.716  0.00  0.00    -0.009 A 
ENDROOT
BRANCH  13  14
HETATM   14  C   UNK     0      -6.629   7.359   2.919  0.00  0.00     0.015 A 
HETATM   15  C   UNK     0      -5.272   7.687   3.090  0.00  0.00     0.020 A 
HETATM   16  C   UNK     0      -4.835   7.875   4.412  0.00  0.00     0.008 A 
HETATM   17  C   UNK     0      -5.811   7.687   5.389  0.00  0.00     0.050 A 
HETATM   18  S   UNK     0      -7.292   7.285   4.547  0.00  0.00    -0.101 SA
ENDBRANCH  13  14
BRANCH  11  19
HETATM   19  N   UNK     0      -8.782   4.115   0.063  0.00  0.00    -0.327 N 
HETATM   20  C   UNK     0      -8.340   3.250  -0.897  0.00  0.00     0.223 C 
HETATM   21  O   UNK     0      -7.510   3.577  -1.778  0.00  0.00    -0.273 OA
HETATM   22  H   UNK     0      -9.368   3.731   0.734  0.00  0.00     0.169 HD
BRANCH  20  23
HETATM   23  C   UNK     0      -8.812   1.849  -0.882  0.00  0.00     0.118 C 
BRANCH  23  24
HETATM   24  C   UNK     0      -8.353   1.073  -2.137  0.00  0.00     0.124 C 
HETATM   25 Cl   UNK     0      -7.313  -0.275  -1.687  0.00  0.00    -0.130 Cl
ENDBRANCH  23  24
ENDBRANCH  20  23
ENDBRANCH  11  19
TORSDOF 4
ENDMDL
MODEL 2
REMARK VINA RESULT:      -5.9      3.789      6.015
REMARK  4 active torsions:
REMARK  status: ('A' for Active; 'I' for Inactive)
REMARK    1  A    between atoms: C_11  and  N_19 
REMARK    2  A    between atoms: C_13  and  C_14 
REMARK       I    between atoms: N_19  and  C_21 
REMARK    3  A    between atoms: C_21  and  C_22 
REMARK    4  A    between atoms: C_22  and  C_23 
ROOT
HETATM    1  C   UNK     0      -9.732   9.487  -2.715  0.00  0.00     0.008 A 
HETATM    2  C   UNK     0      -9.548  10.882  -2.813  0.00  0.00     0.001 A 
HETATM    3  C   UNK     0      -8.765  11.566  -1.858  0.00  0.00     0.001 A 
HETATM    4  C   UNK     0      -8.152  10.863  -0.800  0.00  0.00     0.013 A 
HETATM    5  C   UNK     0      -8.335   9.468  -0.721  0.00  0.00    -0.019 A 
HETATM    6  C   UNK     0      -9.122   8.793  -1.654  0.00  0.00    -0.043 A 
HETATM    7  C   UNK     0      -7.838   8.533   0.177  0.00  0.00    -0.016 A 
HETATM    8  C   UNK     0      -8.320   7.261  -0.167  0.00  0.00    -0.031 A 
HETATM    9  C   UNK     0      -9.200   7.358  -1.355  0.00  0.00     0.080 A 
HETATM   10  C   UNK     0      -6.968   8.725   1.261  0.00  0.00     0.042 A 
HETATM   11  C   UNK     0      -6.569   7.608   2.031  0.00  0.00     0.036 A 
HETATM   12  C   UNK     0      -7.037   6.324   1.661  0.00  0.00     0.043 A 
HETATM   13  C   UNK     0      -7.923   6.114   0.569  0.00  0.00    -0.009 A 
ENDROOT
BRANCH  13  14
HETATM   14  C   UNK     0      -8.357   4.790   0.261  0.00  0.00     0.015 A 
HETATM   15  C   UNK     0      -9.064   3.877   1.063  0.00  0.00     0.020 A 
HETATM   16  C   UNK     0      -9.345   2.626   0.489  0.00  0.00     0.008 A 
HETATM   17  C   UNK     0      -8.861   2.449  -0.806  0.00  0.00     0.050 A 
HETATM   18  S   UNK     0      -8.060   3.941  -1.250  0.00  0.00    -0.101 SA
ENDBRANCH  13  14
BRANCH  11  19
HETATM   19  N   UNK     0      -5.733   7.671   3.114  0.00  0.00    -0.327 N 
HETATM   20  C   UNK     0      -6.018   8.048   4.395  0.00  0.00     0.223 C 
HETATM   21  O   UNK     0      -7.170   8.377   4.767  0.00  0.00    -0.273 OA
HETATM   22  H   UNK     0      -4.824   7.369   2.959  0.00  0.00     0.169 HD
BRANCH  20  23
HETATM   23  C   UNK     0      -4.946   8.027   5.412  0.00  0.00     0.118 C 
BRANCH  23  24
HETATM   24  C   UNK     0      -3.938   9.180   5.210  0.00  0.00     0.124 C 
HETATM   25 Cl   UNK     0      -4.660  10.722   5.659  0.00  0.00    -0.130 Cl
ENDBRANCH  23  24
ENDBRANCH  20  23
ENDBRANCH  11  19
TORSDOF 4
ENDMDL
MODEL 3
REMARK VINA RESULT:      -5.9      1.833      4.933
REMARK  4 active torsions:
REMARK  status: ('A' for Active; 'I' for Inactive)
REMARK    1  A    between atoms: C_11  and  N_19 
REMARK    2  A    between atoms: C_13  and  C_14 
REMARK       I    between atoms: N_19  and  C_21 
REMARK    3  A    between atoms: C_21  and  C_22 
REMARK    4  A    between atoms: C_22  and  C_23 
ROOT
HETATM    1  C   UNK     0      -6.540   9.578   3.461  0.00  0.00     0.008 A 
HETATM    2  C   UNK     0      -5.916   8.868   4.507  0.00  0.00     0.001 A 
HETATM    3  C   UNK     0      -5.913   7.456   4.506  0.00  0.00     0.001 A 
HETATM    4  C   UNK     0      -6.526   6.741   3.457  0.00  0.00     0.013 A 
HETATM    5  C   UNK     0      -7.136   7.463   2.413  0.00  0.00    -0.019 A 
HETATM    6  C   UNK     0      -7.155   8.858   2.421  0.00  0.00    -0.043 A 
HETATM    7  C   UNK     0      -7.777   7.033   1.259  0.00  0.00    -0.016 A 
HETATM    8  C   UNK     0      -8.225   8.149   0.536  0.00  0.00    -0.031 A 
HETATM    9  C   UNK     0      -7.872   9.393   1.258  0.00  0.00     0.080 A 
HETATM   10  C   UNK     0      -7.970   5.723   0.791  0.00  0.00     0.042 A 
HETATM   11  C   UNK     0      -8.636   5.522  -0.439  0.00  0.00     0.036 A 
HETATM   12  C   UNK     0      -9.060   6.654  -1.177  0.00  0.00     0.043 A 
HETATM   13  C   UNK     0      -8.878   7.985  -0.714  0.00  0.00    -0.009 A 
ENDROOT
BRANCH  13  14
HETATM   14  C   UNK     0      -9.339   9.076  -1.511  0.00  0.00     0.015 A 
HETATM   15  C   UNK     0      -8.605   9.948  -2.334  0.00  0.00     0.020 A 
HETATM   16  C   UNK     0      -9.337  10.948  -2.996  0.00  0.00     0.008 A 
HETATM   17  C   UNK     0     -10.704  10.954  -2.728  0.00  0.00     0.050 A 
HETATM   18  S   UNK     0     -11.004   9.630  -1.622  0.00  0.00    -0.101 SA
ENDBRANCH  13  14
BRANCH  11  19
HETATM   19  N   UNK     0      -8.889   4.295  -0.992  0.00  0.00    -0.327 N 
HETATM   20  C   UNK     0      -8.062   3.504  -1.737  0.00  0.00     0.223 C 
HETATM   21  O   UNK     0      -6.875   3.814  -1.996  0.00  0.00    -0.273 OA
HETATM   22  H   UNK     0      -9.763   3.920  -0.796  0.00  0.00     0.169 HD
BRANCH  20  23
HETATM   23  C   UNK     0      -8.555   2.199  -2.226  0.00  0.00     0.118 C 
BRANCH  23  24
HETATM   24  C   UNK     0      -8.541   1.125  -1.115  0.00  0.00     0.124 C 
HETATM   25 Cl   UNK     0      -7.355  -0.126  -1.474  0.00  0.00    -0.130 Cl
ENDBRANCH  23  24
ENDBRANCH  20  23
ENDBRANCH  11  19
TORSDOF 4
ENDMDL
MODEL 4
REMARK VINA RESULT:      -5.8     20.052     21.434
REMARK  4 active torsions:
REMARK  status: ('A' for Active; 'I' for Inactive)
REMARK    1  A    between atoms: C_11  and  N_19 
REMARK    2  A    between atoms: C_13  and  C_14 
REMARK       I    between atoms: N_19  and  C_21 
REMARK    3  A    between atoms: C_21  and  C_22 
REMARK    4  A    between atoms: C_22  and  C_23 
ROOT
HETATM    1  C   UNK     0      12.081   2.576  -5.648  0.00  0.00     0.008 A 
HETATM    2  C   UNK     0      11.120   3.608  -5.659  0.00  0.00     0.001 A 
HETATM    3  C   UNK     0       9.988   3.536  -4.819  0.00  0.00     0.001 A 
HETATM    4  C   UNK     0       9.807   2.435  -3.956  0.00  0.00     0.013 A 
HETATM    5  C   UNK     0      10.781   1.417  -3.947  0.00  0.00    -0.019 A 
HETATM    6  C   UNK     0      11.892   1.480  -4.788  0.00  0.00    -0.043 A 
HETATM    7  C   UNK     0      10.878   0.255  -3.193  0.00  0.00    -0.016 A 
HETATM    8  C   UNK     0      12.040  -0.439  -3.563  0.00  0.00    -0.031 A 
HETATM    9  C   UNK     0      12.750   0.298  -4.634  0.00  0.00     0.080 A 
HETATM   10  C   UNK     0      10.024  -0.219  -2.185  0.00  0.00     0.042 A 
HETATM   11  C   UNK     0      10.338  -1.429  -1.527  0.00  0.00     0.036 A 
HETATM   12  C   UNK     0      11.527  -2.110  -1.886  0.00  0.00     0.043 A 
HETATM   13  C   UNK     0      12.399  -1.646  -2.909  0.00  0.00    -0.009 A 
ENDROOT
BRANCH  13  14
HETATM   14  C   UNK     0      13.577  -2.391  -3.219  0.00  0.00     0.015 A 
HETATM   15  C   UNK     0      13.785  -3.343  -4.233  0.00  0.00     0.020 A 
HETATM   16  C   UNK     0      15.061  -3.929  -4.288  0.00  0.00     0.008 A 
HETATM   17  C   UNK     0      15.951  -3.499  -3.307  0.00  0.00     0.050 A 
HETATM   18  S   UNK     0      15.097  -2.316  -2.339  0.00  0.00    -0.101 SA
ENDBRANCH  13  14
BRANCH  11  19
HETATM   19  N   UNK     0       9.580  -1.994  -0.537  0.00  0.00    -0.327 N 
HETATM   20  C   UNK     0       9.632  -1.778   0.810  0.00  0.00     0.223 C 
HETATM   21  O   UNK     0      10.415  -0.954   1.338  0.00  0.00    -0.273 OA
HETATM   22  H   UNK     0       8.885  -2.602  -0.837  0.00  0.00     0.169 HD
BRANCH  20  23
HETATM   23  C   UNK     0       8.696  -2.503   1.696  0.00  0.00     0.118 C 
BRANCH  23  24
HETATM   24  C   UNK     0       9.367  -3.720   2.371  0.00  0.00     0.124 C 
HETATM   25 Cl   UNK     0       8.327  -4.386   3.627  0.00  0.00    -0.130 Cl
ENDBRANCH  23  24
ENDBRANCH  20  23
ENDBRANCH  11  19
TORSDOF 4
ENDMDL
MODEL 5
REMARK VINA RESULT:      -5.7     19.372     21.031
REMARK  4 active torsions:
REMARK  status: ('A' for Active; 'I' for Inactive)
REMARK    1  A    between atoms: C_11  and  N_19 
REMARK    2  A    between atoms: C_13  and  C_14 
REMARK       I    between atoms: N_19  and  C_21 
REMARK    3  A    between atoms: C_21  and  C_22 
REMARK    4  A    between atoms: C_22  and  C_23 
ROOT
HETATM    1  C   UNK     0      11.480  -0.888  -1.133  0.00  0.00     0.008 A 
HETATM    2  C   UNK     0      10.313  -1.678  -1.182  0.00  0.00     0.001 A 
HETATM    3  C   UNK     0       9.215  -1.279  -1.975  0.00  0.00     0.001 A 
HETATM    4  C   UNK     0       9.275  -0.091  -2.733  0.00  0.00     0.013 A 
HETATM    5  C   UNK     0      10.452   0.682  -2.684  0.00  0.00    -0.019 A 
HETATM    6  C   UNK     0      11.531   0.298  -1.888  0.00  0.00    -0.043 A 
HETATM    7  C   UNK     0      10.797   1.859  -3.335  0.00  0.00    -0.016 A 
HETATM    8  C   UNK     0      12.089   2.241  -2.943  0.00  0.00    -0.031 A 
HETATM    9  C   UNK     0      12.629   1.269  -1.965  0.00  0.00     0.080 A 
HETATM   10  C   UNK     0      10.059   2.601  -4.270  0.00  0.00     0.042 A 
HETATM   11  C   UNK     0      10.629   3.767  -4.830  0.00  0.00     0.036 A 
HETATM   12  C   UNK     0      11.944   4.132  -4.451  0.00  0.00     0.043 A 
HETATM   13  C   UNK     0      12.702   3.394  -3.501  0.00  0.00    -0.009 A 
ENDROOT
BRANCH  13  14
HETATM   14  C   UNK     0      14.019   3.827  -3.164  0.00  0.00     0.015 A 
HETATM   15  C   UNK     0      15.233   3.584  -3.831  0.00  0.00     0.020 A 
HETATM   16  C   UNK     0      16.388   4.135  -3.251  0.00  0.00     0.008 A 
HETATM   17  C   UNK     0      16.175   4.840  -2.067  0.00  0.00     0.050 A 
HETATM   18  S   UNK     0      14.454   4.778  -1.750  0.00  0.00    -0.101 SA
ENDBRANCH  13  14
BRANCH  11  19
HETATM   19  N   UNK     0      10.004   4.575  -5.741  0.00  0.00    -0.327 N 
HETATM   20  C   UNK     0      10.200   4.656  -7.091  0.00  0.00     0.223 C 
HETATM   21  O   UNK     0      11.012   3.924  -7.705  0.00  0.00    -0.273 OA
HETATM   22  H   UNK     0       9.300   5.141  -5.387  0.00  0.00     0.169 HD
BRANCH  20  23
HETATM   23  C   UNK     0       9.394   5.607  -7.884  0.00  0.00     0.118 C 
BRANCH  23  24
HETATM   24  C   UNK     0       7.889   5.506  -7.548  0.00  0.00     0.124 C 
HETATM   25 Cl   UNK     0       7.224   7.098  -7.193  0.00  0.00    -0.130 Cl
ENDBRANCH  23  24
ENDBRANCH  20  23
ENDBRANCH  11  19
TORSDOF 4
ENDMDL
MODEL 6
REMARK VINA RESULT:      -5.7      1.191      1.328
REMARK  4 active torsions:
REMARK  status: ('A' for Active; 'I' for Inactive)
REMARK    1  A    between atoms: C_11  and  N_19 
REMARK    2  A    between atoms: C_13  and  C_14 
REMARK       I    between atoms: N_19  and  C_21 
REMARK    3  A    between atoms: C_21  and  C_22 
REMARK    4  A    between atoms: C_22  and  C_23 
ROOT
HETATM    1  C   UNK     0      -8.254  11.546  -0.346  0.00  0.00     0.008 A 
HETATM    2  C   UNK     0      -8.837  11.806  -1.602  0.00  0.00     0.001 A 
HETATM    3  C   UNK     0      -9.226  10.740  -2.443  0.00  0.00     0.001 A 
HETATM    4  C   UNK     0      -9.041   9.403  -2.032  0.00  0.00     0.013 A 
HETATM    5  C   UNK     0      -8.467   9.158  -0.770  0.00  0.00    -0.019 A 
HETATM    6  C   UNK     0      -8.068  10.210   0.055  0.00  0.00    -0.043 A 
HETATM    7  C   UNK     0      -8.198   7.968  -0.106  0.00  0.00    -0.016 A 
HETATM    8  C   UNK     0      -7.609   8.255   1.134  0.00  0.00    -0.031 A 
HETATM    9  C   UNK     0      -7.466   9.719   1.300  0.00  0.00     0.080 A 
HETATM   10  C   UNK     0      -8.462   6.651  -0.512  0.00  0.00     0.042 A 
HETATM   11  C   UNK     0      -8.122   5.583   0.349  0.00  0.00     0.036 A 
HETATM   12  C   UNK     0      -7.554   5.880   1.611  0.00  0.00     0.043 A 
HETATM   13  C   UNK     0      -7.275   7.209   2.034  0.00  0.00    -0.009 A 
ENDROOT
BRANCH  13  14
HETATM   14  C   UNK     0      -6.694   7.429   3.319  0.00  0.00     0.015 A 
HETATM   15  C   UNK     0      -7.296   7.373   4.589  0.00  0.00     0.020 A 
HETATM   16  C   UNK     0      -6.467   7.654   5.688  0.00  0.00     0.008 A 
HETATM   17  C   UNK     0      -5.150   7.974   5.366  0.00  0.00     0.050 A 
HETATM   18  S   UNK     0      -5.022   7.883   3.623  0.00  0.00    -0.101 SA
ENDBRANCH  13  14
BRANCH  11  19
HETATM   19  N   UNK     0      -8.322   4.259   0.060  0.00  0.00    -0.327 N 
HETATM   20  C   UNK     0      -9.400   3.472   0.351  0.00  0.00     0.223 C 
HETATM   21  O   UNK     0     -10.423   3.907   0.932  0.00  0.00    -0.273 OA
HETATM   22  H   UNK     0      -7.619   3.832  -0.455  0.00  0.00     0.169 HD
BRANCH  20  23
HETATM   23  C   UNK     0      -9.399   2.057  -0.074  0.00  0.00     0.118 C 
BRANCH  23  24
HETATM   24  C   UNK     0      -8.540   1.835  -1.339  0.00  0.00     0.124 C 
HETATM   25 Cl   UNK     0      -7.813   0.231  -1.323  0.00  0.00    -0.130 Cl
ENDBRANCH  23  24
ENDBRANCH  20  23
ENDBRANCH  11  19
TORSDOF 4
ENDMDL
MODEL 7
REMARK VINA RESULT:      -5.7     19.881     22.002
REMARK  4 active torsions:
REMARK  status: ('A' for Active; 'I' for Inactive)
REMARK    1  A    between atoms: C_11  and  N_19 
REMARK    2  A    between atoms: C_13  and  C_14 
REMARK       I    between atoms: N_19  and  C_21 
REMARK    3  A    between atoms: C_21  and  C_22 
REMARK    4  A    between atoms: C_22  and  C_23 
ROOT
HETATM    1  C   UNK     0       2.491 -12.720  -4.743  0.00  0.00     0.008 A 
HETATM    2  C   UNK     0       1.201 -13.145  -5.121  0.00  0.00     0.001 A 
HETATM    3  C   UNK     0       0.495 -12.463  -6.136  0.00  0.00     0.001 A 
HETATM    4  C   UNK     0       1.074 -11.354  -6.788  0.00  0.00     0.013 A 
HETATM    5  C   UNK     0       2.368 -10.948  -6.407  0.00  0.00    -0.019 A 
HETATM    6  C   UNK     0       3.060 -11.610  -5.393  0.00  0.00    -0.043 A 
HETATM    7  C   UNK     0       3.182  -9.930  -6.887  0.00  0.00    -0.016 A 
HETATM    8  C   UNK     0       4.387  -9.925  -6.168  0.00  0.00    -0.031 A 
HETATM    9  C   UNK     0       4.369 -10.993  -5.143  0.00  0.00     0.080 A 
HETATM   10  C   UNK     0       2.941  -9.023  -7.931  0.00  0.00     0.042 A 
HETATM   11  C   UNK     0       3.936  -8.077  -8.267  0.00  0.00     0.036 A 
HETATM   12  C   UNK     0       5.161  -8.097  -7.556  0.00  0.00     0.043 A 
HETATM   13  C   UNK     0       5.418  -9.004  -6.492  0.00  0.00    -0.009 A 
ENDROOT
BRANCH  13  14
HETATM   14  C   UNK     0       6.675  -8.958  -5.818  0.00  0.00     0.015 A 
HETATM   15  C   UNK     0       6.943  -8.890  -4.440  0.00  0.00     0.020 A 
HETATM   16  C   UNK     0       8.297  -8.844  -4.067  0.00  0.00     0.008 A 
HETATM   17  C   UNK     0       9.201  -8.850  -5.127  0.00  0.00     0.050 A 
HETATM   18  S   UNK     0       8.253  -8.935  -6.596  0.00  0.00    -0.101 SA
ENDBRANCH  13  14
BRANCH  11  19
HETATM   19  N   UNK     0       3.813  -7.140  -9.257  0.00  0.00    -0.327 N 
HETATM   20  C   UNK     0       3.384  -5.847  -9.165  0.00  0.00     0.223 C 
HETATM   21  O   UNK     0       3.057  -5.315  -8.077  0.00  0.00    -0.273 OA
HETATM   22  H   UNK     0       4.107  -7.421 -10.139  0.00  0.00     0.169 HD
BRANCH  20  23
HETATM   23  C   UNK     0       3.344  -5.008 -10.381  0.00  0.00     0.118 C 
BRANCH  23  24
HETATM   24  C   UNK     0       4.342  -3.831 -10.302  0.00  0.00     0.124 C 
HETATM   25 Cl   UNK     0       5.973  -4.419  -9.992  0.00  0.00    -0.130 Cl
ENDBRANCH  23  24
ENDBRANCH  20  23
ENDBRANCH  11  19
TORSDOF 4
ENDMDL
MODEL 8
REMARK VINA RESULT:      -5.6      3.242      6.271
REMARK  4 active torsions:
REMARK  status: ('A' for Active; 'I' for Inactive)
REMARK    1  A    between atoms: C_11  and  N_19 
REMARK    2  A    between atoms: C_13  and  C_14 
REMARK       I    between atoms: N_19  and  C_21 
REMARK    3  A    between atoms: C_21  and  C_22 
REMARK    4  A    between atoms: C_22  and  C_23 
ROOT
HETATM    1  C   UNK     0      -9.893   3.203   5.104  0.00  0.00     0.008 A 
HETATM    2  C   UNK     0     -10.293   1.959   5.633  0.00  0.00     0.001 A 
HETATM    3  C   UNK     0     -10.456   0.843   4.784  0.00  0.00     0.001 A 
HETATM    4  C   UNK     0     -10.214   0.957   3.399  0.00  0.00     0.013 A 
HETATM    5  C   UNK     0      -9.804   2.203   2.886  0.00  0.00    -0.019 A 
HETATM    6  C   UNK     0      -9.658   3.311   3.722  0.00  0.00    -0.043 A 
HETATM    7  C   UNK     0      -9.473   2.594   1.595  0.00  0.00    -0.016 A 
HETATM    8  C   UNK     0      -9.135   3.955   1.597  0.00  0.00    -0.031 A 
HETATM    9  C   UNK     0      -9.260   4.505   2.967  0.00  0.00     0.080 A 
HETATM   10  C   UNK     0      -9.426   1.823   0.423  0.00  0.00     0.042 A 
HETATM   11  C   UNK     0      -9.031   2.433  -0.789  0.00  0.00     0.036 A 
HETATM   12  C   UNK     0      -8.663   3.801  -0.774  0.00  0.00     0.043 A 
HETATM   13  C   UNK     0      -8.712   4.596   0.404  0.00  0.00    -0.009 A 
ENDROOT
BRANCH  13  14
HETATM   14  C   UNK     0      -8.332   5.971   0.338  0.00  0.00     0.015 A 
HETATM   15  C   UNK     0      -7.291   6.639   1.007  0.00  0.00     0.020 A 
HETATM   16  C   UNK     0      -7.165   8.015   0.753  0.00  0.00     0.008 A 
HETATM   17  C   UNK     0      -8.112   8.542  -0.123  0.00  0.00     0.050 A 
HETATM   18  S   UNK     0      -9.142   7.212  -0.609  0.00  0.00    -0.101 SA
ENDBRANCH  13  14
BRANCH  11  19
HETATM   19  N   UNK     0      -8.955   1.788  -1.994  0.00  0.00    -0.327 N 
HETATM   20  C   UNK     0      -8.115   0.780  -2.375  0.00  0.00     0.223 C 
HETATM   21  O   UNK     0      -7.274   0.266  -1.600  0.00  0.00    -0.273 OA
HETATM   22  H   UNK     0      -9.613   2.057  -2.655  0.00  0.00     0.169 HD
BRANCH  20  23
HETATM   23  C   UNK     0      -8.223   0.225  -3.740  0.00  0.00     0.118 C 
BRANCH  23  24
HETATM   24  C   UNK     0      -7.004  -0.651  -4.104  0.00  0.00     0.124 C 
HETATM   25 Cl   UNK     0      -7.484  -1.975  -5.162  0.00  0.00    -0.130 Cl
ENDBRANCH  23  24
ENDBRANCH  20  23
ENDBRANCH  11  19
TORSDOF 4
ENDMDL
MODEL 9
REMARK VINA RESULT:      -5.6     14.830     17.658
REMARK  4 active torsions:
REMARK  status: ('A' for Active; 'I' for Inactive)
REMARK    1  A    between atoms: C_11  and  N_19 
REMARK    2  A    between atoms: C_13  and  C_14 
REMARK       I    between atoms: N_19  and  C_21 
REMARK    3  A    between atoms: C_21  and  C_22 
REMARK    4  A    between atoms: C_22  and  C_23 
ROOT
HETATM    1  C   UNK     0      -3.367  -1.291 -15.662  0.00  0.00     0.008 A 
HETATM    2  C   UNK     0      -3.301  -2.657 -16.005  0.00  0.00     0.001 A 
HETATM    3  C   UNK     0      -2.198  -3.440 -15.603  0.00  0.00     0.001 A 
HETATM    4  C   UNK     0      -1.152  -2.868 -14.849  0.00  0.00     0.013 A 
HETATM    5  C   UNK     0      -1.237  -1.505 -14.504  0.00  0.00    -0.019 A 
HETATM    6  C   UNK     0      -2.319  -0.726 -14.914  0.00  0.00    -0.043 A 
HETATM    7  C   UNK     0      -0.387  -0.699 -13.758  0.00  0.00    -0.016 A 
HETATM    8  C   UNK     0      -0.912   0.602 -13.706  0.00  0.00    -0.031 A 
HETATM    9  C   UNK     0      -2.177   0.667 -14.472  0.00  0.00     0.080 A 
HETATM   10  C   UNK     0       0.805  -1.041 -13.101  0.00  0.00     0.042 A 
HETATM   11  C   UNK     0       1.499  -0.050 -12.370  0.00  0.00     0.036 A 
HETATM   12  C   UNK     0       0.949   1.253 -12.299  0.00  0.00     0.043 A 
HETATM   13  C   UNK     0      -0.254   1.617 -12.963  0.00  0.00    -0.009 A 
ENDROOT
BRANCH  13  14
HETATM   14  C   UNK     0      -0.743   2.953 -12.850  0.00  0.00     0.015 A 
HETATM   15  C   UNK     0      -1.870   3.432 -12.159  0.00  0.00     0.020 A 
HETATM   16  C   UNK     0      -2.112   4.814 -12.238  0.00  0.00     0.008 A 
HETATM   17  C   UNK     0      -1.204   5.528 -13.017  0.00  0.00     0.050 A 
HETATM   18  S   UNK     0      -0.036   4.370 -13.617  0.00  0.00    -0.101 SA
ENDBRANCH  13  14
BRANCH  11  19
HETATM   19  N   UNK     0       2.672  -0.261 -11.697  0.00  0.00    -0.327 N 
HETATM   20  C   UNK     0       2.876  -0.406 -10.354  0.00  0.00     0.223 C 
HETATM   21  O   UNK     0       1.940  -0.394  -9.519  0.00  0.00    -0.273 OA
HETATM   22  H   UNK     0       3.462  -0.360 -12.252  0.00  0.00     0.169 HD
BRANCH  20  23
HETATM   23  C   UNK     0       4.245  -0.638  -9.850  0.00  0.00     0.118 C 
BRANCH  23  24
HETATM   24  C   UNK     0       4.934  -1.816 -10.575  0.00  0.00     0.124 C 
HETATM   25 Cl   UNK     0       4.007  -3.299 -10.372  0.00  0.00    -0.130 Cl
ENDBRANCH  23  24
ENDBRANCH  20  23
ENDBRANCH  11  19
TORSDOF 4
ENDMDL
