MODEL 1
REMARK VINA RESULT:      -6.6      0.000      0.000
REMARK  4 active torsions:
REMARK  status: ('A' for Active; 'I' for Inactive)
REMARK    1  A    between atoms: C_11  and  N_14 
REMARK    2  A    between atoms: C_13  and  C_21 
REMARK       I    between atoms: N_14  and  C_15 
REMARK    3  A    between atoms: C_15  and  C_16 
REMARK    4  A    between atoms: C_16  and  C_17 
ROOT
HETATM    1  C   UNK     0      -8.155  11.332  -0.565  0.00  0.00     0.016 A 
HETATM    2  C   UNK     0      -8.715  11.594  -1.834  0.00  0.00     0.001 A 
HETATM    3  C   UNK     0      -9.192  10.535  -2.639  0.00  0.00     0.001 A 
HETATM    4  C   UNK     0      -9.124   9.200  -2.184  0.00  0.00     0.013 A 
HETATM    5  C   UNK     0      -8.575   8.953  -0.910  0.00  0.00    -0.011 A 
HETATM    6  C   UNK     0      -8.091   9.998  -0.120  0.00  0.00     0.026 A 
HETATM    7  C   UNK     0      -8.388   7.767  -0.198  0.00  0.00    -0.008 A 
HETATM    8  C   UNK     0      -7.752   8.067   1.013  0.00  0.00     0.037 A 
HETATM    9  C   UNK     0      -7.591   9.464   1.069  0.00  0.00     0.195 A 
HETATM   10  C   UNK     0      -8.752   6.453  -0.528  0.00  0.00     0.043 A 
HETATM   11  C   UNK     0      -8.449   5.402   0.369  0.00  0.00     0.036 A 
HETATM   12  C   UNK     0      -7.784   5.712   1.581  0.00  0.00     0.043 A 
HETATM   13  C   UNK     0      -7.412   7.039   1.927  0.00  0.00    -0.009 A 
HETATM   14  O   UNK     0      -7.112  10.140   2.008  0.00  0.00    -0.287 OA
ENDROOT
BRANCH  13  15
HETATM   15  C   UNK     0      -6.714   7.291   3.141  0.00  0.00    -0.022 A 
HETATM   16  C   UNK     0      -5.311   7.480   3.148  0.00  0.00     0.029 A 
HETATM   17  C   UNK     0      -4.647   7.714   4.366  0.00  0.00     0.088 A 
HETATM   18  N   UNK     0      -5.354   7.746   5.525  0.00  0.00    -0.375 N 
HETATM   19  C   UNK     0      -6.698   7.567   5.564  0.00  0.00     0.088 A 
HETATM   20  HN  UNK     0      -4.855   7.911   6.399  1.00  0.00     0.164 HD
HETATM   21  C   UNK     0      -7.410   7.340   4.372  0.00  0.00     0.029 A 
ENDBRANCH  13  15
BRANCH  11  22
HETATM   22  N   UNK     0      -8.787   4.093   0.149  0.00  0.00    -0.327 N 
HETATM   23  C   UNK     0      -8.352   3.267  -0.850  0.00  0.00     0.223 C 
HETATM   24  O   UNK     0      -7.478   3.614  -1.679  0.00  0.00    -0.273 OA
HETATM   25  H   UNK     0      -9.391   3.697   0.797  0.00  0.00     0.169 HD
BRANCH  23  26
HETATM   26  C   UNK     0      -8.891   1.895  -0.948  0.00  0.00     0.118 C 
BRANCH  26  27
HETATM   27  C   UNK     0      -8.264   1.106  -2.123  0.00  0.00     0.124 C 
HETATM   28 Cl   UNK     0      -7.305  -0.250  -1.537  0.00  0.00    -0.130 Cl
ENDBRANCH  26  27
ENDBRANCH  23  26
ENDBRANCH  11  22
TORSDOF 4
ENDMDL
MODEL 2
REMARK VINA RESULT:      -6.3     20.102     22.646
REMARK  4 active torsions:
REMARK  status: ('A' for Active; 'I' for Inactive)
REMARK    1  A    between atoms: C_11  and  N_14 
REMARK    2  A    between atoms: C_13  and  C_21 
REMARK       I    between atoms: N_14  and  C_15 
REMARK    3  A    between atoms: C_15  and  C_16 
REMARK    4  A    between atoms: C_16  and  C_17 
ROOT
HETATM    1  C   UNK     0      13.595  -7.893   4.602  0.00  0.00     0.016 A 
HETATM    2  C   UNK     0      14.628  -7.923   3.642  0.00  0.00     0.001 A 
HETATM    3  C   UNK     0      14.523  -7.169   2.452  0.00  0.00     0.001 A 
HETATM    4  C   UNK     0      13.387  -6.366   2.209  0.00  0.00     0.013 A 
HETATM    5  C   UNK     0      12.368  -6.334   3.181  0.00  0.00    -0.011 A 
HETATM    6  C   UNK     0      12.466  -7.091   4.351  0.00  0.00     0.026 A 
HETATM    7  C   UNK     0      11.157  -5.641   3.229  0.00  0.00    -0.008 A 
HETATM    8  C   UNK     0      10.483  -5.998   4.404  0.00  0.00     0.037 A 
HETATM    9  C   UNK     0      11.315  -6.884   5.114  0.00  0.00     0.195 A 
HETATM   10  C   UNK     0      10.617  -4.712   2.328  0.00  0.00     0.043 A 
HETATM   11  C   UNK     0       9.351  -4.137   2.597  0.00  0.00     0.036 A 
HETATM   12  C   UNK     0       8.667  -4.522   3.777  0.00  0.00     0.043 A 
HETATM   13  C   UNK     0       9.205  -5.461   4.697  0.00  0.00    -0.009 A 
HETATM   14  O   UNK     0      11.104  -7.394   6.238  0.00  0.00    -0.287 OA
ENDROOT
BRANCH  13  15
HETATM   15  C   UNK     0       8.460  -5.839   5.849  0.00  0.00    -0.022 A 
HETATM   16  C   UNK     0       7.502  -6.879   5.788  0.00  0.00     0.029 A 
HETATM   17  C   UNK     0       6.771  -7.221   6.940  0.00  0.00     0.088 A 
HETATM   18  N   UNK     0       6.981  -6.544   8.098  0.00  0.00    -0.375 N 
HETATM   19  C   UNK     0       7.887  -5.539   8.200  0.00  0.00     0.088 A 
HETATM   20  HN  UNK     0       6.437  -6.801   8.922  1.00  0.00     0.164 HD
HETATM   21  C   UNK     0       8.651  -5.166   7.079  0.00  0.00     0.029 A 
ENDBRANCH  13  15
BRANCH  11  22
HETATM   22  N   UNK     0       8.754  -3.203   1.795  0.00  0.00    -0.327 N 
HETATM   23  C   UNK     0       9.212  -1.957   1.467  0.00  0.00     0.223 C 
HETATM   24  O   UNK     0      10.339  -1.539   1.821  0.00  0.00    -0.273 OA
HETATM   25  H   UNK     0       7.913  -3.469   1.390  0.00  0.00     0.169 HD
BRANCH  23  26
HETATM   26  C   UNK     0       8.377  -1.070   0.629  0.00  0.00     0.118 C 
BRANCH  26  27
HETATM   27  C   UNK     0       9.170  -0.477  -0.560  0.00  0.00     0.124 C 
HETATM   28 Cl   UNK     0       8.714  -1.249  -2.076  0.00  0.00    -0.130 Cl
ENDBRANCH  26  27
ENDBRANCH  23  26
ENDBRANCH  11  22
TORSDOF 4
ENDMDL
MODEL 3
REMARK VINA RESULT:      -6.2      6.133     10.017
REMARK  4 active torsions:
REMARK  status: ('A' for Active; 'I' for Inactive)
REMARK    1  A    between atoms: C_11  and  N_14 
REMARK    2  A    between atoms: C_13  and  C_21 
REMARK       I    between atoms: N_14  and  C_15 
REMARK    3  A    between atoms: C_15  and  C_16 
REMARK    4  A    between atoms: C_16  and  C_17 
ROOT
HETATM    1  C   UNK     0      -7.194  -1.941  -5.860  0.00  0.00     0.016 A 
HETATM    2  C   UNK     0      -6.940  -3.304  -6.122  0.00  0.00     0.001 A 
HETATM    3  C   UNK     0      -7.295  -4.295  -5.179  0.00  0.00     0.001 A 
HETATM    4  C   UNK     0      -7.917  -3.937  -3.963  0.00  0.00     0.013 A 
HETATM    5  C   UNK     0      -8.177  -2.575  -3.718  0.00  0.00    -0.011 A 
HETATM    6  C   UNK     0      -7.814  -1.595  -4.644  0.00  0.00     0.026 A 
HETATM    7  C   UNK     0      -8.777  -1.927  -2.636  0.00  0.00    -0.008 A 
HETATM    8  C   UNK     0      -8.749  -0.547  -2.868  0.00  0.00     0.037 A 
HETATM    9  C   UNK     0      -8.169  -0.345  -4.135  0.00  0.00     0.195 A 
HETATM   10  C   UNK     0      -9.358  -2.464  -1.477  0.00  0.00     0.043 A 
HETATM   11  C   UNK     0      -9.908  -1.592  -0.508  0.00  0.00     0.036 A 
HETATM   12  C   UNK     0      -9.854  -0.195  -0.741  0.00  0.00     0.043 A 
HETATM   13  C   UNK     0      -9.270   0.359  -1.911  0.00  0.00    -0.009 A 
HETATM   14  O   UNK     0      -8.009   0.742  -4.736  0.00  0.00    -0.287 OA
ENDROOT
BRANCH  13  15
HETATM   15  C   UNK     0      -9.211   1.771  -2.079  0.00  0.00    -0.022 A 
HETATM   16  C   UNK     0     -10.279   2.478  -2.683  0.00  0.00     0.029 A 
HETATM   17  C   UNK     0     -10.185   3.871  -2.847  0.00  0.00     0.088 A 
HETATM   18  N   UNK     0      -9.069   4.526  -2.438  0.00  0.00    -0.375 N 
HETATM   19  C   UNK     0      -8.021   3.889  -1.858  0.00  0.00     0.088 A 
HETATM   20  HN  UNK     0      -9.017   5.536  -2.571  1.00  0.00     0.164 HD
HETATM   21  C   UNK     0      -8.070   2.496  -1.661  0.00  0.00     0.029 A 
ENDBRANCH  13  15
BRANCH  11  22
HETATM   22  N   UNK     0     -10.520  -2.019   0.640  0.00  0.00    -0.327 N 
HETATM   23  C   UNK     0     -11.815  -2.425   0.803  0.00  0.00     0.223 C 
HETATM   24  O   UNK     0     -12.613  -2.536  -0.157  0.00  0.00    -0.273 OA
HETATM   25  H   UNK     0      -9.957  -2.060   1.429  0.00  0.00     0.169 HD
BRANCH  23  26
HETATM   26  C   UNK     0     -12.301  -2.790   2.151  0.00  0.00     0.118 C 
BRANCH  26  27
HETATM   27  C   UNK     0     -11.716  -1.871   3.249  0.00  0.00     0.124 C 
HETATM   28 Cl   UNK     0     -11.062  -2.813   4.585  0.00  0.00    -0.130 Cl
ENDBRANCH  26  27
ENDBRANCH  23  26
ENDBRANCH  11  22
TORSDOF 4
ENDMDL
MODEL 4
REMARK VINA RESULT:      -6.1      8.067     11.868
REMARK  4 active torsions:
REMARK  status: ('A' for Active; 'I' for Inactive)
REMARK    1  A    between atoms: C_11  and  N_14 
REMARK    2  A    between atoms: C_13  and  C_21 
REMARK       I    between atoms: N_14  and  C_15 
REMARK    3  A    between atoms: C_15  and  C_16 
REMARK    4  A    between atoms: C_16  and  C_17 
ROOT
HETATM    1  C   UNK     0      -8.066  -0.557  -1.933  0.00  0.00     0.016 A 
HETATM    2  C   UNK     0      -8.129   0.549  -1.058  0.00  0.00     0.001 A 
HETATM    3  C   UNK     0      -8.380   1.846  -1.559  0.00  0.00     0.001 A 
HETATM    4  C   UNK     0      -8.581   2.055  -2.941  0.00  0.00     0.013 A 
HETATM    5  C   UNK     0      -8.528   0.942  -3.803  0.00  0.00    -0.011 A 
HETATM    6  C   UNK     0      -8.267  -0.338  -3.309  0.00  0.00     0.026 A 
HETATM    7  C   UNK     0      -8.695   0.833  -5.184  0.00  0.00    -0.008 A 
HETATM    8  C   UNK     0      -8.495  -0.502  -5.556  0.00  0.00     0.037 A 
HETATM    9  C   UNK     0      -8.253  -1.235  -4.379  0.00  0.00     0.195 A 
HETATM   10  C   UNK     0      -9.025   1.816  -6.130  0.00  0.00     0.043 A 
HETATM   11  C   UNK     0      -9.136   1.457  -7.495  0.00  0.00     0.036 A 
HETATM   12  C   UNK     0      -8.909   0.108  -7.864  0.00  0.00     0.043 A 
HETATM   13  C   UNK     0      -8.576  -0.896  -6.915  0.00  0.00    -0.009 A 
HETATM   14  O   UNK     0      -8.077  -2.470  -4.272  0.00  0.00    -0.287 OA
ENDROOT
BRANCH  13  15
HETATM   15  C   UNK     0      -8.324  -2.229  -7.344  0.00  0.00    -0.022 A 
HETATM   16  C   UNK     0      -7.021  -2.641  -7.714  0.00  0.00     0.029 A 
HETATM   17  C   UNK     0      -6.806  -3.961  -8.147  0.00  0.00     0.088 A 
HETATM   18  N   UNK     0      -7.849  -4.827  -8.218  0.00  0.00    -0.375 N 
HETATM   19  C   UNK     0      -9.114  -4.474  -7.877  0.00  0.00     0.088 A 
HETATM   20  HN  UNK     0      -7.676  -5.779  -8.541  1.00  0.00     0.164 HD
HETATM   21  C   UNK     0      -9.380  -3.167  -7.427  0.00  0.00     0.029 A 
ENDBRANCH  13  15
BRANCH  11  22
HETATM   22  N   UNK     0      -9.479   2.335  -8.486  0.00  0.00    -0.327 N 
HETATM   23  C   UNK     0     -10.711   2.538  -9.044  0.00  0.00     0.223 C 
HETATM   24  O   UNK     0     -11.744   1.964  -8.624  0.00  0.00    -0.273 OA
HETATM   25  H   UNK     0      -8.763   2.900  -8.818  0.00  0.00     0.169 HD
BRANCH  23  26
HETATM   26  C   UNK     0     -10.860   3.498 -10.158  0.00  0.00     0.118 C 
BRANCH  26  27
HETATM   27  C   UNK     0     -11.750   4.704  -9.773  0.00  0.00     0.124 C 
HETATM   28 Cl   UNK     0     -11.434   5.226  -8.122  0.00  0.00    -0.130 Cl
ENDBRANCH  26  27
ENDBRANCH  23  26
ENDBRANCH  11  22
TORSDOF 4
ENDMDL
MODEL 5
REMARK VINA RESULT:      -6.1     19.183     21.011
REMARK  4 active torsions:
REMARK  status: ('A' for Active; 'I' for Inactive)
REMARK    1  A    between atoms: C_11  and  N_14 
REMARK    2  A    between atoms: C_13  and  C_21 
REMARK       I    between atoms: N_14  and  C_15 
REMARK    3  A    between atoms: C_15  and  C_16 
REMARK    4  A    between atoms: C_16  and  C_17 
ROOT
HETATM    1  C   UNK     0      14.954   3.166  -0.467  0.00  0.00     0.016 A 
HETATM    2  C   UNK     0      15.781   4.306  -0.552  0.00  0.00     0.001 A 
HETATM    3  C   UNK     0      15.556   5.282  -1.549  0.00  0.00     0.001 A 
HETATM    4  C   UNK     0      14.495   5.138  -2.469  0.00  0.00     0.013 A 
HETATM    5  C   UNK     0      13.668   4.002  -2.366  0.00  0.00    -0.011 A 
HETATM    6  C   UNK     0      13.899   3.030  -1.390  0.00  0.00     0.026 A 
HETATM    7  C   UNK     0      12.557   3.596  -3.107  0.00  0.00    -0.008 A 
HETATM    8  C   UNK     0      12.124   2.356  -2.623  0.00  0.00     0.037 A 
HETATM    9  C   UNK     0      12.949   2.017  -1.534  0.00  0.00     0.195 A 
HETATM   10  C   UNK     0      11.893   4.245  -4.160  0.00  0.00     0.043 A 
HETATM   11  C   UNK     0      10.774   3.623  -4.763  0.00  0.00     0.036 A 
HETATM   12  C   UNK     0      10.358   2.357  -4.282  0.00  0.00     0.043 A 
HETATM   13  C   UNK     0      11.021   1.692  -3.216  0.00  0.00    -0.009 A 
HETATM   14  O   UNK     0      12.860   1.012  -0.793  0.00  0.00    -0.287 OA
ENDROOT
BRANCH  13  15
HETATM   15  C   UNK     0      10.583   0.405  -2.795  0.00  0.00    -0.022 A 
HETATM   16  C   UNK     0      11.383  -0.743  -3.008  0.00  0.00     0.029 A 
HETATM   17  C   UNK     0      10.916  -2.003  -2.593  0.00  0.00     0.088 A 
HETATM   18  N   UNK     0       9.700  -2.111  -2.001  0.00  0.00    -0.375 N 
HETATM   19  C   UNK     0       8.899  -1.037  -1.780  0.00  0.00     0.088 A 
HETATM   20  HN  UNK     0       9.375  -3.033  -1.712  1.00  0.00     0.164 HD
HETATM   21  C   UNK     0       9.324   0.246  -2.167  0.00  0.00     0.029 A 
ENDBRANCH  13  15
BRANCH  11  22
HETATM   22  N   UNK     0      10.046   4.186  -5.776  0.00  0.00    -0.327 N 
HETATM   23  C   UNK     0      10.472   4.538  -7.026  0.00  0.00     0.223 C 
HETATM   24  O   UNK     0      11.630   4.291  -7.438  0.00  0.00    -0.273 OA
HETATM   25  H   UNK     0       9.104   4.333  -5.589  0.00  0.00     0.169 HD
BRANCH  23  26
HETATM   26  C   UNK     0       9.534   5.198  -7.958  0.00  0.00     0.118 C 
BRANCH  26  27
HETATM   27  C   UNK     0       8.132   5.393  -7.333  0.00  0.00     0.124 C 
HETATM   28 Cl   UNK     0       6.918   5.691  -8.573  0.00  0.00    -0.130 Cl
ENDBRANCH  26  27
ENDBRANCH  23  26
ENDBRANCH  11  22
TORSDOF 4
ENDMDL
MODEL 6
REMARK VINA RESULT:      -6.0      3.010      6.000
REMARK  4 active torsions:
REMARK  status: ('A' for Active; 'I' for Inactive)
REMARK    1  A    between atoms: C_11  and  N_14 
REMARK    2  A    between atoms: C_13  and  C_21 
REMARK       I    between atoms: N_14  and  C_15 
REMARK    3  A    between atoms: C_15  and  C_16 
REMARK    4  A    between atoms: C_16  and  C_17 
ROOT
HETATM    1  C   UNK     0      -9.781   9.649  -2.744  0.00  0.00     0.016 A 
HETATM    2  C   UNK     0      -9.536  11.037  -2.814  0.00  0.00     0.001 A 
HETATM    3  C   UNK     0      -8.719  11.671  -1.851  0.00  0.00     0.001 A 
HETATM    4  C   UNK     0      -8.127  10.924  -0.810  0.00  0.00     0.013 A 
HETATM    5  C   UNK     0      -8.368   9.537  -0.757  0.00  0.00    -0.011 A 
HETATM    6  C   UNK     0      -9.187   8.913  -1.701  0.00  0.00     0.026 A 
HETATM    7  C   UNK     0      -7.922   8.553   0.127  0.00  0.00    -0.008 A 
HETATM    8  C   UNK     0      -8.495   7.329  -0.238  0.00  0.00     0.037 A 
HETATM    9  C   UNK     0      -9.264   7.553  -1.396  0.00  0.00     0.195 A 
HETATM   10  C   UNK     0      -7.039   8.654   1.213  0.00  0.00     0.043 A 
HETATM   11  C   UNK     0      -6.737   7.499   1.973  0.00  0.00     0.036 A 
HETATM   12  C   UNK     0      -7.340   6.269   1.609  0.00  0.00     0.043 A 
HETATM   13  C   UNK     0      -8.234   6.155   0.511  0.00  0.00    -0.009 A 
HETATM   14  O   UNK     0      -9.896   6.706  -2.068  0.00  0.00    -0.287 OA
ENDROOT
BRANCH  13  15
HETATM   15  C   UNK     0      -8.839   4.903   0.211  0.00  0.00    -0.022 A 
HETATM   16  C   UNK     0      -8.241   4.007  -0.708  0.00  0.00     0.029 A 
HETATM   17  C   UNK     0      -8.870   2.782  -0.995  0.00  0.00     0.088 A 
HETATM   18  N   UNK     0     -10.049   2.473  -0.399  0.00  0.00    -0.375 N 
HETATM   19  C   UNK     0     -10.659   3.303   0.484  0.00  0.00     0.088 A 
HETATM   20  HN  UNK     0     -10.494   1.583  -0.624  1.00  0.00     0.164 HD
HETATM   21  C   UNK     0     -10.066   4.535   0.813  0.00  0.00     0.029 A 
ENDBRANCH  13  15
BRANCH  11  22
HETATM   22  N   UNK     0      -5.869   7.490   3.031  0.00  0.00    -0.327 N 
HETATM   23  C   UNK     0      -6.116   7.850   4.327  0.00  0.00     0.223 C 
HETATM   24  O   UNK     0      -7.259   8.170   4.731  0.00  0.00    -0.273 OA
HETATM   25  H   UNK     0      -4.975   7.165   2.842  0.00  0.00     0.169 HD
BRANCH  23  26
HETATM   26  C   UNK     0      -5.015   7.829   5.313  0.00  0.00     0.118 C 
BRANCH  26  27
HETATM   27  C   UNK     0      -4.010   8.984   5.087  0.00  0.00     0.124 C 
HETATM   28 Cl   UNK     0      -4.750  10.546   5.422  0.00  0.00    -0.130 Cl
ENDBRANCH  26  27
ENDBRANCH  23  26
ENDBRANCH  11  22
TORSDOF 4
ENDMDL
MODEL 7
REMARK VINA RESULT:      -6.0      7.191     10.917
REMARK  4 active torsions:
REMARK  status: ('A' for Active; 'I' for Inactive)
REMARK    1  A    between atoms: C_11  and  N_14 
REMARK    2  A    between atoms: C_13  and  C_21 
REMARK       I    between atoms: N_14  and  C_15 
REMARK    3  A    between atoms: C_15  and  C_16 
REMARK    4  A    between atoms: C_16  and  C_17 
ROOT
HETATM    1  C   UNK     0      -8.667   0.844  -0.913  0.00  0.00     0.016 A 
HETATM    2  C   UNK     0      -8.792   2.135  -0.355  0.00  0.00     0.001 A 
HETATM    3  C   UNK     0      -8.920   3.268  -1.191  0.00  0.00     0.001 A 
HETATM    4  C   UNK     0      -8.934   3.125  -2.595  0.00  0.00     0.013 A 
HETATM    5  C   UNK     0      -8.821   1.831  -3.140  0.00  0.00    -0.011 A 
HETATM    6  C   UNK     0      -8.681   0.713  -2.314  0.00  0.00     0.026 A 
HETATM    7  C   UNK     0      -8.815   1.380  -4.461  0.00  0.00    -0.008 A 
HETATM    8  C   UNK     0      -8.628  -0.007  -4.460  0.00  0.00     0.037 A 
HETATM    9  C   UNK     0      -8.570  -0.424  -3.117  0.00  0.00     0.195 A 
HETATM   10  C   UNK     0      -8.978   2.097  -5.656  0.00  0.00     0.043 A 
HETATM   11  C   UNK     0      -8.931   1.409  -6.891  0.00  0.00     0.036 A 
HETATM   12  C   UNK     0      -8.718   0.008  -6.881  0.00  0.00     0.043 A 
HETATM   13  C   UNK     0      -8.553  -0.729  -5.678  0.00  0.00    -0.009 A 
HETATM   14  O   UNK     0      -8.464  -1.594  -2.685  0.00  0.00    -0.287 OA
ENDROOT
BRANCH  13  15
HETATM   15  C   UNK     0      -8.308  -2.129  -5.726  0.00  0.00    -0.022 A 
HETATM   16  C   UNK     0      -9.378  -3.056  -5.739  0.00  0.00     0.029 A 
HETATM   17  C   UNK     0      -9.104  -4.435  -5.774  0.00  0.00     0.088 A 
HETATM   18  N   UNK     0      -7.817  -4.867  -5.782  0.00  0.00    -0.375 N 
HETATM   19  C   UNK     0      -6.761  -4.015  -5.767  0.00  0.00     0.088 A 
HETATM   20  HN  UNK     0      -7.637  -5.871  -5.801  1.00  0.00     0.164 HD
HETATM   21  C   UNK     0      -6.983  -2.626  -5.743  0.00  0.00     0.029 A 
ENDBRANCH  13  15
BRANCH  11  22
HETATM   22  N   UNK     0      -9.106   2.014  -8.106  0.00  0.00    -0.327 N 
HETATM   23  C   UNK     0     -10.282   2.332  -8.728  0.00  0.00     0.223 C 
HETATM   24  O   UNK     0     -11.398   2.169  -8.182  0.00  0.00    -0.273 OA
HETATM   25  H   UNK     0      -8.294   2.269  -8.573  0.00  0.00     0.169 HD
BRANCH  23  26
HETATM   26  C   UNK     0     -10.254   2.930 -10.079  0.00  0.00     0.118 C 
BRANCH  26  27
HETATM   27  C   UNK     0     -10.551   1.887 -11.183  0.00  0.00     0.124 C 
HETATM   28 Cl   UNK     0      -9.077   1.082 -11.710  0.00  0.00    -0.130 Cl
ENDBRANCH  26  27
ENDBRANCH  23  26
ENDBRANCH  11  22
TORSDOF 4
ENDMDL
MODEL 8
REMARK VINA RESULT:      -5.9      8.083     12.110
REMARK  4 active torsions:
REMARK  status: ('A' for Active; 'I' for Inactive)
REMARK    1  A    between atoms: C_11  and  N_14 
REMARK    2  A    between atoms: C_13  and  C_21 
REMARK       I    between atoms: N_14  and  C_15 
REMARK    3  A    between atoms: C_15  and  C_16 
REMARK    4  A    between atoms: C_16  and  C_17 
ROOT
HETATM    1  C   UNK     0      -8.102   1.233  -2.566  0.00  0.00     0.016 A 
HETATM    2  C   UNK     0      -8.463   1.743  -1.301  0.00  0.00     0.001 A 
HETATM    3  C   UNK     0      -9.103   0.915  -0.351  0.00  0.00     0.001 A 
HETATM    4  C   UNK     0      -9.382  -0.436  -0.648  0.00  0.00     0.013 A 
HETATM    5  C   UNK     0      -9.005  -0.937  -1.910  0.00  0.00    -0.011 A 
HETATM    6  C   UNK     0      -8.386  -0.115  -2.854  0.00  0.00     0.026 A 
HETATM    7  C   UNK     0      -9.135  -2.206  -2.478  0.00  0.00    -0.008 A 
HETATM    8  C   UNK     0      -8.637  -2.164  -3.786  0.00  0.00     0.037 A 
HETATM    9  C   UNK     0      -8.147  -0.863  -4.009  0.00  0.00     0.195 A 
HETATM   10  C   UNK     0      -9.640  -3.392  -1.923  0.00  0.00     0.043 A 
HETATM   11  C   UNK     0      -9.670  -4.568  -2.710  0.00  0.00     0.036 A 
HETATM   12  C   UNK     0      -9.186  -4.510  -4.040  0.00  0.00     0.043 A 
HETATM   13  C   UNK     0      -8.671  -3.316  -4.611  0.00  0.00    -0.009 A 
HETATM   14  O   UNK     0      -7.575  -0.429  -5.034  0.00  0.00    -0.287 OA
ENDROOT
BRANCH  13  15
HETATM   15  C   UNK     0      -8.230  -3.304  -5.964  0.00  0.00    -0.022 A 
HETATM   16  C   UNK     0      -6.944  -3.781  -6.314  0.00  0.00     0.029 A 
HETATM   17  C   UNK     0      -6.530  -3.744  -7.658  0.00  0.00     0.088 A 
HETATM   18  N   UNK     0      -7.361  -3.241  -8.606  0.00  0.00    -0.375 N 
HETATM   19  C   UNK     0      -8.600  -2.771  -8.315  0.00  0.00     0.088 A 
HETATM   20  HN  UNK     0      -7.042  -3.217  -9.575  1.00  0.00     0.164 HD
HETATM   21  C   UNK     0      -9.065  -2.796  -6.987  0.00  0.00     0.029 A 
ENDBRANCH  13  15
BRANCH  11  22
HETATM   22  N   UNK     0     -10.117  -5.778  -2.251  0.00  0.00    -0.327 N 
HETATM   23  C   UNK     0     -11.331  -6.367  -2.473  0.00  0.00     0.223 C 
HETATM   24  O   UNK     0     -12.191  -5.870  -3.238  0.00  0.00    -0.273 OA
HETATM   25  H   UNK     0      -9.485  -6.290  -1.722  0.00  0.00     0.169 HD
BRANCH  23  26
HETATM   26  C   UNK     0     -11.643  -7.660  -1.828  0.00  0.00     0.118 C 
BRANCH  26  27
HETATM   27  C   UNK     0     -11.717  -8.818  -2.852  0.00  0.00     0.124 C 
HETATM   28 Cl   UNK     0     -10.429  -8.695  -4.046  0.00  0.00    -0.130 Cl
ENDBRANCH  26  27
ENDBRANCH  23  26
ENDBRANCH  11  22
TORSDOF 4
ENDMDL
MODEL 9
REMARK VINA RESULT:      -5.8      6.153     10.484
REMARK  4 active torsions:
REMARK  status: ('A' for Active; 'I' for Inactive)
REMARK    1  A    between atoms: C_11  and  N_14 
REMARK    2  A    between atoms: C_13  and  C_21 
REMARK       I    between atoms: N_14  and  C_15 
REMARK    3  A    between atoms: C_15  and  C_16 
REMARK    4  A    between atoms: C_16  and  C_17 
ROOT
HETATM    1  C   UNK     0      -7.854  -3.055  -3.231  0.00  0.00     0.016 A 
HETATM    2  C   UNK     0      -7.646  -4.225  -3.991  0.00  0.00     0.001 A 
HETATM    3  C   UNK     0      -7.765  -4.196  -5.399  0.00  0.00     0.001 A 
HETATM    4  C   UNK     0      -8.083  -2.994  -6.068  0.00  0.00     0.013 A 
HETATM    5  C   UNK     0      -8.275  -1.829  -5.299  0.00  0.00    -0.011 A 
HETATM    6  C   UNK     0      -8.172  -1.861  -3.906  0.00  0.00     0.026 A 
HETATM    7  C   UNK     0      -8.582  -0.518  -5.667  0.00  0.00    -0.008 A 
HETATM    8  C   UNK     0      -8.711   0.254  -4.506  0.00  0.00     0.037 A 
HETATM    9  C   UNK     0      -8.430  -0.582  -3.410  0.00  0.00     0.195 A 
HETATM   10  C   UNK     0      -8.737   0.044  -6.943  0.00  0.00     0.043 A 
HETATM   11  C   UNK     0      -9.054   1.419  -7.062  0.00  0.00     0.036 A 
HETATM   12  C   UNK     0      -9.206   2.187  -5.882  0.00  0.00     0.043 A 
HETATM   13  C   UNK     0      -9.050   1.628  -4.585  0.00  0.00    -0.009 A 
HETATM   14  O   UNK     0      -8.386  -0.265  -2.199  0.00  0.00    -0.287 OA
ENDROOT
BRANCH  13  15
HETATM   15  C   UNK     0      -9.248   2.437  -3.431  0.00  0.00    -0.022 A 
HETATM   16  C   UNK     0     -10.522   2.538  -2.822  0.00  0.00     0.029 A 
HETATM   17  C   UNK     0     -10.690   3.356  -1.691  0.00  0.00     0.088 A 
HETATM   18  N   UNK     0      -9.633   4.051  -1.197  0.00  0.00    -0.375 N 
HETATM   19  C   UNK     0      -8.396   3.985  -1.750  0.00  0.00     0.088 A 
HETATM   20  HN  UNK     0      -9.775   4.644  -0.379  1.00  0.00     0.164 HD
HETATM   21  C   UNK     0      -8.174   3.173  -2.877  0.00  0.00     0.029 A 
ENDBRANCH  13  15
BRANCH  11  22
HETATM   22  N   UNK     0      -9.198   2.064  -8.260  0.00  0.00    -0.327 N 
HETATM   23  C   UNK     0     -10.279   2.057  -9.097  0.00  0.00     0.223 C 
HETATM   24  O   UNK     0     -11.357   1.489  -8.801  0.00  0.00    -0.273 OA
HETATM   25  H   UNK     0      -8.448   2.614  -8.538  0.00  0.00     0.169 HD
BRANCH  23  26
HETATM   26  C   UNK     0     -10.209   2.775 -10.387  0.00  0.00     0.118 C 
BRANCH  26  27
HETATM   27  C   UNK     0      -9.255   2.080 -11.389  0.00  0.00     0.124 C 
HETATM   28 Cl   UNK     0      -9.388   0.327 -11.281  0.00  0.00    -0.130 Cl
ENDBRANCH  26  27
ENDBRANCH  23  26
ENDBRANCH  11  22
TORSDOF 4
ENDMDL
