MODEL 1
REMARK VINA RESULT:      -6.6      0.000      0.000
REMARK  4 active torsions:
REMARK  status: ('A' for Active; 'I' for Inactive)
REMARK    1  A    between atoms: C_11  and  N_14 
REMARK    2  A    between atoms: C_13  and  C_21 
REMARK       I    between atoms: N_14  and  C_15 
REMARK    3  A    between atoms: C_15  and  C_16 
REMARK    4  A    between atoms: C_16  and  C_17 
ROOT
HETATM    1  C   UNK     0      -8.063  11.296  -0.430  0.00  0.00     0.008 A 
HETATM    2  C   UNK     0      -8.651  11.560  -1.685  0.00  0.00     0.001 A 
HETATM    3  C   UNK     0      -9.161  10.505  -2.472  0.00  0.00     0.001 A 
HETATM    4  C   UNK     0      -9.078   9.174  -2.018  0.00  0.00     0.013 A 
HETATM    5  C   UNK     0      -8.483   8.922  -0.766  0.00  0.00    -0.019 A 
HETATM    6  C   UNK     0      -7.985   9.964   0.021  0.00  0.00    -0.043 A 
HETATM    7  C   UNK     0      -8.272   7.730  -0.082  0.00  0.00    -0.016 A 
HETATM    8  C   UNK     0      -7.634   8.004   1.134  0.00  0.00    -0.032 A 
HETATM    9  C   UNK     0      -7.415   9.462   1.282  0.00  0.00     0.080 A 
HETATM   10  C   UNK     0      -8.621   6.419  -0.448  0.00  0.00     0.042 A 
HETATM   11  C   UNK     0      -8.325   5.348   0.427  0.00  0.00     0.036 A 
HETATM   12  C   UNK     0      -7.688   5.629   1.662  0.00  0.00     0.042 A 
HETATM   13  C   UNK     0      -7.321   6.951   2.035  0.00  0.00    -0.016 A 
ENDROOT
BRANCH  13  14
HETATM   14  C   UNK     0      -6.673   7.190   3.278  0.00  0.00    -0.023 A 
HETATM   15  C   UNK     0      -5.284   7.463   3.336  0.00  0.00     0.029 A 
HETATM   16  C   UNK     0      -4.674   7.721   4.576  0.00  0.00     0.088 A 
HETATM   17  N   UNK     0      -5.411   7.688   5.714  0.00  0.00    -0.375 N 
HETATM   18  C   UNK     0      -6.740   7.406   5.710  0.00  0.00     0.088 A 
HETATM   19  HN  UNK     0      -4.952   7.880   6.604  1.00  0.00     0.164 HD
HETATM   20  C   UNK     0      -7.399   7.148   4.492  0.00  0.00     0.029 A 
ENDBRANCH  13  14
BRANCH  11  21
HETATM   21  N   UNK     0      -8.682   4.051   0.165  0.00  0.00    -0.327 N 
HETATM   22  C   UNK     0      -8.307   3.266  -0.890  0.00  0.00     0.223 C 
HETATM   23  O   UNK     0      -7.416   3.611  -1.702  0.00  0.00    -0.273 OA
HETATM   24  H   UNK     0      -9.266   3.631   0.817  0.00  0.00     0.169 HD
BRANCH  22  25
HETATM   25  C   UNK     0      -8.959   1.951  -1.081  0.00  0.00     0.118 C 
BRANCH  25  26
HETATM   26  C   UNK     0      -8.250   1.126  -2.183  0.00  0.00     0.124 C 
HETATM   27 Cl   UNK     0      -7.315  -0.193  -1.489  0.00  0.00    -0.130 Cl
ENDBRANCH  25  26
ENDBRANCH  22  25
ENDBRANCH  11  21
TORSDOF 4
ENDMDL
MODEL 2
REMARK VINA RESULT:      -6.3      1.115      1.510
REMARK  4 active torsions:
REMARK  status: ('A' for Active; 'I' for Inactive)
REMARK    1  A    between atoms: C_11  and  N_14 
REMARK    2  A    between atoms: C_13  and  C_21 
REMARK       I    between atoms: N_14  and  C_15 
REMARK    3  A    between atoms: C_15  and  C_16 
REMARK    4  A    between atoms: C_16  and  C_17 
ROOT
HETATM    1  C   UNK     0      -8.064  11.502  -0.121  0.00  0.00     0.008 A 
HETATM    2  C   UNK     0      -8.664  11.743  -1.375  0.00  0.00     0.001 A 
HETATM    3  C   UNK     0      -9.119  10.668  -2.168  0.00  0.00     0.001 A 
HETATM    4  C   UNK     0      -8.966   9.340  -1.722  0.00  0.00     0.013 A 
HETATM    5  C   UNK     0      -8.359   9.113  -0.471  0.00  0.00    -0.019 A 
HETATM    6  C   UNK     0      -7.917  10.174   0.322  0.00  0.00    -0.043 A 
HETATM    7  C   UNK     0      -8.086   7.929   0.206  0.00  0.00    -0.016 A 
HETATM    8  C   UNK     0      -7.464   8.228   1.424  0.00  0.00    -0.032 A 
HETATM    9  C   UNK     0      -7.321   9.695   1.581  0.00  0.00     0.080 A 
HETATM   10  C   UNK     0      -8.367   6.604  -0.168  0.00  0.00     0.042 A 
HETATM   11  C   UNK     0      -8.016   5.544   0.701  0.00  0.00     0.036 A 
HETATM   12  C   UNK     0      -7.394   5.851   1.937  0.00  0.00     0.042 A 
HETATM   13  C   UNK     0      -7.097   7.187   2.319  0.00  0.00    -0.016 A 
ENDROOT
BRANCH  13  14
HETATM   14  C   UNK     0      -6.462   7.453   3.563  0.00  0.00    -0.023 A 
HETATM   15  C   UNK     0      -7.209   7.508   4.765  0.00  0.00     0.029 A 
HETATM   16  C   UNK     0      -6.553   7.746   5.985  0.00  0.00     0.088 A 
HETATM   17  N   UNK     0      -5.211   7.943   6.006  0.00  0.00    -0.375 N 
HETATM   18  C   UNK     0      -4.457   7.923   4.876  0.00  0.00     0.088 A 
HETATM   19  HN  UNK     0      -4.751   8.111   6.901  1.00  0.00     0.164 HD
HETATM   20  C   UNK     0      -5.066   7.681   3.630  0.00  0.00     0.029 A 
ENDBRANCH  13  14
BRANCH  11  21
HETATM   21  N   UNK     0      -8.304   4.232   0.430  0.00  0.00    -0.327 N 
HETATM   22  C   UNK     0      -9.343   3.478   0.899  0.00  0.00     0.223 C 
HETATM   23  O   UNK     0     -10.297   3.974   1.546  0.00  0.00    -0.273 OA
HETATM   24  H   UNK     0      -7.700   3.783  -0.184  0.00  0.00     0.169 HD
BRANCH  22  25
HETATM   25  C   UNK     0      -9.363   2.024   0.628  0.00  0.00     0.118 C 
BRANCH  25  26
HETATM   26  C   UNK     0      -9.221   1.730  -0.886  0.00  0.00     0.124 C 
HETATM   27 Cl   UNK     0      -8.006   0.492  -1.184  0.00  0.00    -0.130 Cl
ENDBRANCH  25  26
ENDBRANCH  22  25
ENDBRANCH  11  21
TORSDOF 4
ENDMDL
MODEL 3
REMARK VINA RESULT:      -6.3     19.142     20.853
REMARK  4 active torsions:
REMARK  status: ('A' for Active; 'I' for Inactive)
REMARK    1  A    between atoms: C_11  and  N_14 
REMARK    2  A    between atoms: C_13  and  C_21 
REMARK       I    between atoms: N_14  and  C_15 
REMARK    3  A    between atoms: C_15  and  C_16 
REMARK    4  A    between atoms: C_16  and  C_17 
ROOT
HETATM    1  C   UNK     0      14.981   3.156  -0.587  0.00  0.00     0.008 A 
HETATM    2  C   UNK     0      15.765   4.326  -0.664  0.00  0.00     0.001 A 
HETATM    3  C   UNK     0      15.464   5.327  -1.613  0.00  0.00     0.001 A 
HETATM    4  C   UNK     0      14.383   5.164  -2.501  0.00  0.00     0.013 A 
HETATM    5  C   UNK     0      13.611   3.988  -2.418  0.00  0.00    -0.019 A 
HETATM    6  C   UNK     0      13.899   2.999  -1.475  0.00  0.00    -0.043 A 
HETATM    7  C   UNK     0      12.507   3.570  -3.153  0.00  0.00    -0.016 A 
HETATM    8  C   UNK     0      12.094   2.315  -2.691  0.00  0.00    -0.032 A 
HETATM    9  C   UNK     0      12.960   1.869  -1.573  0.00  0.00     0.080 A 
HETATM   10  C   UNK     0      11.827   4.229  -4.192  0.00  0.00     0.042 A 
HETATM   11  C   UNK     0      10.699   3.616  -4.786  0.00  0.00     0.036 A 
HETATM   12  C   UNK     0      10.278   2.350  -4.310  0.00  0.00     0.042 A 
HETATM   13  C   UNK     0      10.966   1.671  -3.267  0.00  0.00    -0.016 A 
ENDROOT
BRANCH  13  14
HETATM   14  C   UNK     0      10.518   0.396  -2.825  0.00  0.00    -0.023 A 
HETATM   15  C   UNK     0      11.348  -0.746  -2.930  0.00  0.00     0.029 A 
HETATM   16  C   UNK     0      10.889  -1.989  -2.461  0.00  0.00     0.088 A 
HETATM   17  N   UNK     0       9.646  -2.095  -1.928  0.00  0.00    -0.375 N 
HETATM   18  C   UNK     0       8.806  -1.033  -1.829  0.00  0.00     0.088 A 
HETATM   19  HN  UNK     0       9.331  -3.005  -1.590  1.00  0.00     0.164 HD
HETATM   20  C   UNK     0       9.222   0.236  -2.278  0.00  0.00     0.029 A 
ENDBRANCH  13  14
BRANCH  11  21
HETATM   21  N   UNK     0       9.954   4.219  -5.766  0.00  0.00    -0.327 N 
HETATM   22  C   UNK     0      10.331   4.546  -7.038  0.00  0.00     0.223 C 
HETATM   23  O   UNK     0      11.419   4.166  -7.536  0.00  0.00    -0.273 OA
HETATM   24  H   UNK     0       9.036   4.431  -5.531  0.00  0.00     0.169 HD
BRANCH  22  25
HETATM   25  C   UNK     0       9.426   5.364  -7.875  0.00  0.00     0.118 C 
BRANCH  25  26
HETATM   26  C   UNK     0       7.998   5.413  -7.278  0.00  0.00     0.124 C 
HETATM   27 Cl   UNK     0       6.792   5.675  -8.534  0.00  0.00    -0.130 Cl
ENDBRANCH  25  26
ENDBRANCH  22  25
ENDBRANCH  11  21
TORSDOF 4
ENDMDL
MODEL 4
REMARK VINA RESULT:      -6.2     12.300     16.374
REMARK  4 active torsions:
REMARK  status: ('A' for Active; 'I' for Inactive)
REMARK    1  A    between atoms: C_11  and  N_14 
REMARK    2  A    between atoms: C_13  and  C_21 
REMARK       I    between atoms: N_14  and  C_15 
REMARK    3  A    between atoms: C_15  and  C_16 
REMARK    4  A    between atoms: C_16  and  C_17 
ROOT
HETATM    1  C   UNK     0       3.381  -1.881  11.860  0.00  0.00     0.008 A 
HETATM    2  C   UNK     0       4.578  -2.060  12.584  0.00  0.00     0.001 A 
HETATM    3  C   UNK     0       5.734  -1.325  12.246  0.00  0.00     0.001 A 
HETATM    4  C   UNK     0       5.710  -0.412  11.173  0.00  0.00     0.013 A 
HETATM    5  C   UNK     0       4.510  -0.247  10.453  0.00  0.00    -0.019 A 
HETATM    6  C   UNK     0       3.360  -0.966  10.790  0.00  0.00    -0.043 A 
HETATM    7  C   UNK     0       4.203   0.569   9.370  0.00  0.00    -0.016 A 
HETATM    8  C   UNK     0       2.865   0.370   9.007  0.00  0.00    -0.032 A 
HETATM    9  C   UNK     0       2.233  -0.627   9.904  0.00  0.00     0.080 A 
HETATM   10  C   UNK     0       5.017   1.492   8.692  0.00  0.00     0.042 A 
HETATM   11  C   UNK     0       4.479   2.241   7.619  0.00  0.00     0.036 A 
HETATM   12  C   UNK     0       3.122   2.043   7.260  0.00  0.00     0.042 A 
HETATM   13  C   UNK     0       2.295   1.103   7.933  0.00  0.00    -0.016 A 
ENDROOT
BRANCH  13  14
HETATM   14  C   UNK     0       0.941   0.927   7.535  0.00  0.00    -0.023 A 
HETATM   15  C   UNK     0      -0.094   1.707   8.105  0.00  0.00     0.029 A 
HETATM   16  C   UNK     0      -1.421   1.530   7.674  0.00  0.00     0.088 A 
HETATM   17  N   UNK     0      -1.708   0.599   6.730  0.00  0.00    -0.375 N 
HETATM   18  C   UNK     0      -0.752  -0.189   6.173  0.00  0.00     0.088 A 
HETATM   19  HN  UNK     0      -2.676   0.486   6.428  1.00  0.00     0.164 HD
HETATM   20  C   UNK     0       0.593  -0.045   6.565  0.00  0.00     0.029 A 
ENDBRANCH  13  14
BRANCH  11  21
HETATM   21  N   UNK     0       5.193   3.196   6.945  0.00  0.00    -0.327 N 
HETATM   22  C   UNK     0       6.498   3.563   7.123  0.00  0.00     0.223 C 
HETATM   23  O   UNK     0       7.282   2.919   7.861  0.00  0.00    -0.273 OA
HETATM   24  H   UNK     0       4.716   3.666   6.241  0.00  0.00     0.169 HD
BRANCH  22  25
HETATM   25  C   UNK     0       7.020   4.751   6.414  0.00  0.00     0.118 C 
BRANCH  25  26
HETATM   26  C   UNK     0       6.189   5.060   5.145  0.00  0.00     0.124 C 
HETATM   27 Cl   UNK     0       7.147   5.932   3.953  0.00  0.00    -0.130 Cl
ENDBRANCH  25  26
ENDBRANCH  22  25
ENDBRANCH  11  21
TORSDOF 4
ENDMDL
MODEL 5
REMARK VINA RESULT:      -6.0      3.233      6.002
REMARK  4 active torsions:
REMARK  status: ('A' for Active; 'I' for Inactive)
REMARK    1  A    between atoms: C_11  and  N_14 
REMARK    2  A    between atoms: C_13  and  C_21 
REMARK       I    between atoms: N_14  and  C_15 
REMARK    3  A    between atoms: C_15  and  C_16 
REMARK    4  A    between atoms: C_16  and  C_17 
ROOT
HETATM    1  C   UNK     0      -9.766   9.660  -2.577  0.00  0.00     0.008 A 
HETATM    2  C   UNK     0      -9.599  11.060  -2.629  0.00  0.00     0.001 A 
HETATM    3  C   UNK     0      -8.780  11.717  -1.687  0.00  0.00     0.001 A 
HETATM    4  C   UNK     0      -8.128  10.984  -0.676  0.00  0.00     0.013 A 
HETATM    5  C   UNK     0      -8.307   9.588  -0.631  0.00  0.00    -0.019 A 
HETATM    6  C   UNK     0      -9.110   8.931  -1.567  0.00  0.00    -0.043 A 
HETATM    7  C   UNK     0      -7.795   8.632   0.240  0.00  0.00    -0.016 A 
HETATM    8  C   UNK     0      -8.273   7.369  -0.130  0.00  0.00    -0.032 A 
HETATM    9  C   UNK     0      -9.146   7.479  -1.323  0.00  0.00     0.080 A 
HETATM   10  C   UNK     0      -6.919   8.795   1.326  0.00  0.00     0.042 A 
HETATM   11  C   UNK     0      -6.506   7.662   2.066  0.00  0.00     0.036 A 
HETATM   12  C   UNK     0      -6.984   6.384   1.684  0.00  0.00     0.042 A 
HETATM   13  C   UNK     0      -7.880   6.211   0.594  0.00  0.00    -0.016 A 
ENDROOT
BRANCH  13  14
HETATM   14  C   UNK     0      -8.345   4.912   0.248  0.00  0.00    -0.023 A 
HETATM   15  C   UNK     0      -7.986   4.312  -0.983  0.00  0.00     0.029 A 
HETATM   16  C   UNK     0      -8.439   3.017  -1.287  0.00  0.00     0.088 A 
HETATM   17  N   UNK     0      -9.235   2.354  -0.411  0.00  0.00    -0.375 N 
HETATM   18  C   UNK     0      -9.625   2.899   0.770  0.00  0.00     0.088 A 
HETATM   19  HN  UNK     0      -9.552   1.414  -0.648  1.00  0.00     0.164 HD
HETATM   20  C   UNK     0      -9.191   4.191   1.125  0.00  0.00     0.029 A 
ENDBRANCH  13  14
BRANCH  11  21
HETATM   21  N   UNK     0      -5.613   7.735   3.103  0.00  0.00    -0.327 N 
HETATM   22  C   UNK     0      -5.873   7.789   4.444  0.00  0.00     0.223 C 
HETATM   23  O   UNK     0      -7.022   7.608   4.914  0.00  0.00    -0.273 OA
HETATM   24  H   UNK     0      -4.674   7.736   2.855  0.00  0.00     0.169 HD
BRANCH  22  25
HETATM   25  C   UNK     0      -4.764   8.053   5.387  0.00  0.00     0.118 C 
BRANCH  25  26
HETATM   26  C   UNK     0      -4.143   9.452   5.149  0.00  0.00     0.124 C 
HETATM   27 Cl   UNK     0      -5.376  10.708   5.170  0.00  0.00    -0.130 Cl
ENDBRANCH  25  26
ENDBRANCH  22  25
ENDBRANCH  11  21
TORSDOF 4
ENDMDL
MODEL 6
REMARK VINA RESULT:      -6.0     20.171     21.592
REMARK  4 active torsions:
REMARK  status: ('A' for Active; 'I' for Inactive)
REMARK    1  A    between atoms: C_11  and  N_14 
REMARK    2  A    between atoms: C_13  and  C_21 
REMARK       I    between atoms: N_14  and  C_15 
REMARK    3  A    between atoms: C_15  and  C_16 
REMARK    4  A    between atoms: C_16  and  C_17 
ROOT
HETATM    1  C   UNK     0      12.318   2.616  -5.831  0.00  0.00     0.008 A 
HETATM    2  C   UNK     0      11.376   3.664  -5.904  0.00  0.00     0.001 A 
HETATM    3  C   UNK     0      10.222   3.646  -5.091  0.00  0.00     0.001 A 
HETATM    4  C   UNK     0       9.992   2.574  -4.206  0.00  0.00     0.013 A 
HETATM    5  C   UNK     0      10.937   1.530  -4.148  0.00  0.00    -0.019 A 
HETATM    6  C   UNK     0      12.085   1.549  -4.943  0.00  0.00    -0.043 A 
HETATM    7  C   UNK     0      10.966   0.371  -3.380  0.00  0.00    -0.016 A 
HETATM    8  C   UNK     0      12.123  -0.356  -3.687  0.00  0.00    -0.032 A 
HETATM    9  C   UNK     0      12.923   0.360  -4.709  0.00  0.00     0.080 A 
HETATM   10  C   UNK     0      10.052  -0.080  -2.413  0.00  0.00     0.042 A 
HETATM   11  C   UNK     0      10.300  -1.294  -1.731  0.00  0.00     0.036 A 
HETATM   12  C   UNK     0      11.477  -2.023  -2.037  0.00  0.00     0.042 A 
HETATM   13  C   UNK     0      12.401  -1.580  -3.022  0.00  0.00    -0.016 A 
ENDROOT
BRANCH  13  14
HETATM   14  C   UNK     0      13.564  -2.346  -3.308  0.00  0.00    -0.023 A 
HETATM   15  C   UNK     0      13.522  -3.419  -4.231  0.00  0.00     0.029 A 
HETATM   16  C   UNK     0      14.693  -4.143  -4.515  0.00  0.00     0.088 A 
HETATM   17  N   UNK     0      15.854  -3.826  -3.889  0.00  0.00    -0.375 N 
HETATM   18  C   UNK     0      15.937  -2.821  -2.980  0.00  0.00     0.088 A 
HETATM   19  HN  UNK     0      16.695  -4.361  -4.110  1.00  0.00     0.164 HD
HETATM   20  C   UNK     0      14.794  -2.061  -2.666  0.00  0.00     0.029 A 
ENDBRANCH  13  14
BRANCH  11  21
HETATM   21  N   UNK     0       9.484  -1.772  -0.739  0.00  0.00    -0.327 N 
HETATM   22  C   UNK     0       9.566  -1.549   0.608  0.00  0.00     0.223 C 
HETATM   23  O   UNK     0      10.351  -0.705   1.103  0.00  0.00    -0.273 OA
HETATM   24  H   UNK     0       8.745  -2.330  -1.029  0.00  0.00     0.169 HD
BRANCH  22  25
HETATM   25  C   UNK     0       8.692  -2.315   1.523  0.00  0.00     0.118 C 
BRANCH  25  26
HETATM   26  C   UNK     0       9.459  -3.483   2.190  0.00  0.00     0.124 C 
HETATM   27 Cl   UNK     0       8.449  -4.319   3.364  0.00  0.00    -0.130 Cl
ENDBRANCH  25  26
ENDBRANCH  22  25
ENDBRANCH  11  21
TORSDOF 4
ENDMDL
MODEL 7
REMARK VINA RESULT:      -6.0      6.936     10.789
REMARK  4 active torsions:
REMARK  status: ('A' for Active; 'I' for Inactive)
REMARK    1  A    between atoms: C_11  and  N_14 
REMARK    2  A    between atoms: C_13  and  C_21 
REMARK       I    between atoms: N_14  and  C_15 
REMARK    3  A    between atoms: C_15  and  C_16 
REMARK    4  A    between atoms: C_16  and  C_17 
ROOT
HETATM    1  C   UNK     0      -8.712   0.939  -0.862  0.00  0.00     0.008 A 
HETATM    2  C   UNK     0      -8.904   2.236  -0.341  0.00  0.00     0.001 A 
HETATM    3  C   UNK     0      -9.089   3.334  -1.207  0.00  0.00     0.001 A 
HETATM    4  C   UNK     0      -9.072   3.150  -2.604  0.00  0.00     0.013 A 
HETATM    5  C   UNK     0      -8.873   1.851  -3.113  0.00  0.00    -0.019 A 
HETATM    6  C   UNK     0      -8.699   0.759  -2.259  0.00  0.00    -0.043 A 
HETATM    7  C   UNK     0      -8.813   1.385  -4.422  0.00  0.00    -0.016 A 
HETATM    8  C   UNK     0      -8.593   0.003  -4.409  0.00  0.00    -0.032 A 
HETATM    9  C   UNK     0      -8.513  -0.492  -3.014  0.00  0.00     0.080 A 
HETATM   10  C   UNK     0      -8.958   2.094  -5.626  0.00  0.00     0.042 A 
HETATM   11  C   UNK     0      -8.882   1.400  -6.857  0.00  0.00     0.036 A 
HETATM   12  C   UNK     0      -8.668  -0.001  -6.841  0.00  0.00     0.042 A 
HETATM   13  C   UNK     0      -8.509  -0.723  -5.627  0.00  0.00    -0.016 A 
ENDROOT
BRANCH  13  14
HETATM   14  C   UNK     0      -8.285  -2.127  -5.654  0.00  0.00    -0.023 A 
HETATM   15  C   UNK     0      -9.363  -3.040  -5.543  0.00  0.00     0.029 A 
HETATM   16  C   UNK     0      -9.115  -4.422  -5.599  0.00  0.00     0.088 A 
HETATM   17  N   UNK     0      -7.846  -4.879  -5.737  0.00  0.00    -0.375 N 
HETATM   18  C   UNK     0      -6.779  -4.043  -5.822  0.00  0.00     0.088 A 
HETATM   19  HN  UNK     0      -7.686  -5.886  -5.778  1.00  0.00     0.164 HD
HETATM   20  C   UNK     0      -6.975  -2.649  -5.780  0.00  0.00     0.029 A 
ENDBRANCH  13  14
BRANCH  11  21
HETATM   21  N   UNK     0      -9.067   2.012  -8.069  0.00  0.00    -0.327 N 
HETATM   22  C   UNK     0     -10.226   2.154  -8.780  0.00  0.00     0.223 C 
HETATM   23  O   UNK     0     -11.348   1.861  -8.302  0.00  0.00    -0.273 OA
HETATM   24  H   UNK     0      -8.275   2.407  -8.470  0.00  0.00     0.169 HD
BRANCH  22  25
HETATM   25  C   UNK     0     -10.169   2.686 -10.159  0.00  0.00     0.118 C 
BRANCH  25  26
HETATM   26  C   UNK     0      -9.403   1.727 -11.103  0.00  0.00     0.124 C 
HETATM   27 Cl   UNK     0      -9.790   0.046 -10.753  0.00  0.00    -0.130 Cl
ENDBRANCH  25  26
ENDBRANCH  22  25
ENDBRANCH  11  21
TORSDOF 4
ENDMDL
MODEL 8
REMARK VINA RESULT:      -5.9      2.058      5.206
REMARK  4 active torsions:
REMARK  status: ('A' for Active; 'I' for Inactive)
REMARK    1  A    between atoms: C_11  and  N_14 
REMARK    2  A    between atoms: C_13  and  C_21 
REMARK       I    between atoms: N_14  and  C_15 
REMARK    3  A    between atoms: C_15  and  C_16 
REMARK    4  A    between atoms: C_16  and  C_17 
ROOT
HETATM    1  C   UNK     0      -6.680   9.571   3.272  0.00  0.00     0.008 A 
HETATM    2  C   UNK     0      -6.061   8.899   4.347  0.00  0.00     0.001 A 
HETATM    3  C   UNK     0      -6.021   7.489   4.380  0.00  0.00     0.001 A 
HETATM    4  C   UNK     0      -6.609   6.735   3.344  0.00  0.00     0.013 A 
HETATM    5  C   UNK     0      -7.229   7.418   2.279  0.00  0.00    -0.019 A 
HETATM    6  C   UNK     0      -7.263   8.815   2.237  0.00  0.00    -0.043 A 
HETATM    7  C   UNK     0      -7.875   6.940   1.145  0.00  0.00    -0.016 A 
HETATM    8  C   UNK     0      -8.330   8.023   0.382  0.00  0.00    -0.032 A 
HETATM    9  C   UNK     0      -7.958   9.301   1.034  0.00  0.00     0.080 A 
HETATM   10  C   UNK     0      -8.074   5.614   0.726  0.00  0.00     0.042 A 
HETATM   11  C   UNK     0      -8.747   5.360  -0.492  0.00  0.00     0.036 A 
HETATM   12  C   UNK     0      -9.198   6.458  -1.266  0.00  0.00     0.042 A 
HETATM   13  C   UNK     0      -9.011   7.803  -0.844  0.00  0.00    -0.016 A 
ENDROOT
BRANCH  13  14
HETATM   14  C   UNK     0      -9.488   8.877  -1.645  0.00  0.00    -0.023 A 
HETATM   15  C   UNK     0      -8.592   9.810  -2.222  0.00  0.00     0.029 A 
HETATM   16  C   UNK     0      -9.089  10.847  -3.030  0.00  0.00     0.088 A 
HETATM   17  N   UNK     0     -10.424  10.964  -3.238  0.00  0.00    -0.375 N 
HETATM   18  C   UNK     0     -11.322  10.108  -2.686  0.00  0.00     0.088 A 
HETATM   19  HN  UNK     0     -10.766  11.722  -3.830  1.00  0.00     0.164 HD
HETATM   20  C   UNK     0     -10.875   9.048  -1.875  0.00  0.00     0.029 A 
ENDBRANCH  13  14
BRANCH  11  21
HETATM   21  N   UNK     0      -8.932   4.097  -0.992  0.00  0.00    -0.327 N 
HETATM   22  C   UNK     0      -8.130   3.399  -1.850  0.00  0.00     0.223 C 
HETATM   23  O   UNK     0      -6.985   3.797  -2.174  0.00  0.00    -0.273 OA
HETATM   24  H   UNK     0      -9.730   3.633  -0.688  0.00  0.00     0.169 HD
BRANCH  22  25
HETATM   25  C   UNK     0      -8.611   2.119  -2.413  0.00  0.00     0.118 C 
BRANCH  25  26
HETATM   26  C   UNK     0      -8.137   0.915  -1.561  0.00  0.00     0.124 C 
HETATM   27 Cl   UNK     0      -8.992   0.847  -0.024  0.00  0.00    -0.130 Cl
ENDBRANCH  25  26
ENDBRANCH  22  25
ENDBRANCH  11  21
TORSDOF 4
ENDMDL
MODEL 9
REMARK VINA RESULT:      -5.9     12.021     14.989
REMARK  4 active torsions:
REMARK  status: ('A' for Active; 'I' for Inactive)
REMARK    1  A    between atoms: C_11  and  N_14 
REMARK    2  A    between atoms: C_13  and  C_21 
REMARK       I    between atoms: N_14  and  C_15 
REMARK    3  A    between atoms: C_15  and  C_16 
REMARK    4  A    between atoms: C_16  and  C_17 
ROOT
HETATM    1  C   UNK     0       0.563  -0.190   6.424  0.00  0.00     0.008 A 
HETATM    2  C   UNK     0      -0.835  -0.204   6.239  0.00  0.00     0.001 A 
HETATM    3  C   UNK     0      -1.656   0.722   6.919  0.00  0.00     0.001 A 
HETATM    4  C   UNK     0      -1.088   1.664   7.799  0.00  0.00     0.013 A 
HETATM    5  C   UNK     0       0.309   1.664   7.980  0.00  0.00    -0.019 A 
HETATM    6  C   UNK     0       1.127   0.756   7.302  0.00  0.00    -0.043 A 
HETATM    7  C   UNK     0       1.125   2.466   8.771  0.00  0.00    -0.016 A 
HETATM    8  C   UNK     0       2.458   2.070   8.609  0.00  0.00    -0.032 A 
HETATM    9  C   UNK     0       2.546   0.946   7.646  0.00  0.00     0.080 A 
HETATM   10  C   UNK     0       0.775   3.537   9.611  0.00  0.00     0.042 A 
HETATM   11  C   UNK     0       1.788   4.234  10.311  0.00  0.00     0.036 A 
HETATM   12  C   UNK     0       3.137   3.836  10.138  0.00  0.00     0.042 A 
HETATM   13  C   UNK     0       3.498   2.747   9.299  0.00  0.00    -0.016 A 
ENDROOT
BRANCH  13  14
HETATM   14  C   UNK     0       4.863   2.372   9.161  0.00  0.00    -0.023 A 
HETATM   15  C   UNK     0       5.513   1.605  10.158  0.00  0.00     0.029 A 
HETATM   16  C   UNK     0       6.856   1.226   9.982  0.00  0.00     0.088 A 
HETATM   17  N   UNK     0       7.530   1.614   8.871  0.00  0.00    -0.375 N 
HETATM   18  C   UNK     0       6.956   2.371   7.901  0.00  0.00     0.088 A 
HETATM   19  HN  UNK     0       8.503   1.328   8.760  1.00  0.00     0.164 HD
HETATM   20  C   UNK     0       5.611   2.769   8.025  0.00  0.00     0.029 A 
ENDBRANCH  13  14
BRANCH  11  21
HETATM   21  N   UNK     0       1.531   5.321  11.106  0.00  0.00    -0.327 N 
HETATM   22  C   UNK     0       0.778   5.379  12.245  0.00  0.00     0.223 C 
HETATM   23  O   UNK     0       0.340   4.350  12.815  0.00  0.00    -0.273 OA
HETATM   24  H   UNK     0       1.946   6.155  10.832  0.00  0.00     0.169 HD
BRANCH  22  25
HETATM   25  C   UNK     0       0.476   6.696  12.848  0.00  0.00     0.118 C 
BRANCH  25  26
HETATM   26  C   UNK     0       0.053   7.725  11.771  0.00  0.00     0.124 C 
HETATM   27 Cl   UNK     0      -1.389   7.192  10.913  0.00  0.00    -0.130 Cl
ENDBRANCH  25  26
ENDBRANCH  22  25
ENDBRANCH  11  21
TORSDOF 4
ENDMDL
