MODEL 1
REMARK VINA RESULT:      -6.7      0.000      0.000
REMARK  2 active torsions:
REMARK  status: ('A' for Active; 'I' for Inactive)
REMARK    1  A    between atoms: C_10  and  C_17 
REMARK    2  A    between atoms: C_12  and  N_14 
ROOT
HETATM    1  C   UNK     0      -3.144  -2.754  -9.144  0.00  0.00     0.013 A 
HETATM    2  C   UNK     0      -3.510  -1.399  -9.284  0.00  0.00     0.001 A 
HETATM    3  C   UNK     0      -4.432  -0.810  -8.391  0.00  0.00     0.001 A 
HETATM    4  C   UNK     0      -5.004  -1.571  -7.350  0.00  0.00     0.008 A 
HETATM    5  C   UNK     0      -4.634  -2.923  -7.217  0.00  0.00    -0.043 A 
HETATM    6  C   UNK     0      -3.719  -3.505  -8.101  0.00  0.00    -0.019 A 
HETATM    7  C   UNK     0      -5.098  -3.889  -6.214  0.00  0.00     0.080 A 
HETATM    8  C   UNK     0      -4.338  -5.096  -6.606  0.00  0.00    -0.032 A 
HETATM    9  C   UNK     0      -3.552  -4.840  -7.738  0.00  0.00    -0.016 A 
HETATM   10  C   UNK     0      -4.363  -6.385  -6.014  0.00  0.00    -0.016 A 
HETATM   11  C   UNK     0      -3.606  -7.412  -6.636  0.00  0.00     0.042 A 
HETATM   12  C   UNK     0      -2.840  -7.158  -7.796  0.00  0.00     0.027 A 
HETATM   13  C   UNK     0      -2.792  -5.858  -8.343  0.00  0.00     0.042 A 
ENDROOT
BRANCH  10  14
HETATM   14  C   UNK     0      -5.147  -6.665  -4.861  0.00  0.00    -0.023 A 
HETATM   15  C   UNK     0      -6.369  -7.364  -4.978  0.00  0.00     0.029 A 
HETATM   16  C   UNK     0      -7.157  -7.595  -3.835  0.00  0.00     0.090 A 
HETATM   17  N   UNK     0      -6.760  -7.153  -2.601  0.00  0.00    -0.371 N 
HETATM   18  C   UNK     0      -5.569  -6.489  -2.464  0.00  0.00     0.090 A 
HETATM   19  C   UNK     0      -7.580  -7.413  -1.444  0.00  0.00     0.154 C 
HETATM   20  C   UNK     0      -4.742  -6.245  -3.575  0.00  0.00     0.029 A 
ENDBRANCH  10  14
BRANCH  12  21
HETATM   21  N   UNK     0      -2.170  -8.162  -8.397  0.00  0.00    -0.399 N 
HETATM   22  H   UNK     0      -1.475  -8.640  -7.916  0.00  0.00     0.156 HD
HETATM   23  H   UNK     0      -2.385  -8.415  -9.309  0.00  0.00     0.156 HD
ENDBRANCH  12  21
TORSDOF 2
ENDMDL
MODEL 2
REMARK VINA RESULT:      -6.5     15.811     17.362
REMARK  2 active torsions:
REMARK  status: ('A' for Active; 'I' for Inactive)
REMARK    1  A    between atoms: C_10  and  C_17 
REMARK    2  A    between atoms: C_12  and  N_14 
ROOT
HETATM    1  C   UNK     0       5.999   0.146   7.347  0.00  0.00     0.013 A 
HETATM    2  C   UNK     0       5.359   1.224   7.996  0.00  0.00     0.001 A 
HETATM    3  C   UNK     0       5.140   2.441   7.315  0.00  0.00     0.001 A 
HETATM    4  C   UNK     0       5.562   2.599   5.979  0.00  0.00     0.008 A 
HETATM    5  C   UNK     0       6.200   1.519   5.338  0.00  0.00    -0.043 A 
HETATM    6  C   UNK     0       6.415   0.312   6.013  0.00  0.00    -0.019 A 
HETATM    7  C   UNK     0       6.712   1.464   3.964  0.00  0.00     0.080 A 
HETATM    8  C   UNK     0       7.238   0.082   3.910  0.00  0.00    -0.032 A 
HETATM    9  C   UNK     0       7.067  -0.561   5.144  0.00  0.00    -0.016 A 
HETATM   10  C   UNK     0       7.878  -0.577   2.830  0.00  0.00    -0.016 A 
HETATM   11  C   UNK     0       8.379  -1.885   3.057  0.00  0.00     0.042 A 
HETATM   12  C   UNK     0       8.234  -2.518   4.313  0.00  0.00     0.027 A 
HETATM   13  C   UNK     0       7.554  -1.863   5.361  0.00  0.00     0.042 A 
ENDROOT
BRANCH  10  14
HETATM   14  C   UNK     0       8.055   0.053   1.567  0.00  0.00    -0.023 A 
HETATM   15  C   UNK     0       8.398   1.421   1.491  0.00  0.00     0.029 A 
HETATM   16  C   UNK     0       8.526   2.043   0.235  0.00  0.00     0.090 A 
HETATM   17  N   UNK     0       8.325   1.343  -0.925  0.00  0.00    -0.371 N 
HETATM   18  C   UNK     0       8.011   0.010  -0.873  0.00  0.00     0.090 A 
HETATM   19  C   UNK     0       8.475   2.001  -2.200  0.00  0.00     0.154 C 
HETATM   20  C   UNK     0       7.883  -0.657   0.358  0.00  0.00     0.029 A 
ENDBRANCH  10  14
BRANCH  12  21
HETATM   21  N   UNK     0       8.764  -3.741   4.519  0.00  0.00    -0.399 N 
HETATM   22  H   UNK     0       9.697  -3.831   4.772  0.00  0.00     0.156 HD
HETATM   23  H   UNK     0       8.213  -4.533   4.423  0.00  0.00     0.156 HD
ENDBRANCH  12  21
TORSDOF 2
ENDMDL
MODEL 3
REMARK VINA RESULT:      -6.4     14.337     16.103
REMARK  2 active torsions:
REMARK  status: ('A' for Active; 'I' for Inactive)
REMARK    1  A    between atoms: C_10  and  C_17 
REMARK    2  A    between atoms: C_12  and  N_14 
ROOT
HETATM    1  C   UNK     0       8.254   1.311   2.410  0.00  0.00     0.013 A 
HETATM    2  C   UNK     0       8.165   0.281   3.370  0.00  0.00     0.001 A 
HETATM    3  C   UNK     0       8.022  -1.064   2.965  0.00  0.00     0.001 A 
HETATM    4  C   UNK     0       7.960  -1.396   1.596  0.00  0.00     0.008 A 
HETATM    5  C   UNK     0       8.048  -0.362   0.644  0.00  0.00    -0.043 A 
HETATM    6  C   UNK     0       8.193   0.971   1.046  0.00  0.00    -0.019 A 
HETATM    7  C   UNK     0       8.010  -0.479  -0.819  0.00  0.00     0.080 A 
HETATM    8  C   UNK     0       8.163   0.936  -1.224  0.00  0.00    -0.032 A 
HETATM    9  C   UNK     0       8.244   1.766  -0.097  0.00  0.00    -0.016 A 
HETATM   10  C   UNK     0       8.192   1.481  -2.532  0.00  0.00    -0.016 A 
HETATM   11  C   UNK     0       8.256   2.893  -2.659  0.00  0.00     0.042 A 
HETATM   12  C   UNK     0       8.304   3.729  -1.521  0.00  0.00     0.027 A 
HETATM   13  C   UNK     0       8.321   3.165  -0.227  0.00  0.00     0.042 A 
ENDROOT
BRANCH  10  14
HETATM   14  C   UNK     0       8.118   0.656  -3.689  0.00  0.00    -0.023 A 
HETATM   15  C   UNK     0       8.895  -0.519  -3.782  0.00  0.00     0.029 A 
HETATM   16  C   UNK     0       8.846  -1.302  -4.951  0.00  0.00     0.090 A 
HETATM   17  N   UNK     0       8.053  -0.944  -6.009  0.00  0.00    -0.371 N 
HETATM   18  C   UNK     0       7.278   0.183  -5.932  0.00  0.00     0.090 A 
HETATM   19  C   UNK     0       8.012  -1.770  -7.191  0.00  0.00     0.154 C 
HETATM   20  C   UNK     0       7.285   0.990  -4.780  0.00  0.00     0.029 A 
ENDBRANCH  10  14
BRANCH  12  21
HETATM   21  N   UNK     0       8.314   5.070  -1.667  0.00  0.00    -0.399 N 
HETATM   22  H   UNK     0       7.883   5.479  -2.436  0.00  0.00     0.156 HD
HETATM   23  H   UNK     0       8.743   5.630  -1.001  0.00  0.00     0.156 HD
ENDBRANCH  12  21
TORSDOF 2
ENDMDL
MODEL 4
REMARK VINA RESULT:      -6.4     16.222     18.305
REMARK  2 active torsions:
REMARK  status: ('A' for Active; 'I' for Inactive)
REMARK    1  A    between atoms: C_10  and  C_17 
REMARK    2  A    between atoms: C_12  and  N_14 
ROOT
HETATM    1  C   UNK     0       5.860  -0.566   9.462  0.00  0.00     0.013 A 
HETATM    2  C   UNK     0       6.061  -1.693  10.286  0.00  0.00     0.001 A 
HETATM    3  C   UNK     0       6.621  -2.877   9.756  0.00  0.00     0.001 A 
HETATM    4  C   UNK     0       6.981  -2.950   8.394  0.00  0.00     0.008 A 
HETATM    5  C   UNK     0       6.775  -1.821   7.578  0.00  0.00    -0.043 A 
HETATM    6  C   UNK     0       6.223  -0.648   8.104  0.00  0.00    -0.019 A 
HETATM    7  C   UNK     0       7.078  -1.677   6.149  0.00  0.00     0.080 A 
HETATM    8  C   UNK     0       6.651  -0.281   5.906  0.00  0.00    -0.032 A 
HETATM    9  C   UNK     0       6.131   0.289   7.076  0.00  0.00    -0.016 A 
HETATM   10  C   UNK     0       6.684   0.453   4.693  0.00  0.00    -0.016 A 
HETATM   11  C   UNK     0       6.128   1.759   4.695  0.00  0.00     0.042 A 
HETATM   12  C   UNK     0       5.573   2.317   5.870  0.00  0.00     0.027 A 
HETATM   13  C   UNK     0       5.592   1.588   7.078  0.00  0.00     0.042 A 
ENDROOT
BRANCH  10  14
HETATM   14  C   UNK     0       7.214  -0.102   3.496  0.00  0.00    -0.023 A 
HETATM   15  C   UNK     0       8.373   0.448   2.903  0.00  0.00     0.029 A 
HETATM   16  C   UNK     0       8.860  -0.083   1.694  0.00  0.00     0.090 A 
HETATM   17  N   UNK     0       8.231  -1.130   1.076  0.00  0.00    -0.371 N 
HETATM   18  C   UNK     0       7.117  -1.689   1.644  0.00  0.00     0.090 A 
HETATM   19  C   UNK     0       8.759  -1.663  -0.156  0.00  0.00     0.154 C 
HETATM   20  C   UNK     0       6.599  -1.201   2.857  0.00  0.00     0.029 A 
ENDBRANCH  10  14
BRANCH  12  21
HETATM   21  N   UNK     0       5.005   3.540   5.834  0.00  0.00    -0.399 N 
HETATM   22  H   UNK     0       5.381   4.235   5.269  0.00  0.00     0.156 HD
HETATM   23  H   UNK     0       4.215   3.726   6.365  0.00  0.00     0.156 HD
ENDBRANCH  12  21
TORSDOF 2
ENDMDL
MODEL 5
REMARK VINA RESULT:      -6.3      2.809      6.938
REMARK  2 active torsions:
REMARK  status: ('A' for Active; 'I' for Inactive)
REMARK    1  A    between atoms: C_10  and  C_17 
REMARK    2  A    between atoms: C_12  and  N_14 
ROOT
HETATM    1  C   UNK     0      -5.822  -4.790  -4.557  0.00  0.00     0.013 A 
HETATM    2  C   UNK     0      -5.997  -5.945  -3.766  0.00  0.00     0.001 A 
HETATM    3  C   UNK     0      -5.312  -7.139  -4.081  0.00  0.00     0.001 A 
HETATM    4  C   UNK     0      -4.449  -7.195  -5.195  0.00  0.00     0.008 A 
HETATM    5  C   UNK     0      -4.281  -6.038  -5.981  0.00  0.00    -0.043 A 
HETATM    6  C   UNK     0      -4.957  -4.855  -5.666  0.00  0.00    -0.019 A 
HETATM    7  C   UNK     0      -3.437  -5.873  -7.170  0.00  0.00     0.080 A 
HETATM    8  C   UNK     0      -3.688  -4.454  -7.505  0.00  0.00    -0.032 A 
HETATM    9  C   UNK     0      -4.609  -3.890  -6.610  0.00  0.00    -0.016 A 
HETATM   10  C   UNK     0      -3.158  -3.693  -8.578  0.00  0.00    -0.016 A 
HETATM   11  C   UNK     0      -3.628  -2.364  -8.741  0.00  0.00     0.042 A 
HETATM   12  C   UNK     0      -4.582  -1.810  -7.856  0.00  0.00     0.027 A 
HETATM   13  C   UNK     0      -5.063  -2.568  -6.767  0.00  0.00     0.042 A 
ENDROOT
BRANCH  10  14
HETATM   14  C   UNK     0      -2.218  -4.242  -9.493  0.00  0.00    -0.023 A 
HETATM   15  C   UNK     0      -2.652  -4.824 -10.704  0.00  0.00     0.029 A 
HETATM   16  C   UNK     0      -1.715  -5.404 -11.579  0.00  0.00     0.090 A 
HETATM   17  N   UNK     0      -0.379  -5.415 -11.278  0.00  0.00    -0.371 N 
HETATM   18  C   UNK     0       0.065  -4.839 -10.117  0.00  0.00     0.090 A 
HETATM   19  C   UNK     0       0.563  -6.005 -12.198  0.00  0.00     0.154 C 
HETATM   20  C   UNK     0      -0.833  -4.237  -9.217  0.00  0.00     0.029 A 
ENDBRANCH  10  14
BRANCH  12  21
HETATM   21  N   UNK     0      -5.051  -0.562  -8.062  0.00  0.00    -0.399 N 
HETATM   22  H   UNK     0      -4.453   0.138  -8.372  0.00  0.00     0.156 HD
HETATM   23  H   UNK     0      -5.987  -0.362  -7.909  0.00  0.00     0.156 HD
ENDBRANCH  12  21
TORSDOF 2
ENDMDL
MODEL 6
REMARK VINA RESULT:      -6.3     14.921     16.022
REMARK  2 active torsions:
REMARK  status: ('A' for Active; 'I' for Inactive)
REMARK    1  A    between atoms: C_10  and  C_17 
REMARK    2  A    between atoms: C_12  and  N_14 
ROOT
HETATM    1  C   UNK     0       7.330   1.747  -5.572  0.00  0.00     0.013 A 
HETATM    2  C   UNK     0       7.306   0.687  -6.503  0.00  0.00     0.001 A 
HETATM    3  C   UNK     0       7.720  -0.609  -6.123  0.00  0.00     0.001 A 
HETATM    4  C   UNK     0       8.169  -0.860  -4.810  0.00  0.00     0.008 A 
HETATM    5  C   UNK     0       8.191   0.204  -3.887  0.00  0.00    -0.043 A 
HETATM    6  C   UNK     0       7.778   1.487  -4.263  0.00  0.00    -0.019 A 
HETATM    7  C   UNK     0       8.613   0.167  -2.482  0.00  0.00     0.080 A 
HETATM    8  C   UNK     0       8.386   1.573  -2.078  0.00  0.00    -0.032 A 
HETATM    9  C   UNK     0       7.915   2.329  -3.161  0.00  0.00    -0.016 A 
HETATM   10  C   UNK     0       8.618   2.178  -0.816  0.00  0.00    -0.016 A 
HETATM   11  C   UNK     0       8.406   3.576  -0.705  0.00  0.00     0.042 A 
HETATM   12  C   UNK     0       7.963   4.341  -1.808  0.00  0.00     0.027 A 
HETATM   13  C   UNK     0       7.693   3.713  -3.042  0.00  0.00     0.042 A 
ENDROOT
BRANCH  10  14
HETATM   14  C   UNK     0       9.088   1.429   0.298  0.00  0.00    -0.023 A 
HETATM   15  C   UNK     0      10.425   0.975   0.344  0.00  0.00     0.029 A 
HETATM   16  C   UNK     0      10.864   0.196   1.431  0.00  0.00     0.090 A 
HETATM   17  N   UNK     0      10.015  -0.132   2.454  0.00  0.00    -0.371 N 
HETATM   18  C   UNK     0       8.720   0.314   2.438  0.00  0.00     0.090 A 
HETATM   19  C   UNK     0      10.494  -0.921   3.563  0.00  0.00     0.154 C 
HETATM   20  C   UNK     0       8.239   1.104   1.378  0.00  0.00     0.029 A 
ENDBRANCH  10  14
BRANCH  12  21
HETATM   21  N   UNK     0       7.817   5.676  -1.690  0.00  0.00    -0.399 N 
HETATM   22  H   UNK     0       7.188   6.043  -1.047  0.00  0.00     0.156 HD
HETATM   23  H   UNK     0       8.346   6.275  -2.240  0.00  0.00     0.156 HD
ENDBRANCH  12  21
TORSDOF 2
ENDMDL
MODEL 7
REMARK VINA RESULT:      -6.2      2.418      6.622
REMARK  2 active torsions:
REMARK  status: ('A' for Active; 'I' for Inactive)
REMARK    1  A    between atoms: C_10  and  C_17 
REMARK    2  A    between atoms: C_12  and  N_14 
ROOT
HETATM    1  C   UNK     0      -2.576  -8.842  -7.760  0.00  0.00     0.013 A 
HETATM    2  C   UNK     0      -1.714  -9.556  -8.619  0.00  0.00     0.001 A 
HETATM    3  C   UNK     0      -0.968  -8.879  -9.609  0.00  0.00     0.001 A 
HETATM    4  C   UNK     0      -1.080  -7.481  -9.756  0.00  0.00     0.008 A 
HETATM    5  C   UNK     0      -1.943  -6.776  -8.895  0.00  0.00    -0.043 A 
HETATM    6  C   UNK     0      -2.679  -7.447  -7.913  0.00  0.00    -0.019 A 
HETATM    7  C   UNK     0      -2.205  -5.332  -8.869  0.00  0.00     0.080 A 
HETATM    8  C   UNK     0      -3.169  -5.237  -7.751  0.00  0.00    -0.032 A 
HETATM    9  C   UNK     0      -3.444  -6.507  -7.225  0.00  0.00    -0.016 A 
HETATM   10  C   UNK     0      -3.812  -4.082  -7.235  0.00  0.00    -0.016 A 
HETATM   11  C   UNK     0      -4.774  -4.265  -6.208  0.00  0.00     0.042 A 
HETATM   12  C   UNK     0      -5.073  -5.551  -5.703  0.00  0.00     0.027 A 
HETATM   13  C   UNK     0      -4.389  -6.682  -6.197  0.00  0.00     0.042 A 
ENDROOT
BRANCH  10  14
HETATM   14  C   UNK     0      -3.543  -2.783  -7.748  0.00  0.00    -0.023 A 
HETATM   15  C   UNK     0      -2.947  -1.799  -6.930  0.00  0.00     0.029 A 
HETATM   16  C   UNK     0      -2.728  -0.504  -7.438  0.00  0.00     0.090 A 
HETATM   17  N   UNK     0      -3.083  -0.177  -8.719  0.00  0.00    -0.371 N 
HETATM   18  C   UNK     0      -3.646  -1.123  -9.534  0.00  0.00     0.090 A 
HETATM   19  C   UNK     0      -2.836   1.154  -9.218  0.00  0.00     0.154 C 
HETATM   20  C   UNK     0      -3.874  -2.433  -9.076  0.00  0.00     0.029 A 
ENDBRANCH  10  14
BRANCH  12  21
HETATM   21  N   UNK     0      -6.028  -5.703  -4.763  0.00  0.00    -0.399 N 
HETATM   22  H   UNK     0      -6.303  -6.593  -4.487  0.00  0.00     0.156 HD
HETATM   23  H   UNK     0      -6.437  -4.924  -4.354  0.00  0.00     0.156 HD
ENDBRANCH  12  21
TORSDOF 2
ENDMDL
MODEL 8
REMARK VINA RESULT:      -6.2      1.650      2.446
REMARK  2 active torsions:
REMARK  status: ('A' for Active; 'I' for Inactive)
REMARK    1  A    between atoms: C_10  and  C_17 
REMARK    2  A    between atoms: C_12  and  N_14 
ROOT
HETATM    1  C   UNK     0      -2.320  -5.147  -7.777  0.00  0.00     0.013 A 
HETATM    2  C   UNK     0      -2.323  -3.964  -8.545  0.00  0.00     0.001 A 
HETATM    3  C   UNK     0      -3.339  -2.999  -8.369  0.00  0.00     0.001 A 
HETATM    4  C   UNK     0      -4.368  -3.207  -7.428  0.00  0.00     0.008 A 
HETATM    5  C   UNK     0      -4.358  -4.391  -6.665  0.00  0.00    -0.043 A 
HETATM    6  C   UNK     0      -3.349  -5.346  -6.838  0.00  0.00    -0.019 A 
HETATM    7  C   UNK     0      -5.319  -4.806  -5.636  0.00  0.00     0.080 A 
HETATM    8  C   UNK     0      -4.747  -6.106  -5.219  0.00  0.00    -0.032 A 
HETATM    9  C   UNK     0      -3.599  -6.404  -5.965  0.00  0.00    -0.016 A 
HETATM   10  C   UNK     0      -5.237  -7.014  -4.246  0.00  0.00    -0.016 A 
HETATM   11  C   UNK     0      -4.555  -8.249  -4.092  0.00  0.00     0.042 A 
HETATM   12  C   UNK     0      -3.417  -8.560  -4.870  0.00  0.00     0.027 A 
HETATM   13  C   UNK     0      -2.918  -7.624  -5.800  0.00  0.00     0.042 A 
ENDROOT
BRANCH  10  14
HETATM   14  C   UNK     0      -6.396  -6.729  -3.472  0.00  0.00    -0.023 A 
HETATM   15  C   UNK     0      -7.657  -7.235  -3.858  0.00  0.00     0.029 A 
HETATM   16  C   UNK     0      -8.803  -6.908  -3.108  0.00  0.00     0.090 A 
HETATM   17  N   UNK     0      -8.719  -6.103  -2.003  0.00  0.00    -0.371 N 
HETATM   18  C   UNK     0      -7.503  -5.618  -1.602  0.00  0.00     0.090 A 
HETATM   19  C   UNK     0      -9.907  -5.793  -1.245  0.00  0.00     0.154 C 
HETATM   20  C   UNK     0      -6.329  -5.926  -2.312  0.00  0.00     0.029 A 
ENDBRANCH  10  14
BRANCH  12  21
HETATM   21  N   UNK     0      -2.817  -9.760  -4.740  0.00  0.00    -0.399 N 
HETATM   22  H   UNK     0      -2.942 -10.283  -3.930  0.00  0.00     0.156 HD
HETATM   23  H   UNK     0      -2.264 -10.109  -5.457  0.00  0.00     0.156 HD
ENDBRANCH  12  21
TORSDOF 2
ENDMDL
MODEL 9
REMARK VINA RESULT:      -6.2      3.235      5.669
REMARK  2 active torsions:
REMARK  status: ('A' for Active; 'I' for Inactive)
REMARK    1  A    between atoms: C_10  and  C_17 
REMARK    2  A    between atoms: C_12  and  N_14 
ROOT
HETATM    1  C   UNK     0      -0.151   0.388  -9.333  0.00  0.00     0.013 A 
HETATM    2  C   UNK     0       1.219   0.554  -9.626  0.00  0.00     0.001 A 
HETATM    3  C   UNK     0       2.082  -0.562  -9.671  0.00  0.00     0.001 A 
HETATM    4  C   UNK     0       1.589  -1.859  -9.417  0.00  0.00     0.008 A 
HETATM    5  C   UNK     0       0.220  -2.016  -9.125  0.00  0.00    -0.043 A 
HETATM    6  C   UNK     0      -0.636  -0.910  -9.083  0.00  0.00    -0.019 A 
HETATM    7  C   UNK     0      -0.500  -3.262  -8.836  0.00  0.00     0.080 A 
HETATM    8  C   UNK     0      -1.876  -2.757  -8.635  0.00  0.00    -0.032 A 
HETATM    9  C   UNK     0      -1.915  -1.362  -8.765  0.00  0.00    -0.016 A 
HETATM   10  C   UNK     0      -3.047  -3.490  -8.312  0.00  0.00    -0.016 A 
HETATM   11  C   UNK     0      -4.240  -2.759  -8.078  0.00  0.00     0.042 A 
HETATM   12  C   UNK     0      -4.268  -1.349  -8.177  0.00  0.00     0.027 A 
HETATM   13  C   UNK     0      -3.104  -0.642  -8.545  0.00  0.00     0.042 A 
ENDROOT
BRANCH  10  14
HETATM   14  C   UNK     0      -3.032  -4.906  -8.182  0.00  0.00    -0.023 A 
HETATM   15  C   UNK     0      -2.722  -5.509  -6.943  0.00  0.00     0.029 A 
HETATM   16  C   UNK     0      -2.667  -6.912  -6.841  0.00  0.00     0.090 A 
HETATM   17  N   UNK     0      -2.911  -7.711  -7.926  0.00  0.00    -0.371 N 
HETATM   18  C   UNK     0      -3.231  -7.146  -9.132  0.00  0.00     0.090 A 
HETATM   19  C   UNK     0      -2.860  -9.146  -7.791  0.00  0.00     0.154 C 
HETATM   20  C   UNK     0      -3.310  -5.749  -9.281  0.00  0.00     0.029 A 
ENDBRANCH  10  14
BRANCH  12  21
HETATM   21  N   UNK     0      -5.402  -0.674  -7.901  0.00  0.00    -0.399 N 
HETATM   22  H   UNK     0      -5.358   0.216  -7.515  0.00  0.00     0.156 HD
HETATM   23  H   UNK     0      -6.266  -1.072  -8.093  0.00  0.00     0.156 HD
ENDBRANCH  12  21
TORSDOF 2
ENDMDL
