MODEL 1
REMARK VINA RESULT:      -6.6      0.000      0.000
REMARK  4 active torsions:
REMARK  status: ('A' for Active; 'I' for Inactive)
REMARK    1  A    between atoms: C_11  and  N_19 
REMARK    2  A    between atoms: C_13  and  C_14 
REMARK       I    between atoms: N_19  and  C_21 
REMARK    3  A    between atoms: C_21  and  C_22 
REMARK    4  A    between atoms: C_22  and  C_23 
ROOT
HETATM    1  C   UNK     0      -0.984  -7.259  -9.741  0.00  0.00     0.008 A 
HETATM    2  C   UNK     0      -0.940  -8.666  -9.671  0.00  0.00     0.001 A 
HETATM    3  C   UNK     0      -1.743  -9.358  -8.738  0.00  0.00     0.001 A 
HETATM    4  C   UNK     0      -2.602  -8.651  -7.872  0.00  0.00     0.013 A 
HETATM    5  C   UNK     0      -2.644  -7.246  -7.961  0.00  0.00    -0.019 A 
HETATM    6  C   UNK     0      -1.839  -6.560  -8.871  0.00  0.00    -0.043 A 
HETATM    7  C   UNK     0      -3.402  -6.311  -7.269  0.00  0.00    -0.016 A 
HETATM    8  C   UNK     0      -3.070  -5.024  -7.719  0.00  0.00    -0.031 A 
HETATM    9  C   UNK     0      -2.022  -5.108  -8.762  0.00  0.00     0.080 A 
HETATM   10  C   UNK     0      -4.383  -6.520  -6.287  0.00  0.00     0.042 A 
HETATM   11  C   UNK     0      -5.053  -5.406  -5.733  0.00  0.00     0.036 A 
HETATM   12  C   UNK     0      -4.733  -4.112  -6.212  0.00  0.00     0.043 A 
HETATM   13  C   UNK     0      -3.738  -3.883  -7.202  0.00  0.00    -0.009 A 
ENDROOT
BRANCH  13  14
HETATM   14  C   UNK     0      -3.467  -2.549  -7.630  0.00  0.00     0.015 A 
HETATM   15  C   UNK     0      -2.937  -1.471  -6.899  0.00  0.00     0.020 A 
HETATM   16  C   UNK     0      -2.792  -0.257  -7.591  0.00  0.00     0.008 A 
HETATM   17  C   UNK     0      -3.219  -0.279  -8.917  0.00  0.00     0.050 A 
HETATM   18  S   UNK     0      -3.786  -1.904  -9.235  0.00  0.00    -0.101 SA
ENDBRANCH  13  14
BRANCH  11  19
HETATM   19  N   UNK     0      -6.019  -5.483  -4.766  0.00  0.00    -0.327 N 
HETATM   20  C   UNK     0      -5.875  -5.724  -3.429  0.00  0.00     0.223 C 
HETATM   21  O   UNK     0      -4.758  -5.883  -2.883  0.00  0.00    -0.273 OA
HETATM   22  H   UNK     0      -6.925  -5.305  -5.064  0.00  0.00     0.169 HD
BRANCH  20  23
HETATM   23  C   UNK     0      -7.074  -5.751  -2.565  0.00  0.00     0.118 C 
BRANCH  23  24
HETATM   24  C   UNK     0      -8.340  -6.161  -3.350  0.00  0.00     0.124 C 
HETATM   25 Cl   UNK     0      -9.450  -4.801  -3.492  0.00  0.00    -0.130 Cl
ENDBRANCH  23  24
ENDBRANCH  20  23
ENDBRANCH  11  19
TORSDOF 4
ENDMDL
MODEL 2
REMARK VINA RESULT:      -6.4      3.590      6.642
REMARK  4 active torsions:
REMARK  status: ('A' for Active; 'I' for Inactive)
REMARK    1  A    between atoms: C_11  and  N_19 
REMARK    2  A    between atoms: C_13  and  C_14 
REMARK       I    between atoms: N_19  and  C_21 
REMARK    3  A    between atoms: C_21  and  C_22 
REMARK    4  A    between atoms: C_22  and  C_23 
ROOT
HETATM    1  C   UNK     0      -4.912  -1.125  -7.772  0.00  0.00     0.008 A 
HETATM    2  C   UNK     0      -4.316  -0.619  -8.945  0.00  0.00     0.001 A 
HETATM    3  C   UNK     0      -3.474  -1.439  -9.727  0.00  0.00     0.001 A 
HETATM    4  C   UNK     0      -3.224  -2.775  -9.348  0.00  0.00     0.013 A 
HETATM    5  C   UNK     0      -3.835  -3.270  -8.180  0.00  0.00    -0.019 A 
HETATM    6  C   UNK     0      -4.654  -2.456  -7.397  0.00  0.00    -0.043 A 
HETATM    7  C   UNK     0      -3.795  -4.528  -7.593  0.00  0.00    -0.016 A 
HETATM    8  C   UNK     0      -4.570  -4.517  -6.424  0.00  0.00    -0.031 A 
HETATM    9  C   UNK     0      -5.150  -3.170  -6.214  0.00  0.00     0.080 A 
HETATM   10  C   UNK     0      -3.140  -5.689  -8.034  0.00  0.00     0.042 A 
HETATM   11  C   UNK     0      -3.261  -6.878  -7.280  0.00  0.00     0.036 A 
HETATM   12  C   UNK     0      -4.068  -6.867  -6.116  0.00  0.00     0.043 A 
HETATM   13  C   UNK     0      -4.733  -5.698  -5.653  0.00  0.00    -0.009 A 
ENDROOT
BRANCH  13  14
HETATM   14  C   UNK     0      -5.524  -5.763  -4.467  0.00  0.00     0.015 A 
HETATM   15  C   UNK     0      -6.628  -4.979  -4.090  0.00  0.00     0.020 A 
HETATM   16  C   UNK     0      -7.205  -5.268  -2.842  0.00  0.00     0.008 A 
HETATM   17  C   UNK     0      -6.585  -6.291  -2.128  0.00  0.00     0.050 A 
HETATM   18  S   UNK     0      -5.263  -6.867  -3.122  0.00  0.00    -0.101 SA
ENDBRANCH  13  14
BRANCH  11  19
HETATM   19  N   UNK     0      -2.664  -8.066  -7.604  0.00  0.00    -0.327 N 
HETATM   20  C   UNK     0      -3.127  -9.066  -8.411  0.00  0.00     0.223 C 
HETATM   21  O   UNK     0      -4.221  -8.996  -9.021  0.00  0.00    -0.273 OA
HETATM   22  H   UNK     0      -1.773  -8.200  -7.242  0.00  0.00     0.169 HD
BRANCH  20  23
HETATM   23  C   UNK     0      -2.295 -10.268  -8.625  0.00  0.00     0.118 C 
BRANCH  23  24
HETATM   24  C   UNK     0      -0.918  -9.915  -9.231  0.00  0.00     0.124 C 
HETATM   25 Cl   UNK     0      -1.109  -8.894 -10.654  0.00  0.00    -0.130 Cl
ENDBRANCH  23  24
ENDBRANCH  20  23
ENDBRANCH  11  19
TORSDOF 4
ENDMDL
MODEL 3
REMARK VINA RESULT:      -6.4      2.037      5.042
REMARK  4 active torsions:
REMARK  status: ('A' for Active; 'I' for Inactive)
REMARK    1  A    between atoms: C_11  and  N_19 
REMARK    2  A    between atoms: C_13  and  C_14 
REMARK       I    between atoms: N_19  and  C_21 
REMARK    3  A    between atoms: C_21  and  C_22 
REMARK    4  A    between atoms: C_22  and  C_23 
ROOT
HETATM    1  C   UNK     0      -3.276  -2.290  -9.379  0.00  0.00     0.008 A 
HETATM    2  C   UNK     0      -3.882  -1.072  -9.009  0.00  0.00     0.001 A 
HETATM    3  C   UNK     0      -4.731  -1.012  -7.883  0.00  0.00     0.001 A 
HETATM    4  C   UNK     0      -4.977  -2.167  -7.111  0.00  0.00     0.013 A 
HETATM    5  C   UNK     0      -4.357  -3.374  -7.486  0.00  0.00    -0.019 A 
HETATM    6  C   UNK     0      -3.530  -3.439  -8.608  0.00  0.00    -0.043 A 
HETATM    7  C   UNK     0      -4.393  -4.636  -6.907  0.00  0.00    -0.016 A 
HETATM    8  C   UNK     0      -3.607  -5.515  -7.667  0.00  0.00    -0.031 A 
HETATM    9  C   UNK     0      -3.025  -4.800  -8.825  0.00  0.00     0.080 A 
HETATM   10  C   UNK     0      -5.052  -5.054  -5.740  0.00  0.00     0.042 A 
HETATM   11  C   UNK     0      -4.925  -6.398  -5.321  0.00  0.00     0.036 A 
HETATM   12  C   UNK     0      -4.107  -7.273  -6.077  0.00  0.00     0.043 A 
HETATM   13  C   UNK     0      -3.438  -6.866  -7.264  0.00  0.00    -0.009 A 
ENDROOT
BRANCH  13  14
HETATM   14  C   UNK     0      -2.636  -7.807  -7.976  0.00  0.00     0.015 A 
HETATM   15  C   UNK     0      -1.662  -7.578  -8.964  0.00  0.00     0.020 A 
HETATM   16  C   UNK     0      -1.038  -8.716  -9.503  0.00  0.00     0.008 A 
HETATM   17  C   UNK     0      -1.488  -9.932  -8.995  0.00  0.00     0.050 A 
HETATM   18  S   UNK     0      -2.715  -9.556  -7.804  0.00  0.00    -0.101 SA
ENDBRANCH  13  14
BRANCH  11  19
HETATM   19  N   UNK     0      -5.525  -6.924  -4.208  0.00  0.00    -0.327 N 
HETATM   20  C   UNK     0      -5.360  -6.573  -2.899  0.00  0.00     0.223 C 
HETATM   21  O   UNK     0      -4.607  -5.638  -2.535  0.00  0.00    -0.273 OA
HETATM   22  H   UNK     0      -6.187  -7.614  -4.376  0.00  0.00     0.169 HD
BRANCH  20  23
HETATM   23  C   UNK     0      -6.131  -7.282  -1.856  0.00  0.00     0.118 C 
BRANCH  23  24
HETATM   24  C   UNK     0      -7.639  -7.332  -2.189  0.00  0.00     0.124 C 
HETATM   25 Cl   UNK     0      -8.504  -6.049  -1.347  0.00  0.00    -0.130 Cl
ENDBRANCH  23  24
ENDBRANCH  20  23
ENDBRANCH  11  19
TORSDOF 4
ENDMDL
MODEL 4
REMARK VINA RESULT:      -6.3     12.864     13.765
REMARK  4 active torsions:
REMARK  status: ('A' for Active; 'I' for Inactive)
REMARK    1  A    between atoms: C_11  and  N_19 
REMARK    2  A    between atoms: C_13  and  C_14 
REMARK       I    between atoms: N_19  and  C_21 
REMARK    3  A    between atoms: C_21  and  C_22 
REMARK    4  A    between atoms: C_22  and  C_23 
ROOT
HETATM    1  C   UNK     0       8.125  -1.660  -7.152  0.00  0.00     0.008 A 
HETATM    2  C   UNK     0       8.826  -2.852  -6.878  0.00  0.00     0.001 A 
HETATM    3  C   UNK     0       9.338  -3.097  -5.585  0.00  0.00     0.001 A 
HETATM    4  C   UNK     0       9.148  -2.157  -4.551  0.00  0.00     0.013 A 
HETATM    5  C   UNK     0       8.436  -0.975  -4.836  0.00  0.00    -0.019 A 
HETATM    6  C   UNK     0       7.944  -0.724  -6.117  0.00  0.00    -0.043 A 
HETATM    7  C   UNK     0       8.079   0.093  -4.024  0.00  0.00    -0.016 A 
HETATM    8  C   UNK     0       7.376   1.038  -4.786  0.00  0.00    -0.031 A 
HETATM    9  C   UNK     0       7.271   0.578  -6.189  0.00  0.00     0.080 A 
HETATM   10  C   UNK     0       8.311   0.275  -2.651  0.00  0.00     0.042 A 
HETATM   11  C   UNK     0       7.827   1.443  -2.019  0.00  0.00     0.036 A 
HETATM   12  C   UNK     0       7.094   2.379  -2.788  0.00  0.00     0.043 A 
HETATM   13  C   UNK     0       6.856   2.212  -4.180  0.00  0.00    -0.009 A 
ENDROOT
BRANCH  13  14
HETATM   14  C   UNK     0       6.114   3.203  -4.890  0.00  0.00     0.015 A 
HETATM   15  C   UNK     0       4.847   3.104  -5.492  0.00  0.00     0.020 A 
HETATM   16  C   UNK     0       4.370   4.256  -6.140  0.00  0.00     0.008 A 
HETATM   17  C   UNK     0       5.235   5.347  -6.116  0.00  0.00     0.050 A 
HETATM   18  S   UNK     0       6.656   4.843  -5.225  0.00  0.00    -0.101 SA
ENDBRANCH  13  14
BRANCH  11  19
HETATM   19  N   UNK     0       7.997   1.735  -0.692  0.00  0.00    -0.327 N 
HETATM   20  C   UNK     0       8.040   0.882   0.374  0.00  0.00     0.223 C 
HETATM   21  O   UNK     0       7.952  -0.363   0.253  0.00  0.00    -0.273 OA
HETATM   22  H   UNK     0       8.147   2.671  -0.485  0.00  0.00     0.169 HD
BRANCH  20  23
HETATM   23  C   UNK     0       8.247   1.430   1.731  0.00  0.00     0.118 C 
BRANCH  23  24
HETATM   24  C   UNK     0       7.865   0.410   2.828  0.00  0.00     0.124 C 
HETATM   25 Cl   UNK     0       8.464   0.935   4.399  0.00  0.00    -0.130 Cl
ENDBRANCH  23  24
ENDBRANCH  20  23
ENDBRANCH  11  19
TORSDOF 4
ENDMDL
MODEL 5
REMARK VINA RESULT:      -6.3     12.920     14.565
REMARK  4 active torsions:
REMARK  status: ('A' for Active; 'I' for Inactive)
REMARK    1  A    between atoms: C_11  and  N_19 
REMARK    2  A    between atoms: C_13  and  C_14 
REMARK       I    between atoms: N_19  and  C_21 
REMARK    3  A    between atoms: C_21  and  C_22 
REMARK    4  A    between atoms: C_22  and  C_23 
ROOT
HETATM    1  C   UNK     0       5.123   3.355  -5.795  0.00  0.00     0.008 A 
HETATM    2  C   UNK     0       4.737   3.270  -7.148  0.00  0.00     0.001 A 
HETATM    3  C   UNK     0       5.251   2.246  -7.973  0.00  0.00     0.001 A 
HETATM    4  C   UNK     0       6.150   1.292  -7.452  0.00  0.00     0.013 A 
HETATM    5  C   UNK     0       6.518   1.382  -6.095  0.00  0.00    -0.019 A 
HETATM    6  C   UNK     0       6.023   2.403  -5.283  0.00  0.00    -0.043 A 
HETATM    7  C   UNK     0       7.344   0.580  -5.320  0.00  0.00    -0.016 A 
HETATM    8  C   UNK     0       7.397   1.096  -4.016  0.00  0.00    -0.031 A 
HETATM    9  C   UNK     0       6.568   2.319  -3.923  0.00  0.00     0.080 A 
HETATM   10  C   UNK     0       8.033  -0.589  -5.680  0.00  0.00     0.042 A 
HETATM   11  C   UNK     0       8.803  -1.263  -4.706  0.00  0.00     0.036 A 
HETATM   12  C   UNK     0       8.830  -0.753  -3.386  0.00  0.00     0.043 A 
HETATM   13  C   UNK     0       8.143   0.433  -3.006  0.00  0.00    -0.009 A 
ENDROOT
BRANCH  13  14
HETATM   14  C   UNK     0       8.222   0.890  -1.657  0.00  0.00     0.015 A 
HETATM   15  C   UNK     0       8.444   2.190  -1.169  0.00  0.00     0.020 A 
HETATM   16  C   UNK     0       8.485   2.336   0.228  0.00  0.00     0.008 A 
HETATM   17  C   UNK     0       8.319   1.156   0.950  0.00  0.00     0.050 A 
HETATM   18  S   UNK     0       8.095  -0.124  -0.224  0.00  0.00    -0.101 SA
ENDBRANCH  13  14
BRANCH  11  19
HETATM   19  N   UNK     0       9.523  -2.404  -4.940  0.00  0.00    -0.327 N 
HETATM   20  C   UNK     0       9.164  -3.514  -5.650  0.00  0.00     0.223 C 
HETATM   21  O   UNK     0       8.063  -3.616  -6.242  0.00  0.00    -0.273 OA
HETATM   22  H   UNK     0      10.427  -2.409  -4.585  0.00  0.00     0.169 HD
BRANCH  20  23
HETATM   23  C   UNK     0      10.120  -4.633  -5.778  0.00  0.00     0.118 C 
BRANCH  23  24
HETATM   24  C   UNK     0      11.300  -4.500  -4.789  0.00  0.00     0.124 C 
HETATM   25 Cl   UNK     0      11.236  -5.771  -3.572  0.00  0.00    -0.130 Cl
ENDBRANCH  23  24
ENDBRANCH  20  23
ENDBRANCH  11  19
TORSDOF 4
ENDMDL
MODEL 6
REMARK VINA RESULT:      -6.2     13.784     16.046
REMARK  4 active torsions:
REMARK  status: ('A' for Active; 'I' for Inactive)
REMARK    1  A    between atoms: C_11  and  N_19 
REMARK    2  A    between atoms: C_13  and  C_14 
REMARK       I    between atoms: N_19  and  C_21 
REMARK    3  A    between atoms: C_21  and  C_22 
REMARK    4  A    between atoms: C_22  and  C_23 
ROOT
HETATM    1  C   UNK     0       8.312  -1.231   0.558  0.00  0.00     0.008 A 
HETATM    2  C   UNK     0       8.491  -0.989   1.935  0.00  0.00     0.001 A 
HETATM    3  C   UNK     0       8.580   0.334   2.421  0.00  0.00     0.001 A 
HETATM    4  C   UNK     0       8.485   1.428   1.535  0.00  0.00     0.013 A 
HETATM    5  C   UNK     0       8.295   1.172   0.163  0.00  0.00    -0.019 A 
HETATM    6  C   UNK     0       8.223  -0.135  -0.320  0.00  0.00    -0.043 A 
HETATM    7  C   UNK     0       8.140   2.035  -0.913  0.00  0.00    -0.016 A 
HETATM    8  C   UNK     0       7.988   1.285  -2.089  0.00  0.00    -0.031 A 
HETATM    9  C   UNK     0       8.059  -0.161  -1.778  0.00  0.00     0.080 A 
HETATM   10  C   UNK     0       8.098   3.438  -0.921  0.00  0.00     0.042 A 
HETATM   11  C   UNK     0       7.902   4.116  -2.146  0.00  0.00     0.036 A 
HETATM   12  C   UNK     0       7.722   3.351  -3.325  0.00  0.00     0.043 A 
HETATM   13  C   UNK     0       7.767   1.930  -3.334  0.00  0.00    -0.009 A 
ENDROOT
BRANCH  13  14
HETATM   14  C   UNK     0       7.583   1.230  -4.563  0.00  0.00     0.015 A 
HETATM   15  C   UNK     0       8.113  -0.008  -4.970  0.00  0.00     0.020 A 
HETATM   16  C   UNK     0       7.763  -0.446  -6.258  0.00  0.00     0.008 A 
HETATM   17  C   UNK     0       6.946   0.425  -6.976  0.00  0.00     0.050 A 
HETATM   18  S   UNK     0       6.638   1.798  -5.934  0.00  0.00    -0.101 SA
ENDBRANCH  13  14
BRANCH  11  19
HETATM   19  N   UNK     0       7.852   5.477  -2.281  0.00  0.00    -0.327 N 
HETATM   20  C   UNK     0       8.796   6.323  -2.789  0.00  0.00     0.223 C 
HETATM   21  O   UNK     0       9.888   5.921  -3.256  0.00  0.00    -0.273 OA
HETATM   22  H   UNK     0       7.017   5.894  -2.014  0.00  0.00     0.169 HD
BRANCH  20  23
HETATM   23  C   UNK     0       8.515   7.773  -2.845  0.00  0.00     0.118 C 
BRANCH  23  24
HETATM   24  C   UNK     0       8.191   8.242  -4.281  0.00  0.00     0.124 C 
HETATM   25 Cl   UNK     0       7.254   7.020  -5.137  0.00  0.00    -0.130 Cl
ENDBRANCH  23  24
ENDBRANCH  20  23
ENDBRANCH  11  19
TORSDOF 4
ENDMDL
MODEL 7
REMARK VINA RESULT:      -6.2     13.180     14.456
REMARK  4 active torsions:
REMARK  status: ('A' for Active; 'I' for Inactive)
REMARK    1  A    between atoms: C_11  and  N_19 
REMARK    2  A    between atoms: C_13  and  C_14 
REMARK       I    between atoms: N_19  and  C_21 
REMARK    3  A    between atoms: C_21  and  C_22 
REMARK    4  A    between atoms: C_22  and  C_23 
ROOT
HETATM    1  C   UNK     0       6.119   1.848  -8.326  0.00  0.00     0.008 A 
HETATM    2  C   UNK     0       5.312   3.004  -8.333  0.00  0.00     0.001 A 
HETATM    3  C   UNK     0       4.991   3.657  -7.123  0.00  0.00     0.001 A 
HETATM    4  C   UNK     0       5.479   3.164  -5.894  0.00  0.00     0.013 A 
HETATM    5  C   UNK     0       6.294   2.015  -5.903  0.00  0.00    -0.019 A 
HETATM    6  C   UNK     0       6.598   1.360  -7.097  0.00  0.00    -0.043 A 
HETATM    7  C   UNK     0       6.928   1.339  -4.870  0.00  0.00    -0.016 A 
HETATM    8  C   UNK     0       7.622   0.238  -5.395  0.00  0.00    -0.031 A 
HETATM    9  C   UNK     0       7.428   0.173  -6.862  0.00  0.00     0.080 A 
HETATM   10  C   UNK     0       6.954   1.643  -3.499  0.00  0.00     0.042 A 
HETATM   11  C   UNK     0       7.695   0.817  -2.624  0.00  0.00     0.036 A 
HETATM   12  C   UNK     0       8.416  -0.275  -3.165  0.00  0.00     0.043 A 
HETATM   13  C   UNK     0       8.395  -0.599  -4.549  0.00  0.00    -0.009 A 
ENDROOT
BRANCH  13  14
HETATM   14  C   UNK     0       9.142  -1.720  -5.020  0.00  0.00     0.015 A 
HETATM   15  C   UNK     0       8.686  -2.898  -5.638  0.00  0.00     0.020 A 
HETATM   16  C   UNK     0       9.665  -3.844  -5.985  0.00  0.00     0.008 A 
HETATM   17  C   UNK     0      10.970  -3.493  -5.645  0.00  0.00     0.050 A 
HETATM   18  S   UNK     0      10.886  -1.915  -4.891  0.00  0.00    -0.101 SA
ENDBRANCH  13  14
BRANCH  11  19
HETATM   19  N   UNK     0       7.789   1.007  -1.271  0.00  0.00    -0.327 N 
HETATM   20  C   UNK     0       8.493   1.956  -0.586  0.00  0.00     0.223 C 
HETATM   21  O   UNK     0       9.162   2.851  -1.156  0.00  0.00    -0.273 OA
HETATM   22  H   UNK     0       7.251   0.411  -0.727  0.00  0.00     0.169 HD
BRANCH  20  23
HETATM   23  C   UNK     0       8.436   1.974   0.891  0.00  0.00     0.118 C 
BRANCH  23  24
HETATM   24  C   UNK     0       8.378   0.548   1.483  0.00  0.00     0.124 C 
HETATM   25 Cl   UNK     0       7.798   0.590   3.146  0.00  0.00    -0.130 Cl
ENDBRANCH  23  24
ENDBRANCH  20  23
ENDBRANCH  11  19
TORSDOF 4
ENDMDL
MODEL 8
REMARK VINA RESULT:      -6.2      3.669      6.752
REMARK  4 active torsions:
REMARK  status: ('A' for Active; 'I' for Inactive)
REMARK    1  A    between atoms: C_11  and  N_19 
REMARK    2  A    between atoms: C_13  and  C_14 
REMARK       I    between atoms: N_19  and  C_21 
REMARK    3  A    between atoms: C_21  and  C_22 
REMARK    4  A    between atoms: C_22  and  C_23 
ROOT
HETATM    1  C   UNK     0      -5.577  -6.976  -4.487  0.00  0.00     0.008 A 
HETATM    2  C   UNK     0      -6.444  -6.441  -3.513  0.00  0.00     0.001 A 
HETATM    3  C   UNK     0      -6.759  -5.064  -3.519  0.00  0.00     0.001 A 
HETATM    4  C   UNK     0      -6.215  -4.211  -4.501  0.00  0.00     0.013 A 
HETATM    5  C   UNK     0      -5.358  -4.762  -5.474  0.00  0.00    -0.019 A 
HETATM    6  C   UNK     0      -5.034  -6.119  -5.460  0.00  0.00    -0.043 A 
HETATM    7  C   UNK     0      -4.714  -4.179  -6.558  0.00  0.00    -0.016 A 
HETATM    8  C   UNK     0      -3.961  -5.155  -7.227  0.00  0.00    -0.031 A 
HETATM    9  C   UNK     0      -4.102  -6.460  -6.542  0.00  0.00     0.080 A 
HETATM   10  C   UNK     0      -4.769  -2.850  -7.007  0.00  0.00     0.042 A 
HETATM   11  C   UNK     0      -4.042  -2.483  -8.163  0.00  0.00     0.036 A 
HETATM   12  C   UNK     0      -3.307  -3.479  -8.850  0.00  0.00     0.043 A 
HETATM   13  C   UNK     0      -3.237  -4.827  -8.404  0.00  0.00    -0.009 A 
ENDROOT
BRANCH  13  14
HETATM   14  C   UNK     0      -2.469  -5.774  -9.146  0.00  0.00     0.015 A 
HETATM   15  C   UNK     0      -1.088  -6.032  -9.098  0.00  0.00     0.020 A 
HETATM   16  C   UNK     0      -0.606  -7.026  -9.966  0.00  0.00     0.008 A 
HETATM   17  C   UNK     0      -1.570  -7.614 -10.782  0.00  0.00     0.050 A 
HETATM   18  S   UNK     0      -3.097  -6.859 -10.379  0.00  0.00    -0.101 SA
ENDBRANCH  13  14
BRANCH  11  19
HETATM   19  N   UNK     0      -4.011  -1.220  -8.691  0.00  0.00    -0.327 N 
HETATM   20  C   UNK     0      -3.027  -0.277  -8.597  0.00  0.00     0.223 C 
HETATM   21  O   UNK     0      -1.943  -0.481  -8.000  0.00  0.00    -0.273 OA
HETATM   22  H   UNK     0      -4.774  -0.975  -9.238  0.00  0.00     0.169 HD
BRANCH  20  23
HETATM   23  C   UNK     0      -3.210   1.029  -9.265  0.00  0.00     0.118 C 
BRANCH  23  24
HETATM   24  C   UNK     0      -1.860   1.730  -9.538  0.00  0.00     0.124 C 
HETATM   25 Cl   UNK     0      -1.959   3.443  -9.140  0.00  0.00    -0.130 Cl
ENDBRANCH  23  24
ENDBRANCH  20  23
ENDBRANCH  11  19
TORSDOF 4
ENDMDL
MODEL 9
REMARK VINA RESULT:      -6.1     16.150     17.632
REMARK  4 active torsions:
REMARK  status: ('A' for Active; 'I' for Inactive)
REMARK    1  A    between atoms: C_11  and  N_19 
REMARK    2  A    between atoms: C_13  and  C_14 
REMARK       I    between atoms: N_19  and  C_21 
REMARK    3  A    between atoms: C_21  and  C_22 
REMARK    4  A    between atoms: C_22  and  C_23 
ROOT
HETATM    1  C   UNK     0       5.496   2.658   6.049  0.00  0.00     0.008 A 
HETATM    2  C   UNK     0       5.102   2.459   7.388  0.00  0.00     0.001 A 
HETATM    3  C   UNK     0       5.334   1.219   8.023  0.00  0.00     0.001 A 
HETATM    4  C   UNK     0       5.969   0.169   7.328  0.00  0.00     0.013 A 
HETATM    5  C   UNK     0       6.367   0.385   5.994  0.00  0.00    -0.019 A 
HETATM    6  C   UNK     0       6.123   1.604   5.361  0.00  0.00    -0.043 A 
HETATM    7  C   UNK     0       7.026  -0.441   5.093  0.00  0.00    -0.016 A 
HETATM    8  C   UNK     0       7.187   0.238   3.876  0.00  0.00    -0.031 A 
HETATM    9  C   UNK     0       6.590   1.590   3.969  0.00  0.00     0.080 A 
HETATM   10  C   UNK     0       7.515  -1.743   5.283  0.00  0.00     0.042 A 
HETATM   11  C   UNK     0       8.184  -2.390   4.220  0.00  0.00     0.036 A 
HETATM   12  C   UNK     0       8.368  -1.688   3.004  0.00  0.00     0.043 A 
HETATM   13  C   UNK     0       7.874  -0.372   2.794  0.00  0.00    -0.009 A 
ENDROOT
BRANCH  13  14
HETATM   14  C   UNK     0       8.093   0.269   1.538  0.00  0.00     0.015 A 
HETATM   15  C   UNK     0       8.392   1.616   1.266  0.00  0.00     0.020 A 
HETATM   16  C   UNK     0       8.543   1.963  -0.087  0.00  0.00     0.008 A 
HETATM   17  C   UNK     0       8.353   0.919  -0.989  0.00  0.00     0.050 A 
HETATM   18  S   UNK     0       7.996  -0.508  -0.038  0.00  0.00    -0.101 SA
ENDBRANCH  13  14
BRANCH  11  19
HETATM   19  N   UNK     0       8.696  -3.659   4.283  0.00  0.00    -0.327 N 
HETATM   20  C   UNK     0       9.963  -4.056   4.600  0.00  0.00     0.223 C 
HETATM   21  O   UNK     0      10.867  -3.251   4.927  0.00  0.00    -0.273 OA
HETATM   22  H   UNK     0       8.062  -4.375   4.116  0.00  0.00     0.169 HD
BRANCH  20  23
HETATM   23  C   UNK     0      10.288  -5.498   4.613  0.00  0.00     0.118 C 
BRANCH  23  24
HETATM   24  C   UNK     0       9.403  -6.279   5.610  0.00  0.00     0.124 C 
HETATM   25 Cl   UNK     0       9.380  -5.479   7.179  0.00  0.00    -0.130 Cl
ENDBRANCH  23  24
ENDBRANCH  20  23
ENDBRANCH  11  19
TORSDOF 4
ENDMDL
