MODEL 1
REMARK VINA RESULT:      -6.9      0.000      0.000
REMARK  4 active torsions:
REMARK  status: ('A' for Active; 'I' for Inactive)
REMARK    1  A    between atoms: C_11  and  N_14 
REMARK    2  A    between atoms: C_13  and  C_21 
REMARK       I    between atoms: N_14  and  C_15 
REMARK    3  A    between atoms: C_15  and  C_16 
REMARK    4  A    between atoms: C_16  and  C_17 
ROOT
HETATM    1  C   UNK     0      -1.081  -7.025  -9.800  0.00  0.00     0.008 A 
HETATM    2  C   UNK     0      -0.955  -8.428  -9.723  0.00  0.00     0.001 A 
HETATM    3  C   UNK     0      -1.715  -9.163  -8.788  0.00  0.00     0.001 A 
HETATM    4  C   UNK     0      -2.599  -8.503  -7.912  0.00  0.00     0.013 A 
HETATM    5  C   UNK     0      -2.710  -7.101  -7.994  0.00  0.00    -0.019 A 
HETATM    6  C   UNK     0      -1.968  -6.369  -8.924  0.00  0.00    -0.043 A 
HETATM    7  C   UNK     0      -3.489  -6.206  -7.268  0.00  0.00    -0.016 A 
HETATM    8  C   UNK     0      -3.242  -4.905  -7.724  0.00  0.00    -0.032 A 
HETATM    9  C   UNK     0      -2.251  -4.927  -8.826  0.00  0.00     0.080 A 
HETATM   10  C   UNK     0      -4.417  -6.460  -6.245  0.00  0.00     0.042 A 
HETATM   11  C   UNK     0      -5.122  -5.382  -5.658  0.00  0.00     0.036 A 
HETATM   12  C   UNK     0      -4.876  -4.068  -6.129  0.00  0.00     0.042 A 
HETATM   13  C   UNK     0      -3.931  -3.801  -7.156  0.00  0.00    -0.016 A 
ENDROOT
BRANCH  13  14
HETATM   14  C   UNK     0      -3.705  -2.466  -7.592  0.00  0.00    -0.023 A 
HETATM   15  C   UNK     0      -4.323  -1.969  -8.766  0.00  0.00     0.029 A 
HETATM   16  C   UNK     0      -4.103  -0.637  -9.160  0.00  0.00     0.088 A 
HETATM   17  N   UNK     0      -3.285   0.160  -8.428  0.00  0.00    -0.375 N 
HETATM   18  C   UNK     0      -2.653  -0.280  -7.310  0.00  0.00     0.088 A 
HETATM   19  HN  UNK     0      -3.140   1.124  -8.728  1.00  0.00     0.164 HD
HETATM   20  C   UNK     0      -2.846  -1.604  -6.869  0.00  0.00     0.029 A 
ENDBRANCH  13  14
BRANCH  11  21
HETATM   21  N   UNK     0      -6.080  -5.555  -4.694  0.00  0.00    -0.327 N 
HETATM   22  C   UNK     0      -5.908  -5.859  -3.372  0.00  0.00     0.223 C 
HETATM   23  O   UNK     0      -4.780  -5.858  -2.824  0.00  0.00    -0.273 OA
HETATM   24  H   UNK     0      -7.000  -5.435  -4.983  0.00  0.00     0.169 HD
BRANCH  22  25
HETATM   25  C   UNK     0      -7.089  -6.186  -2.545  0.00  0.00     0.118 C 
BRANCH  25  26
HETATM   26  C   UNK     0      -8.360  -6.351  -3.415  0.00  0.00     0.124 C 
HETATM   27 Cl   UNK     0      -9.328  -4.881  -3.411  0.00  0.00    -0.130 Cl
ENDBRANCH  25  26
ENDBRANCH  22  25
ENDBRANCH  11  21
TORSDOF 4
ENDMDL
MODEL 2
REMARK VINA RESULT:      -6.5      3.500      6.592
REMARK  4 active torsions:
REMARK  status: ('A' for Active; 'I' for Inactive)
REMARK    1  A    between atoms: C_11  and  N_14 
REMARK    2  A    between atoms: C_13  and  C_21 
REMARK       I    between atoms: N_14  and  C_15 
REMARK    3  A    between atoms: C_15  and  C_16 
REMARK    4  A    between atoms: C_16  and  C_17 
ROOT
HETATM    1  C   UNK     0      -4.901  -1.155  -7.748  0.00  0.00     0.008 A 
HETATM    2  C   UNK     0      -4.332  -0.647  -8.934  0.00  0.00     0.001 A 
HETATM    3  C   UNK     0      -3.527  -1.470  -9.750  0.00  0.00     0.001 A 
HETATM    4  C   UNK     0      -3.273  -2.806  -9.383  0.00  0.00     0.013 A 
HETATM    5  C   UNK     0      -3.842  -3.300  -8.193  0.00  0.00    -0.019 A 
HETATM    6  C   UNK     0      -4.647  -2.492  -7.386  0.00  0.00    -0.043 A 
HETATM    7  C   UNK     0      -3.762  -4.554  -7.597  0.00  0.00    -0.016 A 
HETATM    8  C   UNK     0      -4.505  -4.550  -6.411  0.00  0.00    -0.032 A 
HETATM    9  C   UNK     0      -5.130  -3.222  -6.202  0.00  0.00     0.080 A 
HETATM   10  C   UNK     0      -3.095  -5.709  -8.040  0.00  0.00     0.042 A 
HETATM   11  C   UNK     0      -3.172  -6.896  -7.274  0.00  0.00     0.036 A 
HETATM   12  C   UNK     0      -3.932  -6.891  -6.078  0.00  0.00     0.042 A 
HETATM   13  C   UNK     0      -4.601  -5.724  -5.618  0.00  0.00    -0.016 A 
ENDROOT
BRANCH  13  14
HETATM   14  C   UNK     0      -5.346  -5.757  -4.406  0.00  0.00    -0.023 A 
HETATM   15  C   UNK     0      -6.572  -5.059  -4.285  0.00  0.00     0.029 A 
HETATM   16  C   UNK     0      -7.300  -5.130  -3.085  0.00  0.00     0.088 A 
HETATM   17  N   UNK     0      -6.817  -5.848  -2.040  0.00  0.00    -0.375 N 
HETATM   18  C   UNK     0      -5.635  -6.513  -2.102  0.00  0.00     0.088 A 
HETATM   19  HN  UNK     0      -7.360  -5.890  -1.178  1.00  0.00     0.164 HD
HETATM   20  C   UNK     0      -4.871  -6.480  -3.285  0.00  0.00     0.029 A 
ENDBRANCH  13  14
BRANCH  11  21
HETATM   21  N   UNK     0      -2.593  -8.075  -7.667  0.00  0.00    -0.327 N 
HETATM   22  C   UNK     0      -3.129  -9.067  -8.440  0.00  0.00     0.223 C 
HETATM   23  O   UNK     0      -4.220  -8.933  -9.044  0.00  0.00    -0.273 OA
HETATM   24  H   UNK     0      -1.680  -8.219  -7.369  0.00  0.00     0.169 HD
BRANCH  22  25
HETATM   25  C   UNK     0      -2.397 -10.344  -8.589  0.00  0.00     0.118 C 
BRANCH  25  26
HETATM   26  C   UNK     0      -0.966 -10.113  -9.132  0.00  0.00     0.124 C 
HETATM   27 Cl   UNK     0      -0.994  -9.187 -10.628  0.00  0.00    -0.130 Cl
ENDBRANCH  25  26
ENDBRANCH  22  25
ENDBRANCH  11  21
TORSDOF 4
ENDMDL
MODEL 3
REMARK VINA RESULT:      -6.5     13.089     13.992
REMARK  4 active torsions:
REMARK  status: ('A' for Active; 'I' for Inactive)
REMARK    1  A    between atoms: C_11  and  N_14 
REMARK    2  A    between atoms: C_13  and  C_21 
REMARK       I    between atoms: N_14  and  C_15 
REMARK    3  A    between atoms: C_15  and  C_16 
REMARK    4  A    between atoms: C_16  and  C_17 
ROOT
HETATM    1  C   UNK     0       9.441  -1.542  -6.934  0.00  0.00     0.008 A 
HETATM    2  C   UNK     0      10.146  -2.738  -6.683  0.00  0.00     0.001 A 
HETATM    3  C   UNK     0      10.345  -3.185  -5.360  0.00  0.00     0.001 A 
HETATM    4  C   UNK     0       9.852  -2.436  -4.273  0.00  0.00     0.013 A 
HETATM    5  C   UNK     0       9.155  -1.241  -4.537  0.00  0.00    -0.019 A 
HETATM    6  C   UNK     0       8.948  -0.798  -5.845  0.00  0.00    -0.043 A 
HETATM    7  C   UNK     0       8.570  -0.319  -3.675  0.00  0.00    -0.016 A 
HETATM    8  C   UNK     0       7.996   0.714  -4.426  0.00  0.00    -0.032 A 
HETATM    9  C   UNK     0       8.196   0.468  -5.874  0.00  0.00     0.080 A 
HETATM   10  C   UNK     0       8.489  -0.338  -2.272  0.00  0.00     0.042 A 
HETATM   11  C   UNK     0       7.815   0.707  -1.598  0.00  0.00     0.036 A 
HETATM   12  C   UNK     0       7.227   1.746  -2.361  0.00  0.00     0.042 A 
HETATM   13  C   UNK     0       7.313   1.779  -3.780  0.00  0.00    -0.016 A 
ENDROOT
BRANCH  13  14
HETATM   14  C   UNK     0       6.719   2.846  -4.509  0.00  0.00    -0.023 A 
HETATM   15  C   UNK     0       5.495   2.666  -5.197  0.00  0.00     0.029 A 
HETATM   16  C   UNK     0       4.917   3.745  -5.888  0.00  0.00     0.088 A 
HETATM   17  N   UNK     0       5.543   4.948  -5.912  0.00  0.00    -0.375 N 
HETATM   18  C   UNK     0       6.730   5.161  -5.287  0.00  0.00     0.088 A 
HETATM   19  HN  UNK     0       5.107   5.720  -6.416  1.00  0.00     0.164 HD
HETATM   20  C   UNK     0       7.346   4.114  -4.575  0.00  0.00     0.029 A 
ENDBRANCH  13  14
BRANCH  11  21
HETATM   21  N   UNK     0       7.649   0.730  -0.238  0.00  0.00    -0.327 N 
HETATM   22  C   UNK     0       8.410   1.374   0.698  0.00  0.00     0.223 C 
HETATM   23  O   UNK     0       9.307   2.193   0.387  0.00  0.00    -0.273 OA
HETATM   24  H   UNK     0       6.886   0.237   0.106  0.00  0.00     0.169 HD
BRANCH  22  25
HETATM   25  C   UNK     0       8.165   1.114   2.134  0.00  0.00     0.118 C 
BRANCH  25  26
HETATM   26  C   UNK     0       8.293  -0.394   2.464  0.00  0.00     0.124 C 
HETATM   27 Cl   UNK     0       6.742  -1.075   2.939  0.00  0.00    -0.130 Cl
ENDBRANCH  25  26
ENDBRANCH  22  25
ENDBRANCH  11  21
TORSDOF 4
ENDMDL
MODEL 4
REMARK VINA RESULT:      -6.4     14.373     15.015
REMARK  4 active torsions:
REMARK  status: ('A' for Active; 'I' for Inactive)
REMARK    1  A    between atoms: C_11  and  N_14 
REMARK    2  A    between atoms: C_13  and  C_21 
REMARK       I    between atoms: N_14  and  C_15 
REMARK    3  A    between atoms: C_15  and  C_16 
REMARK    4  A    between atoms: C_16  and  C_17 
ROOT
HETATM    1  C   UNK     0      10.826  -2.311  -4.098  0.00  0.00     0.008 A 
HETATM    2  C   UNK     0      11.378  -3.596  -3.913  0.00  0.00     0.001 A 
HETATM    3  C   UNK     0      11.325  -4.221  -2.649  0.00  0.00     0.001 A 
HETATM    4  C   UNK     0      10.731  -3.563  -1.553  0.00  0.00     0.013 A 
HETATM    5  C   UNK     0      10.189  -2.278  -1.750  0.00  0.00    -0.019 A 
HETATM    6  C   UNK     0      10.230  -1.659  -3.002  0.00  0.00    -0.043 A 
HETATM    7  C   UNK     0       9.554  -1.413  -0.865  0.00  0.00    -0.016 A 
HETATM    8  C   UNK     0       9.196  -0.241  -1.543  0.00  0.00    -0.032 A 
HETATM    9  C   UNK     0       9.602  -0.327  -2.966  0.00  0.00     0.080 A 
HETATM   10  C   UNK     0       9.250  -1.595   0.495  0.00  0.00     0.042 A 
HETATM   11  C   UNK     0       8.568  -0.576   1.200  0.00  0.00     0.036 A 
HETATM   12  C   UNK     0       8.199   0.605   0.509  0.00  0.00     0.042 A 
HETATM   13  C   UNK     0       8.512   0.802  -0.864  0.00  0.00    -0.016 A 
ENDROOT
BRANCH  13  14
HETATM   14  C   UNK     0       8.134   2.007  -1.518  0.00  0.00    -0.023 A 
HETATM   15  C   UNK     0       7.343   1.981  -2.693  0.00  0.00     0.029 A 
HETATM   16  C   UNK     0       6.963   3.188  -3.305  0.00  0.00     0.088 A 
HETATM   17  N   UNK     0       7.370   4.372  -2.782  0.00  0.00    -0.375 N 
HETATM   18  C   UNK     0       8.150   4.444  -1.672  0.00  0.00     0.088 A 
HETATM   19  HN  UNK     0       7.082   5.237  -3.238  1.00  0.00     0.164 HD
HETATM   20  C   UNK     0       8.552   3.264  -1.018  0.00  0.00     0.029 A 
ENDBRANCH  13  14
BRANCH  11  21
HETATM   21  N   UNK     0       8.190  -0.703   2.511  0.00  0.00    -0.327 N 
HETATM   22  C   UNK     0       7.114  -1.371   3.024  0.00  0.00     0.223 C 
HETATM   23  O   UNK     0       6.393  -2.122   2.323  0.00  0.00    -0.273 OA
HETATM   24  H   UNK     0       8.768  -0.272   3.163  0.00  0.00     0.169 HD
BRANCH  22  25
HETATM   25  C   UNK     0       6.786  -1.224   4.458  0.00  0.00     0.118 C 
BRANCH  25  26
HETATM   26  C   UNK     0       7.166   0.183   4.983  0.00  0.00     0.124 C 
HETATM   27 Cl   UNK     0       5.996   1.392   4.468  0.00  0.00    -0.130 Cl
ENDBRANCH  25  26
ENDBRANCH  22  25
ENDBRANCH  11  21
TORSDOF 4
ENDMDL
MODEL 5
REMARK VINA RESULT:      -6.4     13.501     15.770
REMARK  4 active torsions:
REMARK  status: ('A' for Active; 'I' for Inactive)
REMARK    1  A    between atoms: C_11  and  N_14 
REMARK    2  A    between atoms: C_13  and  C_21 
REMARK       I    between atoms: N_14  and  C_15 
REMARK    3  A    between atoms: C_15  and  C_16 
REMARK    4  A    between atoms: C_16  and  C_17 
ROOT
HETATM    1  C   UNK     0       8.064   1.226   2.337  0.00  0.00     0.008 A 
HETATM    2  C   UNK     0       7.786  -0.002   2.973  0.00  0.00     0.001 A 
HETATM    3  C   UNK     0       7.707  -1.194   2.221  0.00  0.00     0.001 A 
HETATM    4  C   UNK     0       7.893  -1.169   0.825  0.00  0.00     0.013 A 
HETATM    5  C   UNK     0       8.164   0.064   0.201  0.00  0.00    -0.019 A 
HETATM    6  C   UNK     0       8.253   1.246   0.942  0.00  0.00    -0.043 A 
HETATM    7  C   UNK     0       8.387   0.379  -1.135  0.00  0.00    -0.016 A 
HETATM    8  C   UNK     0       8.610   1.756  -1.253  0.00  0.00    -0.032 A 
HETATM    9  C   UNK     0       8.545   2.403   0.079  0.00  0.00     0.080 A 
HETATM   10  C   UNK     0       8.428  -0.469  -2.255  0.00  0.00     0.042 A 
HETATM   11  C   UNK     0       8.700   0.075  -3.532  0.00  0.00     0.036 A 
HETATM   12  C   UNK     0       8.934   1.468  -3.647  0.00  0.00     0.042 A 
HETATM   13  C   UNK     0       8.884   2.335  -2.521  0.00  0.00    -0.016 A 
ENDROOT
BRANCH  13  14
HETATM   14  C   UNK     0       9.114   3.729  -2.680  0.00  0.00    -0.023 A 
HETATM   15  C   UNK     0       8.087   4.671  -2.427  0.00  0.00     0.029 A 
HETATM   16  C   UNK     0       8.350   6.045  -2.567  0.00  0.00     0.088 A 
HETATM   17  N   UNK     0       9.578   6.463  -2.964  0.00  0.00    -0.375 N 
HETATM   18  C   UNK     0      10.585   5.596  -3.241  0.00  0.00     0.088 A 
HETATM   19  HN  UNK     0       9.751   7.464  -3.057  1.00  0.00     0.164 HD
HETATM   20  C   UNK     0      10.375   4.209  -3.109  0.00  0.00     0.029 A 
ENDBRANCH  13  14
BRANCH  11  21
HETATM   21  N   UNK     0       8.808  -0.694  -4.661  0.00  0.00    -0.327 N 
HETATM   22  C   UNK     0       8.014  -0.684  -5.774  0.00  0.00     0.223 C 
HETATM   23  O   UNK     0       7.137   0.192  -5.966  0.00  0.00    -0.273 OA
HETATM   24  H   UNK     0       9.552  -1.319  -4.680  0.00  0.00     0.169 HD
BRANCH  22  25
HETATM   25  C   UNK     0       8.196  -1.731  -6.803  0.00  0.00     0.118 C 
BRANCH  25  26
HETATM   26  C   UNK     0       8.382  -3.127  -6.161  0.00  0.00     0.124 C 
HETATM   27 Cl   UNK     0      10.072  -3.617  -6.182  0.00  0.00    -0.130 Cl
ENDBRANCH  25  26
ENDBRANCH  22  25
ENDBRANCH  11  21
TORSDOF 4
ENDMDL
MODEL 6
REMARK VINA RESULT:      -6.3     12.187     14.709
REMARK  4 active torsions:
REMARK  status: ('A' for Active; 'I' for Inactive)
REMARK    1  A    between atoms: C_11  and  N_14 
REMARK    2  A    between atoms: C_13  and  C_21 
REMARK       I    between atoms: N_14  and  C_15 
REMARK    3  A    between atoms: C_15  and  C_16 
REMARK    4  A    between atoms: C_16  and  C_17 
ROOT
HETATM    1  C   UNK     0       9.989  -0.244  -0.058  0.00  0.00     0.008 A 
HETATM    2  C   UNK     0       9.666   0.494   1.100  0.00  0.00     0.001 A 
HETATM    3  C   UNK     0       8.686   1.509   1.051  0.00  0.00     0.001 A 
HETATM    4  C   UNK     0       8.027   1.805  -0.159  0.00  0.00     0.013 A 
HETATM    5  C   UNK     0       8.363   1.065  -1.310  0.00  0.00    -0.019 A 
HETATM    6  C   UNK     0       9.326   0.053  -1.265  0.00  0.00    -0.043 A 
HETATM    7  C   UNK     0       7.882   1.139  -2.613  0.00  0.00    -0.016 A 
HETATM    8  C   UNK     0       8.538   0.187  -3.402  0.00  0.00    -0.032 A 
HETATM    9  C   UNK     0       9.505  -0.581  -2.582  0.00  0.00     0.080 A 
HETATM   10  C   UNK     0       6.890   1.977  -3.149  0.00  0.00     0.042 A 
HETATM   11  C   UNK     0       6.540   1.861  -4.515  0.00  0.00     0.036 A 
HETATM   12  C   UNK     0       7.199   0.889  -5.308  0.00  0.00     0.042 A 
HETATM   13  C   UNK     0       8.212   0.045  -4.777  0.00  0.00    -0.016 A 
ENDROOT
BRANCH  13  14
HETATM   14  C   UNK     0       8.858  -0.911  -5.610  0.00  0.00    -0.023 A 
HETATM   15  C   UNK     0       9.836  -0.513  -6.554  0.00  0.00     0.029 A 
HETATM   16  C   UNK     0      10.477  -1.481  -7.346  0.00  0.00     0.088 A 
HETATM   17  N   UNK     0      10.142  -2.790  -7.219  0.00  0.00    -0.375 N 
HETATM   18  C   UNK     0       9.193  -3.215  -6.346  0.00  0.00     0.088 A 
HETATM   19  HN  UNK     0      10.620  -3.479  -7.800  1.00  0.00     0.164 HD
HETATM   20  C   UNK     0       8.528  -2.285  -5.524  0.00  0.00     0.029 A 
ENDBRANCH  13  14
BRANCH  11  21
HETATM   21  N   UNK     0       5.547   2.605  -5.096  0.00  0.00    -0.327 N 
HETATM   22  C   UNK     0       5.643   3.834  -5.685  0.00  0.00     0.223 C 
HETATM   23  O   UNK     0       6.746   4.385  -5.916  0.00  0.00    -0.273 OA
HETATM   24  H   UNK     0       4.663   2.202  -5.101  0.00  0.00     0.169 HD
BRANCH  22  25
HETATM   25  C   UNK     0       4.408   4.544  -6.085  0.00  0.00     0.118 C 
BRANCH  25  26
HETATM   26  C   UNK     0       3.268   3.550  -6.415  0.00  0.00     0.124 C 
HETATM   27 Cl   UNK     0       1.700   4.203  -5.952  0.00  0.00    -0.130 Cl
ENDBRANCH  25  26
ENDBRANCH  22  25
ENDBRANCH  11  21
TORSDOF 4
ENDMDL
MODEL 7
REMARK VINA RESULT:      -6.3     14.818     16.118
REMARK  4 active torsions:
REMARK  status: ('A' for Active; 'I' for Inactive)
REMARK    1  A    between atoms: C_11  and  N_14 
REMARK    2  A    between atoms: C_13  and  C_21 
REMARK       I    between atoms: N_14  and  C_15 
REMARK    3  A    between atoms: C_15  and  C_16 
REMARK    4  A    between atoms: C_16  and  C_17 
ROOT
HETATM    1  C   UNK     0      12.135  -1.762  -1.768  0.00  0.00     0.008 A 
HETATM    2  C   UNK     0      12.870  -2.782  -1.128  0.00  0.00     0.001 A 
HETATM    3  C   UNK     0      12.679  -3.048   0.244  0.00  0.00     0.001 A 
HETATM    4  C   UNK     0      11.759  -2.289   0.996  0.00  0.00     0.013 A 
HETATM    5  C   UNK     0      11.036  -1.269   0.347  0.00  0.00    -0.019 A 
HETATM    6  C   UNK     0      11.214  -1.008  -1.014  0.00  0.00    -0.043 A 
HETATM    7  C   UNK     0      10.080  -0.382   0.831  0.00  0.00    -0.016 A 
HETATM    8  C   UNK     0       9.654   0.450  -0.211  0.00  0.00    -0.032 A 
HETATM    9  C   UNK     0      10.352   0.095  -1.470  0.00  0.00     0.080 A 
HETATM   10  C   UNK     0       9.544  -0.269   2.125  0.00  0.00     0.042 A 
HETATM   11  C   UNK     0       8.552   0.704   2.387  0.00  0.00     0.036 A 
HETATM   12  C   UNK     0       8.115   1.538   1.328  0.00  0.00     0.042 A 
HETATM   13  C   UNK     0       8.660   1.439   0.019  0.00  0.00    -0.016 A 
ENDROOT
BRANCH  13  14
HETATM   14  C   UNK     0       8.203   2.302  -1.014  0.00  0.00    -0.023 A 
HETATM   15  C   UNK     0       8.483   3.690  -0.982  0.00  0.00     0.029 A 
HETATM   16  C   UNK     0       8.041   4.517  -2.030  0.00  0.00     0.088 A 
HETATM   17  N   UNK     0       7.331   3.987  -3.057  0.00  0.00    -0.375 N 
HETATM   18  C   UNK     0       7.018   2.667  -3.118  0.00  0.00     0.088 A 
HETATM   19  HN  UNK     0       7.021   4.602  -3.810  1.00  0.00     0.164 HD
HETATM   20  C   UNK     0       7.444   1.796  -2.097  0.00  0.00     0.029 A 
ENDBRANCH  13  14
BRANCH  11  21
HETATM   21  N   UNK     0       7.945   0.838   3.608  0.00  0.00    -0.327 N 
HETATM   22  C   UNK     0       6.862   0.162   4.097  0.00  0.00     0.223 C 
HETATM   23  O   UNK     0       6.367  -0.830   3.508  0.00  0.00    -0.273 OA
HETATM   24  H   UNK     0       8.341   1.490   4.210  0.00  0.00     0.169 HD
BRANCH  22  25
HETATM   25  C   UNK     0       6.252   0.596   5.373  0.00  0.00     0.118 C 
BRANCH  25  26
HETATM   26  C   UNK     0       5.966   2.117   5.373  0.00  0.00     0.124 C 
HETATM   27 Cl   UNK     0       5.049   2.593   6.797  0.00  0.00    -0.130 Cl
ENDBRANCH  25  26
ENDBRANCH  22  25
ENDBRANCH  11  21
TORSDOF 4
ENDMDL
MODEL 8
REMARK VINA RESULT:      -6.2      2.245      5.337
REMARK  4 active torsions:
REMARK  status: ('A' for Active; 'I' for Inactive)
REMARK    1  A    between atoms: C_11  and  N_14 
REMARK    2  A    between atoms: C_13  and  C_21 
REMARK       I    between atoms: N_14  and  C_15 
REMARK    3  A    between atoms: C_15  and  C_16 
REMARK    4  A    between atoms: C_16  and  C_17 
ROOT
HETATM    1  C   UNK     0      -3.562  -2.177  -9.631  0.00  0.00     0.008 A 
HETATM    2  C   UNK     0      -4.027  -0.967  -9.075  0.00  0.00     0.001 A 
HETATM    3  C   UNK     0      -4.557  -0.939  -7.767  0.00  0.00     0.001 A 
HETATM    4  C   UNK     0      -4.638  -2.123  -7.006  0.00  0.00     0.013 A 
HETATM    5  C   UNK     0      -4.176  -3.325  -7.575  0.00  0.00    -0.019 A 
HETATM    6  C   UNK     0      -3.641  -3.356  -8.866  0.00  0.00    -0.043 A 
HETATM    7  C   UNK     0      -4.133  -4.618  -7.064  0.00  0.00    -0.016 A 
HETATM    8  C   UNK     0      -3.583  -5.476  -8.023  0.00  0.00    -0.032 A 
HETATM    9  C   UNK     0      -3.224  -4.717  -9.244  0.00  0.00     0.080 A 
HETATM   10  C   UNK     0      -4.529  -5.088  -5.800  0.00  0.00     0.042 A 
HETATM   11  C   UNK     0      -4.370  -6.458  -5.484  0.00  0.00     0.036 A 
HETATM   12  C   UNK     0      -3.804  -7.323  -6.454  0.00  0.00     0.042 A 
HETATM   13  C   UNK     0      -3.412  -6.857  -7.739  0.00  0.00    -0.016 A 
ENDROOT
BRANCH  13  14
HETATM   14  C   UNK     0      -2.858  -7.759  -8.689  0.00  0.00    -0.023 A 
HETATM   15  C   UNK     0      -1.459  -7.829  -8.898  0.00  0.00     0.029 A 
HETATM   16  C   UNK     0      -0.937  -8.748  -9.825  0.00  0.00     0.088 A 
HETATM   17  N   UNK     0      -1.774  -9.550 -10.530  0.00  0.00    -0.375 N 
HETATM   18  C   UNK     0      -3.122  -9.501 -10.380  0.00  0.00     0.088 A 
HETATM   19  HN  UNK     0      -1.376 -10.212 -11.196  1.00  0.00     0.164 HD
HETATM   20  C   UNK     0      -3.695  -8.602  -9.459  0.00  0.00     0.029 A 
ENDBRANCH  13  14
BRANCH  11  21
HETATM   21  N   UNK     0      -4.682  -6.981  -4.256  0.00  0.00    -0.327 N 
HETATM   22  C   UNK     0      -5.906  -7.366  -3.785  0.00  0.00     0.223 C 
HETATM   23  O   UNK     0      -6.919  -7.436  -4.522  0.00  0.00    -0.273 OA
HETATM   24  H   UNK     0      -3.937  -7.105  -3.646  0.00  0.00     0.169 HD
BRANCH  22  25
HETATM   25  C   UNK     0      -6.051  -7.730  -2.359  0.00  0.00     0.118 C 
BRANCH  25  26
HETATM   26  C   UNK     0      -6.949  -6.718  -1.606  0.00  0.00     0.124 C 
HETATM   27 Cl   UNK     0      -6.562  -5.063  -2.061  0.00  0.00    -0.130 Cl
ENDBRANCH  25  26
ENDBRANCH  22  25
ENDBRANCH  11  21
TORSDOF 4
ENDMDL
MODEL 9
REMARK VINA RESULT:      -6.2     12.818     14.627
REMARK  4 active torsions:
REMARK  status: ('A' for Active; 'I' for Inactive)
REMARK    1  A    between atoms: C_11  and  N_14 
REMARK    2  A    between atoms: C_13  and  C_21 
REMARK       I    between atoms: N_14  and  C_15 
REMARK    3  A    between atoms: C_15  and  C_16 
REMARK    4  A    between atoms: C_16  and  C_17 
ROOT
HETATM    1  C   UNK     0       5.004   3.285  -5.725  0.00  0.00     0.008 A 
HETATM    2  C   UNK     0       4.628   3.279  -7.084  0.00  0.00     0.001 A 
HETATM    3  C   UNK     0       5.184   2.337  -7.976  0.00  0.00     0.001 A 
HETATM    4  C   UNK     0       6.132   1.399  -7.521  0.00  0.00     0.013 A 
HETATM    5  C   UNK     0       6.504   1.419  -6.162  0.00  0.00    -0.019 A 
HETATM    6  C   UNK     0       5.949   2.343  -5.274  0.00  0.00    -0.043 A 
HETATM    7  C   UNK     0       7.398   0.625  -5.452  0.00  0.00    -0.016 A 
HETATM    8  C   UNK     0       7.423   1.042  -4.116  0.00  0.00    -0.032 A 
HETATM    9  C   UNK     0       6.485   2.172  -3.913  0.00  0.00     0.080 A 
HETATM   10  C   UNK     0       8.178  -0.455  -5.897  0.00  0.00     0.042 A 
HETATM   11  C   UNK     0       9.009  -1.141  -4.980  0.00  0.00     0.036 A 
HETATM   12  C   UNK     0       9.025  -0.722  -3.627  0.00  0.00     0.042 A 
HETATM   13  C   UNK     0       8.248   0.377  -3.170  0.00  0.00    -0.016 A 
ENDROOT
BRANCH  13  14
HETATM   14  C   UNK     0       8.301   0.773  -1.805  0.00  0.00    -0.023 A 
HETATM   15  C   UNK     0       8.532   2.123  -1.446  0.00  0.00     0.029 A 
HETATM   16  C   UNK     0       8.553   2.491  -0.089  0.00  0.00     0.088 A 
HETATM   17  N   UNK     0       8.373   1.550   0.871  0.00  0.00    -0.375 N 
HETATM   18  C   UNK     0       8.173   0.240   0.575  0.00  0.00     0.088 A 
HETATM   19  HN  UNK     0       8.389   1.837   1.850  1.00  0.00     0.164 HD
HETATM   20  C   UNK     0       8.135  -0.178  -0.769  0.00  0.00     0.029 A 
ENDBRANCH  13  14
BRANCH  11  21
HETATM   21  N   UNK     0       9.757  -2.236  -5.328  0.00  0.00    -0.327 N 
HETATM   22  C   UNK     0       9.322  -3.471  -5.719  0.00  0.00     0.223 C 
HETATM   23  O   UNK     0       8.117  -3.710  -5.972  0.00  0.00    -0.273 OA
HETATM   24  H   UNK     0      10.721  -2.116  -5.305  0.00  0.00     0.169 HD
BRANCH  22  25
HETATM   25  C   UNK     0      10.301  -4.570  -5.869  0.00  0.00     0.118 C 
BRANCH  25  26
HETATM   26  C   UNK     0      11.507  -4.384  -4.916  0.00  0.00     0.124 C 
HETATM   27 Cl   UNK     0      11.082  -4.801  -3.260  0.00  0.00    -0.130 Cl
ENDBRANCH  25  26
ENDBRANCH  22  25
ENDBRANCH  11  21
TORSDOF 4
ENDMDL
