MODEL 1
REMARK VINA RESULT:      -7.1      0.000      0.000
REMARK  4 active torsions:
REMARK  status: ('A' for Active; 'I' for Inactive)
REMARK    1  A    between atoms: C_11  and  N_14 
REMARK    2  A    between atoms: C_13  and  C_21 
REMARK       I    between atoms: N_14  and  C_15 
REMARK    3  A    between atoms: C_15  and  C_16 
REMARK    4  A    between atoms: C_16  and  C_17 
ROOT
HETATM    1  C   UNK     0      -1.153  -7.141  -9.704  0.00  0.00     0.016 A 
HETATM    2  C   UNK     0      -0.968  -8.539  -9.668  0.00  0.00     0.001 A 
HETATM    3  C   UNK     0      -1.667  -9.332  -8.730  0.00  0.00     0.001 A 
HETATM    4  C   UNK     0      -2.569  -8.739  -7.820  0.00  0.00     0.013 A 
HETATM    5  C   UNK     0      -2.756  -7.343  -7.874  0.00  0.00    -0.011 A 
HETATM    6  C   UNK     0      -2.054  -6.558  -8.792  0.00  0.00     0.026 A 
HETATM    7  C   UNK     0      -3.571  -6.490  -7.129  0.00  0.00    -0.008 A 
HETATM    8  C   UNK     0      -3.346  -5.173  -7.551  0.00  0.00     0.037 A 
HETATM    9  C   UNK     0      -2.417  -5.223  -8.608  0.00  0.00     0.195 A 
HETATM   10  C   UNK     0      -4.503  -6.788  -6.124  0.00  0.00     0.043 A 
HETATM   11  C   UNK     0      -5.218  -5.734  -5.505  0.00  0.00     0.036 A 
HETATM   12  C   UNK     0      -4.967  -4.404  -5.923  0.00  0.00     0.043 A 
HETATM   13  C   UNK     0      -4.026  -4.091  -6.940  0.00  0.00    -0.009 A 
HETATM   14  O   UNK     0      -1.990  -4.267  -9.294  0.00  0.00    -0.287 OA
ENDROOT
BRANCH  13  15
HETATM   15  C   UNK     0      -3.787  -2.734  -7.298  0.00  0.00    -0.022 A 
HETATM   16  C   UNK     0      -4.522  -2.115  -8.338  0.00  0.00     0.029 A 
HETATM   17  C   UNK     0      -4.254  -0.777  -8.678  0.00  0.00     0.088 A 
HETATM   18  N   UNK     0      -3.286  -0.094  -8.016  0.00  0.00    -0.375 N 
HETATM   19  C   UNK     0      -2.556  -0.649  -7.016  0.00  0.00     0.088 A 
HETATM   20  HN  UNK     0      -3.101   0.874  -8.280  1.00  0.00     0.164 HD
HETATM   21  C   UNK     0      -2.793  -1.981  -6.631  0.00  0.00     0.029 A 
ENDBRANCH  13  15
BRANCH  11  22
HETATM   22  N   UNK     0      -6.166  -5.925  -4.536  0.00  0.00    -0.327 N 
HETATM   23  C   UNK     0      -5.991  -5.959  -3.180  0.00  0.00     0.223 C 
HETATM   24  O   UNK     0      -4.886  -5.722  -2.638  0.00  0.00    -0.273 OA
HETATM   25  H   UNK     0      -7.078  -6.026  -4.850  0.00  0.00     0.169 HD
BRANCH  23  26
HETATM   26  C   UNK     0      -7.145  -6.245  -2.302  0.00  0.00     0.118 C 
BRANCH  26  27
HETATM   27  C   UNK     0      -8.446  -6.477  -3.108  0.00  0.00     0.124 C 
HETATM   28 Cl   UNK     0      -9.298  -4.963  -3.389  0.00  0.00    -0.130 Cl
ENDBRANCH  26  27
ENDBRANCH  23  26
ENDBRANCH  11  22
TORSDOF 4
ENDMDL
MODEL 2
REMARK VINA RESULT:      -6.7      3.206      6.585
REMARK  4 active torsions:
REMARK  status: ('A' for Active; 'I' for Inactive)
REMARK    1  A    between atoms: C_11  and  N_14 
REMARK    2  A    between atoms: C_13  and  C_21 
REMARK       I    between atoms: N_14  and  C_15 
REMARK    3  A    between atoms: C_15  and  C_16 
REMARK    4  A    between atoms: C_16  and  C_17 
ROOT
HETATM    1  C   UNK     0      -5.065  -1.757  -7.165  0.00  0.00     0.016 A 
HETATM    2  C   UNK     0      -4.470  -1.096  -8.261  0.00  0.00     0.001 A 
HETATM    3  C   UNK     0      -3.585  -1.786  -9.120  0.00  0.00     0.001 A 
HETATM    4  C   UNK     0      -3.289  -3.149  -8.901  0.00  0.00     0.013 A 
HETATM    5  C   UNK     0      -3.899  -3.802  -7.812  0.00  0.00    -0.011 A 
HETATM    6  C   UNK     0      -4.763  -3.116  -6.955  0.00  0.00     0.026 A 
HETATM    7  C   UNK     0      -3.814  -5.118  -7.356  0.00  0.00    -0.008 A 
HETATM    8  C   UNK     0      -4.587  -5.242  -6.196  0.00  0.00     0.037 A 
HETATM    9  C   UNK     0      -5.198  -3.996  -5.962  0.00  0.00     0.195 A 
HETATM   10  C   UNK     0      -3.123  -6.213  -7.897  0.00  0.00     0.043 A 
HETATM   11  C   UNK     0      -3.188  -7.467  -7.244  0.00  0.00     0.036 A 
HETATM   12  C   UNK     0      -3.954  -7.577  -6.057  0.00  0.00     0.043 A 
HETATM   13  C   UNK     0      -4.659  -6.475  -5.501  0.00  0.00    -0.009 A 
HETATM   14  O   UNK     0      -6.009  -3.702  -5.054  0.00  0.00    -0.287 OA
ENDROOT
BRANCH  13  15
HETATM   15  C   UNK     0      -5.385  -6.632  -4.288  0.00  0.00    -0.022 A 
HETATM   16  C   UNK     0      -4.816  -6.262  -3.046  0.00  0.00     0.029 A 
HETATM   17  C   UNK     0      -5.554  -6.441  -1.862  0.00  0.00     0.088 A 
HETATM   18  N   UNK     0      -6.800  -6.977  -1.917  0.00  0.00    -0.375 N 
HETATM   19  C   UNK     0      -7.382  -7.348  -3.085  0.00  0.00     0.088 A 
HETATM   20  HN  UNK     0      -7.318  -7.105  -1.048  1.00  0.00     0.164 HD
HETATM   21  C   UNK     0      -6.690  -7.179  -4.298  0.00  0.00     0.029 A 
ENDBRANCH  13  15
BRANCH  11  22
HETATM   22  N   UNK     0      -2.572  -8.599  -7.707  0.00  0.00    -0.327 N 
HETATM   23  C   UNK     0      -3.115  -9.609  -8.451  0.00  0.00     0.223 C 
HETATM   24  O   UNK     0      -4.289  -9.567  -8.890  0.00  0.00    -0.273 OA
HETATM   25  H   UNK     0      -1.628  -8.682  -7.500  0.00  0.00     0.169 HD
BRANCH  23  26
HETATM   26  C   UNK     0      -2.289 -10.785  -8.798  0.00  0.00     0.118 C 
BRANCH  26  27
HETATM   27  C   UNK     0      -1.707 -11.478  -7.542  0.00  0.00     0.124 C 
HETATM   28 Cl   UNK     0      -2.964 -11.790  -6.349  0.00  0.00    -0.130 Cl
ENDBRANCH  26  27
ENDBRANCH  23  26
ENDBRANCH  11  22
TORSDOF 4
ENDMDL
MODEL 3
REMARK VINA RESULT:      -6.5     12.240     14.815
REMARK  4 active torsions:
REMARK  status: ('A' for Active; 'I' for Inactive)
REMARK    1  A    between atoms: C_11  and  N_14 
REMARK    2  A    between atoms: C_13  and  C_21 
REMARK       I    between atoms: N_14  and  C_15 
REMARK    3  A    between atoms: C_15  and  C_16 
REMARK    4  A    between atoms: C_16  and  C_17 
ROOT
HETATM    1  C   UNK     0       9.847  -0.552   0.164  0.00  0.00     0.016 A 
HETATM    2  C   UNK     0       9.555   0.193   1.326  0.00  0.00     0.001 A 
HETATM    3  C   UNK     0       8.662   1.287   1.272  0.00  0.00     0.001 A 
HETATM    4  C   UNK     0       8.041   1.646   0.057  0.00  0.00     0.013 A 
HETATM    5  C   UNK     0       8.330   0.888  -1.095  0.00  0.00    -0.011 A 
HETATM    6  C   UNK     0       9.223  -0.185  -1.044  0.00  0.00     0.026 A 
HETATM    7  C   UNK     0       7.872   0.991  -2.409  0.00  0.00    -0.008 A 
HETATM    8  C   UNK     0       8.510   0.014  -3.184  0.00  0.00     0.037 A 
HETATM    9  C   UNK     0       9.334  -0.735  -2.322  0.00  0.00     0.195 A 
HETATM   10  C   UNK     0       6.927   1.865  -2.966  0.00  0.00     0.043 A 
HETATM   11  C   UNK     0       6.626   1.776  -4.346  0.00  0.00     0.036 A 
HETATM   12  C   UNK     0       7.294   0.800  -5.126  0.00  0.00     0.043 A 
HETATM   13  C   UNK     0       8.251  -0.092  -4.573  0.00  0.00    -0.009 A 
HETATM   14  O   UNK     0      10.033  -1.732  -2.611  0.00  0.00    -0.287 OA
ENDROOT
BRANCH  13  15
HETATM   15  C   UNK     0       8.919  -1.031  -5.409  0.00  0.00    -0.022 A 
HETATM   16  C   UNK     0       8.432  -2.352  -5.551  0.00  0.00     0.029 A 
HETATM   17  C   UNK     0       9.121  -3.262  -6.374  0.00  0.00     0.088 A 
HETATM   18  N   UNK     0      10.251  -2.870  -7.015  0.00  0.00    -0.375 N 
HETATM   19  C   UNK     0      10.754  -1.615  -6.904  0.00  0.00     0.088 A 
HETATM   20  HN  UNK     0      10.741  -3.545  -7.602  1.00  0.00     0.164 HD
HETATM   21  C   UNK     0      10.096  -0.664  -6.102  0.00  0.00     0.029 A 
ENDBRANCH  13  15
BRANCH  11  22
HETATM   22  N   UNK     0       5.701   2.565  -4.975  0.00  0.00    -0.327 N 
HETATM   23  C   UNK     0       5.817   3.881  -5.330  0.00  0.00     0.223 C 
HETATM   24  O   UNK     0       6.881   4.527  -5.184  0.00  0.00    -0.273 OA
HETATM   25  H   UNK     0       4.869   2.130  -5.220  0.00  0.00     0.169 HD
BRANCH  23  26
HETATM   26  C   UNK     0       4.668   4.574  -5.949  0.00  0.00     0.118 C 
BRANCH  26  27
HETATM   27  C   UNK     0       3.517   3.598  -6.296  0.00  0.00     0.124 C 
HETATM   28 Cl   UNK     0       1.972   4.204  -5.710  0.00  0.00    -0.130 Cl
ENDBRANCH  26  27
ENDBRANCH  23  26
ENDBRANCH  11  22
TORSDOF 4
ENDMDL
MODEL 4
REMARK VINA RESULT:      -6.5      1.882      4.905
REMARK  4 active torsions:
REMARK  status: ('A' for Active; 'I' for Inactive)
REMARK    1  A    between atoms: C_11  and  N_14 
REMARK    2  A    between atoms: C_13  and  C_21 
REMARK       I    between atoms: N_14  and  C_15 
REMARK    3  A    between atoms: C_15  and  C_16 
REMARK    4  A    between atoms: C_16  and  C_17 
ROOT
HETATM    1  C   UNK     0      -1.625  -1.773  -9.450  0.00  0.00     0.016 A 
HETATM    2  C   UNK     0      -1.744  -0.407  -9.117  0.00  0.00     0.001 A 
HETATM    3  C   UNK     0      -2.633   0.008  -8.100  0.00  0.00     0.001 A 
HETATM    4  C   UNK     0      -3.408  -0.938  -7.395  0.00  0.00     0.013 A 
HETATM    5  C   UNK     0      -3.270  -2.300  -7.727  0.00  0.00    -0.011 A 
HETATM    6  C   UNK     0      -2.402  -2.709  -8.742  0.00  0.00     0.026 A 
HETATM    7  C   UNK     0      -3.880  -3.445  -7.210  0.00  0.00    -0.008 A 
HETATM    8  C   UNK     0      -3.426  -4.558  -7.929  0.00  0.00     0.037 A 
HETATM    9  C   UNK     0      -2.484  -4.097  -8.868  0.00  0.00     0.195 A 
HETATM   10  C   UNK     0      -4.786  -3.579  -6.148  0.00  0.00     0.043 A 
HETATM   11  C   UNK     0      -5.273  -4.864  -5.807  0.00  0.00     0.036 A 
HETATM   12  C   UNK     0      -4.825  -5.981  -6.555  0.00  0.00     0.043 A 
HETATM   13  C   UNK     0      -3.907  -5.857  -7.632  0.00  0.00    -0.009 A 
HETATM   14  O   UNK     0      -1.807  -4.781  -9.669  0.00  0.00    -0.287 OA
ENDROOT
BRANCH  13  15
HETATM   15  C   UNK     0      -3.517  -7.008  -8.373  0.00  0.00    -0.022 A 
HETATM   16  C   UNK     0      -4.209  -7.386  -9.548  0.00  0.00     0.029 A 
HETATM   17  C   UNK     0      -3.809  -8.536 -10.252  0.00  0.00     0.088 A 
HETATM   18  N   UNK     0      -2.770  -9.280  -9.793  0.00  0.00    -0.375 N 
HETATM   19  C   UNK     0      -2.081  -8.957  -8.670  0.00  0.00     0.088 A 
HETATM   20  HN  UNK     0      -2.498 -10.115 -10.313  1.00  0.00     0.164 HD
HETATM   21  C   UNK     0      -2.436  -7.810  -7.936  0.00  0.00     0.029 A 
ENDBRANCH  13  15
BRANCH  11  22
HETATM   22  N   UNK     0      -6.137  -5.100  -4.772  0.00  0.00    -0.327 N 
HETATM   23  C   UNK     0      -5.851  -5.604  -3.534  0.00  0.00     0.223 C 
HETATM   24  O   UNK     0      -4.679  -5.844  -3.158  0.00  0.00    -0.273 OA
HETATM   25  H   UNK     0      -7.063  -4.856  -4.929  0.00  0.00     0.169 HD
BRANCH  23  26
HETATM   26  C   UNK     0      -6.947  -5.845  -2.572  0.00  0.00     0.118 C 
BRANCH  26  27
HETATM   27  C   UNK     0      -8.241  -6.326  -3.273  0.00  0.00     0.124 C 
HETATM   28 Cl   UNK     0      -9.377  -4.998  -3.490  0.00  0.00    -0.130 Cl
ENDBRANCH  26  27
ENDBRANCH  23  26
ENDBRANCH  11  22
TORSDOF 4
ENDMDL
MODEL 5
REMARK VINA RESULT:      -6.4     13.097     14.030
REMARK  4 active torsions:
REMARK  status: ('A' for Active; 'I' for Inactive)
REMARK    1  A    between atoms: C_11  and  N_14 
REMARK    2  A    between atoms: C_13  and  C_21 
REMARK       I    between atoms: N_14  and  C_15 
REMARK    3  A    between atoms: C_15  and  C_16 
REMARK    4  A    between atoms: C_16  and  C_17 
ROOT
HETATM    1  C   UNK     0       9.351  -1.537  -6.936  0.00  0.00     0.016 A 
HETATM    2  C   UNK     0      10.102  -2.709  -6.702  0.00  0.00     0.001 A 
HETATM    3  C   UNK     0      10.380  -3.131  -5.382  0.00  0.00     0.001 A 
HETATM    4  C   UNK     0       9.903  -2.393  -4.277  0.00  0.00     0.013 A 
HETATM    5  C   UNK     0       9.144  -1.232  -4.523  0.00  0.00    -0.011 A 
HETATM    6  C   UNK     0       8.881  -0.807  -5.828  0.00  0.00     0.026 A 
HETATM    7  C   UNK     0       8.541  -0.320  -3.656  0.00  0.00    -0.008 A 
HETATM    8  C   UNK     0       7.941   0.692  -4.415  0.00  0.00     0.037 A 
HETATM    9  C   UNK     0       8.134   0.371  -5.772  0.00  0.00     0.195 A 
HETATM   10  C   UNK     0       8.467  -0.326  -2.255  0.00  0.00     0.043 A 
HETATM   11  C   UNK     0       7.791   0.725  -1.590  0.00  0.00     0.036 A 
HETATM   12  C   UNK     0       7.208   1.757  -2.366  0.00  0.00     0.043 A 
HETATM   13  C   UNK     0       7.275   1.773  -3.785  0.00  0.00    -0.009 A 
HETATM   14  O   UNK     0       7.707   0.993  -6.771  0.00  0.00    -0.287 OA
ENDROOT
BRANCH  13  15
HETATM   15  C   UNK     0       6.702   2.852  -4.514  0.00  0.00    -0.022 A 
HETATM   16  C   UNK     0       7.370   4.095  -4.621  0.00  0.00     0.029 A 
HETATM   17  C   UNK     0       6.772   5.147  -5.338  0.00  0.00     0.088 A 
HETATM   18  N   UNK     0       5.555   4.967  -5.911  0.00  0.00    -0.375 N 
HETATM   19  C   UNK     0       4.878   3.793  -5.831  0.00  0.00     0.088 A 
HETATM   20  HN  UNK     0       5.133   5.743  -6.422  1.00  0.00     0.164 HD
HETATM   21  C   UNK     0       5.438   2.707  -5.135  0.00  0.00     0.029 A 
ENDBRANCH  13  15
BRANCH  11  22
HETATM   22  N   UNK     0       7.642   0.793  -0.231  0.00  0.00    -0.327 N 
HETATM   23  C   UNK     0       8.503   1.331   0.686  0.00  0.00     0.223 C 
HETATM   24  O   UNK     0       9.551   1.933   0.353  0.00  0.00    -0.273 OA
HETATM   25  H   UNK     0       6.812   0.437   0.123  0.00  0.00     0.169 HD
BRANCH  23  26
HETATM   26  C   UNK     0       8.182   1.246   2.126  0.00  0.00     0.118 C 
BRANCH  26  27
HETATM   27  C   UNK     0       7.910  -0.209   2.577  0.00  0.00     0.124 C 
HETATM   28 Cl   UNK     0       6.763  -0.258   3.911  0.00  0.00    -0.130 Cl
ENDBRANCH  26  27
ENDBRANCH  23  26
ENDBRANCH  11  22
TORSDOF 4
ENDMDL
MODEL 6
REMARK VINA RESULT:      -6.4      2.284      5.263
REMARK  4 active torsions:
REMARK  status: ('A' for Active; 'I' for Inactive)
REMARK    1  A    between atoms: C_11  and  N_14 
REMARK    2  A    between atoms: C_13  and  C_21 
REMARK       I    between atoms: N_14  and  C_15 
REMARK    3  A    between atoms: C_15  and  C_16 
REMARK    4  A    between atoms: C_16  and  C_17 
ROOT
HETATM    1  C   UNK     0      -3.582  -2.195  -9.822  0.00  0.00     0.016 A 
HETATM    2  C   UNK     0      -4.079  -0.984  -9.296  0.00  0.00     0.001 A 
HETATM    3  C   UNK     0      -4.643  -0.944  -8.000  0.00  0.00     0.001 A 
HETATM    4  C   UNK     0      -4.709  -2.111  -7.209  0.00  0.00     0.013 A 
HETATM    5  C   UNK     0      -4.197  -3.311  -7.741  0.00  0.00    -0.011 A 
HETATM    6  C   UNK     0      -3.652  -3.354  -9.027  0.00  0.00     0.026 A 
HETATM    7  C   UNK     0      -4.112  -4.598  -7.206  0.00  0.00    -0.008 A 
HETATM    8  C   UNK     0      -3.557  -5.448  -8.170  0.00  0.00     0.037 A 
HETATM    9  C   UNK     0      -3.248  -4.663  -9.296  0.00  0.00     0.195 A 
HETATM   10  C   UNK     0      -4.470  -5.068  -5.933  0.00  0.00     0.043 A 
HETATM   11  C   UNK     0      -4.289  -6.436  -5.622  0.00  0.00     0.036 A 
HETATM   12  C   UNK     0      -3.747  -7.294  -6.611  0.00  0.00     0.043 A 
HETATM   13  C   UNK     0      -3.380  -6.829  -7.903  0.00  0.00    -0.009 A 
HETATM   14  O   UNK     0      -2.690  -5.033 -10.355  0.00  0.00    -0.287 OA
ENDROOT
BRANCH  13  15
HETATM   15  C   UNK     0      -2.874  -7.739  -8.872  0.00  0.00    -0.022 A 
HETATM   16  C   UNK     0      -1.485  -7.996  -8.973  0.00  0.00     0.029 A 
HETATM   17  C   UNK     0      -1.013  -8.891  -9.950  0.00  0.00     0.088 A 
HETATM   18  N   UNK     0      -1.889  -9.493 -10.795  0.00  0.00    -0.375 N 
HETATM   19  C   UNK     0      -3.227  -9.273 -10.735  0.00  0.00     0.088 A 
HETATM   20  HN  UNK     0      -1.528 -10.134 -11.501  1.00  0.00     0.164 HD
HETATM   21  C   UNK     0      -3.750  -8.395  -9.768  0.00  0.00     0.029 A 
ENDBRANCH  13  15
BRANCH  11  22
HETATM   22  N   UNK     0      -4.581  -6.984  -4.402  0.00  0.00    -0.327 N 
HETATM   23  C   UNK     0      -5.771  -7.507  -3.976  0.00  0.00     0.223 C 
HETATM   24  O   UNK     0      -6.764  -7.625  -4.732  0.00  0.00    -0.273 OA
HETATM   25  H   UNK     0      -3.846  -7.026  -3.769  0.00  0.00     0.169 HD
BRANCH  23  26
HETATM   26  C   UNK     0      -5.898  -7.994  -2.586  0.00  0.00     0.118 C 
BRANCH  26  27
HETATM   27  C   UNK     0      -5.704  -6.859  -1.552  0.00  0.00     0.124 C 
HETATM   28 Cl   UNK     0      -6.597  -5.415  -2.017  0.00  0.00    -0.130 Cl
ENDBRANCH  26  27
ENDBRANCH  23  26
ENDBRANCH  11  22
TORSDOF 4
ENDMDL
MODEL 7
REMARK VINA RESULT:      -6.3     12.883     14.348
REMARK  4 active torsions:
REMARK  status: ('A' for Active; 'I' for Inactive)
REMARK    1  A    between atoms: C_11  and  N_14 
REMARK    2  A    between atoms: C_13  and  C_21 
REMARK       I    between atoms: N_14  and  C_15 
REMARK    3  A    between atoms: C_15  and  C_16 
REMARK    4  A    between atoms: C_16  and  C_17 
ROOT
HETATM    1  C   UNK     0       5.504   2.584  -8.458  0.00  0.00     0.016 A 
HETATM    2  C   UNK     0       4.581   3.645  -8.345  0.00  0.00     0.001 A 
HETATM    3  C   UNK     0       4.251   4.176  -7.078  0.00  0.00     0.001 A 
HETATM    4  C   UNK     0       4.845   3.660  -5.906  0.00  0.00     0.013 A 
HETATM    5  C   UNK     0       5.775   2.609  -6.033  0.00  0.00    -0.011 A 
HETATM    6  C   UNK     0       6.090   2.074  -7.284  0.00  0.00     0.026 A 
HETATM    7  C   UNK     0       6.520   1.913  -5.079  0.00  0.00    -0.008 A 
HETATM    8  C   UNK     0       7.265   0.921  -5.729  0.00  0.00     0.037 A 
HETATM    9  C   UNK     0       7.013   1.041  -7.109  0.00  0.00     0.195 A 
HETATM   10  C   UNK     0       6.603   2.101  -3.691  0.00  0.00     0.043 A 
HETATM   11  C   UNK     0       7.440   1.255  -2.925  0.00  0.00     0.036 A 
HETATM   12  C   UNK     0       8.171   0.239  -3.588  0.00  0.00     0.043 A 
HETATM   13  C   UNK     0       8.096   0.041  -4.993  0.00  0.00    -0.009 A 
HETATM   14  O   UNK     0       7.524   0.376  -8.039  0.00  0.00    -0.287 OA
ENDROOT
BRANCH  13  15
HETATM   15  C   UNK     0       8.825  -1.017  -5.604  0.00  0.00    -0.022 A 
HETATM   16  C   UNK     0       8.265  -2.312  -5.727  0.00  0.00     0.029 A 
HETATM   17  C   UNK     0       9.016  -3.341  -6.324  0.00  0.00     0.088 A 
HETATM   18  N   UNK     0      10.274  -3.088  -6.767  0.00  0.00    -0.375 N 
HETATM   19  C   UNK     0      10.850  -1.864  -6.668  0.00  0.00     0.088 A 
HETATM   20  HN  UNK     0      10.806  -3.848  -7.192  1.00  0.00     0.164 HD
HETATM   21  C   UNK     0      10.137  -0.799  -6.088  0.00  0.00     0.029 A 
ENDBRANCH  13  15
BRANCH  11  22
HETATM   22  N   UNK     0       7.608   1.376  -1.572  0.00  0.00    -0.327 N 
HETATM   23  C   UNK     0       8.447   2.220  -0.899  0.00  0.00     0.223 C 
HETATM   24  O   UNK     0       9.138   3.089  -1.482  0.00  0.00    -0.273 OA
HETATM   25  H   UNK     0       7.045   0.808  -1.022  0.00  0.00     0.169 HD
BRANCH  23  26
HETATM   26  C   UNK     0       8.527   2.149   0.575  0.00  0.00     0.118 C 
BRANCH  26  27
HETATM   27  C   UNK     0       8.337   0.705   1.099  0.00  0.00     0.124 C 
HETATM   28 Cl   UNK     0       7.833   0.702   2.786  0.00  0.00    -0.130 Cl
ENDBRANCH  26  27
ENDBRANCH  23  26
ENDBRANCH  11  22
TORSDOF 4
ENDMDL
MODEL 8
REMARK VINA RESULT:      -6.3     13.168     15.105
REMARK  4 active torsions:
REMARK  status: ('A' for Active; 'I' for Inactive)
REMARK    1  A    between atoms: C_11  and  N_14 
REMARK    2  A    between atoms: C_13  and  C_21 
REMARK       I    between atoms: N_14  and  C_15 
REMARK    3  A    between atoms: C_15  and  C_16 
REMARK    4  A    between atoms: C_16  and  C_17 
ROOT
HETATM    1  C   UNK     0       5.699   3.143  -5.057  0.00  0.00     0.016 A 
HETATM    2  C   UNK     0       5.222   3.225  -6.382  0.00  0.00     0.001 A 
HETATM    3  C   UNK     0       5.590   2.251  -7.338  0.00  0.00     0.001 A 
HETATM    4  C   UNK     0       6.434   1.177  -6.980  0.00  0.00     0.013 A 
HETATM    5  C   UNK     0       6.893   1.099  -5.650  0.00  0.00    -0.011 A 
HETATM    6  C   UNK     0       6.541   2.070  -4.709  0.00  0.00     0.026 A 
HETATM    7  C   UNK     0       7.712   0.169  -5.008  0.00  0.00    -0.008 A 
HETATM    8  C   UNK     0       7.904   0.581  -3.683  0.00  0.00     0.037 A 
HETATM    9  C   UNK     0       7.150   1.755  -3.494  0.00  0.00     0.195 A 
HETATM   10  C   UNK     0       8.283  -1.015  -5.497  0.00  0.00     0.043 A 
HETATM   11  C   UNK     0       9.090  -1.803  -4.641  0.00  0.00     0.036 A 
HETATM   12  C   UNK     0       9.297  -1.366  -3.309  0.00  0.00     0.043 A 
HETATM   13  C   UNK     0       8.723  -0.169  -2.803  0.00  0.00    -0.009 A 
HETATM   14  O   UNK     0       7.010   2.409  -2.435  0.00  0.00    -0.287 OA
ENDROOT
BRANCH  13  15
HETATM   15  C   UNK     0       8.992   0.242  -1.467  0.00  0.00    -0.022 A 
HETATM   16  C   UNK     0       8.148  -0.152  -0.401  0.00  0.00     0.029 A 
HETATM   17  C   UNK     0       8.432   0.281   0.907  0.00  0.00     0.088 A 
HETATM   18  N   UNK     0       9.504   1.082   1.135  0.00  0.00    -0.375 N 
HETATM   19  C   UNK     0      10.336   1.486   0.143  0.00  0.00     0.088 A 
HETATM   20  HN  UNK     0       9.690   1.391   2.089  1.00  0.00     0.164 HD
HETATM   21  C   UNK     0      10.102   1.071  -1.181  0.00  0.00     0.029 A 
ENDBRANCH  13  15
BRANCH  11  22
HETATM   22  N   UNK     0       9.667  -2.986  -5.016  0.00  0.00    -0.327 N 
HETATM   23  C   UNK     0      10.865  -3.177  -5.646  0.00  0.00     0.223 C 
HETATM   24  O   UNK     0      11.656  -2.235  -5.891  0.00  0.00    -0.273 OA
HETATM   25  H   UNK     0       9.174  -3.789  -4.785  0.00  0.00     0.169 HD
BRANCH  23  26
HETATM   26  C   UNK     0      11.281  -4.544  -6.025  0.00  0.00     0.118 C 
BRANCH  26  27
HETATM   27  C   UNK     0      10.922  -5.584  -4.937  0.00  0.00     0.124 C 
HETATM   28 Cl   UNK     0      10.255  -7.048  -5.653  0.00  0.00    -0.130 Cl
ENDBRANCH  26  27
ENDBRANCH  23  26
ENDBRANCH  11  22
TORSDOF 4
ENDMDL
MODEL 9
REMARK VINA RESULT:      -6.3      2.708      5.852
REMARK  4 active torsions:
REMARK  status: ('A' for Active; 'I' for Inactive)
REMARK    1  A    between atoms: C_11  and  N_14 
REMARK    2  A    between atoms: C_13  and  C_21 
REMARK       I    between atoms: N_14  and  C_15 
REMARK    3  A    between atoms: C_15  and  C_16 
REMARK    4  A    between atoms: C_16  and  C_17 
ROOT
HETATM    1  C   UNK     0      -2.787 -10.437  -6.725  0.00  0.00     0.016 A 
HETATM    2  C   UNK     0      -2.026 -10.717  -7.880  0.00  0.00     0.001 A 
HETATM    3  C   UNK     0      -1.777  -9.706  -8.836  0.00  0.00     0.001 A 
HETATM    4  C   UNK     0      -2.275  -8.400  -8.646  0.00  0.00     0.013 A 
HETATM    5  C   UNK     0      -3.022  -8.129  -7.482  0.00  0.00    -0.011 A 
HETATM    6  C   UNK     0      -3.281  -9.132  -6.544  0.00  0.00     0.026 A 
HETATM    7  C   UNK     0      -3.624  -6.957  -7.020  0.00  0.00    -0.008 A 
HETATM    8  C   UNK     0      -4.291  -7.238  -5.822  0.00  0.00     0.037 A 
HETATM    9  C   UNK     0      -4.053  -8.591  -5.515  0.00  0.00     0.195 A 
HETATM   10  C   UNK     0      -3.611  -5.665  -7.567  0.00  0.00     0.043 A 
HETATM   11  C   UNK     0      -4.307  -4.625  -6.906  0.00  0.00     0.036 A 
HETATM   12  C   UNK     0      -4.999  -4.924  -5.706  0.00  0.00     0.043 A 
HETATM   13  C   UNK     0      -5.017  -6.228  -5.143  0.00  0.00    -0.009 A 
HETATM   14  O   UNK     0      -4.430  -9.221  -4.500  0.00  0.00    -0.287 OA
ENDROOT
BRANCH  13  15
HETATM   15  C   UNK     0      -5.756  -6.482  -3.954  0.00  0.00    -0.022 A 
HETATM   16  C   UNK     0      -7.107  -6.901  -4.012  0.00  0.00     0.029 A 
HETATM   17  C   UNK     0      -7.815  -7.131  -2.819  0.00  0.00     0.088 A 
HETATM   18  N   UNK     0      -7.204  -6.939  -1.622  0.00  0.00    -0.375 N 
HETATM   19  C   UNK     0      -5.913  -6.535  -1.521  0.00  0.00     0.088 A 
HETATM   20  HN  UNK     0      -7.735  -7.104  -0.767  1.00  0.00     0.164 HD
HETATM   21  C   UNK     0      -5.157  -6.301  -2.684  0.00  0.00     0.029 A 
ENDBRANCH  13  15
BRANCH  11  22
HETATM   22  N   UNK     0      -4.332  -3.328  -7.344  0.00  0.00    -0.327 N 
HETATM   23  C   UNK     0      -3.517  -2.296  -6.970  0.00  0.00     0.223 C 
HETATM   24  O   UNK     0      -2.543  -2.454  -6.196  0.00  0.00    -0.273 OA
HETATM   25  H   UNK     0      -4.995  -3.123  -8.022  0.00  0.00     0.169 HD
BRANCH  23  26
HETATM   26  C   UNK     0      -3.752  -0.944  -7.519  0.00  0.00     0.118 C 
BRANCH  26  27
HETATM   27  C   UNK     0      -2.473  -0.341  -8.148  0.00  0.00     0.124 C 
HETATM   28 Cl   UNK     0      -2.854   1.062  -9.141  0.00  0.00    -0.130 Cl
ENDBRANCH  26  27
ENDBRANCH  23  26
ENDBRANCH  11  22
TORSDOF 4
ENDMDL
