MODEL 1
REMARK VINA RESULT:      -6.7      0.000      0.000
REMARK  4 active torsions:
REMARK  status: ('A' for Active; 'I' for Inactive)
REMARK    1  A    between atoms: C_11  and  N_19 
REMARK    2  A    between atoms: C_13  and  C_14 
REMARK       I    between atoms: N_19  and  C_21 
REMARK    3  A    between atoms: C_21  and  C_22 
REMARK    4  A    between atoms: C_22  and  C_23 
ROOT
HETATM    1  C   UNK     0      10.689   6.411   3.994  0.00  0.00     0.008 A 
HETATM    2  C   UNK     0       9.801   7.336   3.409  0.00  0.00     0.001 A 
HETATM    3  C   UNK     0       8.437   7.345   3.776  0.00  0.00     0.001 A 
HETATM    4  C   UNK     0       7.950   6.435   4.736  0.00  0.00     0.013 A 
HETATM    5  C   UNK     0       8.851   5.523   5.321  0.00  0.00    -0.019 A 
HETATM    6  C   UNK     0      10.195   5.502   4.947  0.00  0.00    -0.043 A 
HETATM    7  C   UNK     0       8.662   4.552   6.295  0.00  0.00    -0.016 A 
HETATM    8  C   UNK     0       9.878   3.894   6.533  0.00  0.00    -0.031 A 
HETATM    9  C   UNK     0      10.934   4.451   5.657  0.00  0.00     0.080 A 
HETATM   10  C   UNK     0       7.495   4.227   7.004  0.00  0.00     0.042 A 
HETATM   11  C   UNK     0       7.543   3.207   7.981  0.00  0.00     0.036 A 
HETATM   12  C   UNK     0       8.780   2.566   8.236  0.00  0.00     0.043 A 
HETATM   13  C   UNK     0       9.969   2.880   7.522  0.00  0.00    -0.009 A 
ENDROOT
BRANCH  13  14
HETATM   14  C   UNK     0      11.178   2.186   7.831  0.00  0.00     0.015 A 
HETATM   15  C   UNK     0      11.890   1.253   7.057  0.00  0.00     0.020 A 
HETATM   16  C   UNK     0      13.054   0.719   7.635  0.00  0.00     0.008 A 
HETATM   17  C   UNK     0      13.338   1.176   8.920  0.00  0.00     0.050 A 
HETATM   18  S   UNK     0      12.075   2.315   9.338  0.00  0.00    -0.101 SA
ENDBRANCH  13  14
BRANCH  11  19
HETATM   19  N   UNK     0       6.472   2.797   8.729  0.00  0.00    -0.327 N 
HETATM   20  C   UNK     0       5.665   1.710   8.545  0.00  0.00     0.223 C 
HETATM   21  O   UNK     0       5.840   0.881   7.620  0.00  0.00    -0.273 OA
HETATM   22  H   UNK     0       6.284   3.328   9.519  0.00  0.00     0.169 HD
BRANCH  20  23
HETATM   23  C   UNK     0       4.562   1.458   9.496  0.00  0.00     0.118 C 
BRANCH  23  24
HETATM   24  C   UNK     0       4.712   0.093  10.203  0.00  0.00     0.124 C 
HETATM   25 Cl   UNK     0       3.587  -1.083   9.529  0.00  0.00    -0.130 Cl
ENDBRANCH  23  24
ENDBRANCH  20  23
ENDBRANCH  11  19
TORSDOF 4
ENDMDL
MODEL 2
REMARK VINA RESULT:      -6.5     17.487     19.664
REMARK  4 active torsions:
REMARK  status: ('A' for Active; 'I' for Inactive)
REMARK    1  A    between atoms: C_11  and  N_19 
REMARK    2  A    between atoms: C_13  and  C_14 
REMARK       I    between atoms: N_19  and  C_21 
REMARK    3  A    between atoms: C_21  and  C_22 
REMARK    4  A    between atoms: C_22  and  C_23 
ROOT
HETATM    1  C   UNK     0      -7.686   2.534  -3.787  0.00  0.00     0.008 A 
HETATM    2  C   UNK     0      -7.233   1.701  -4.831  0.00  0.00     0.001 A 
HETATM    3  C   UNK     0      -6.330   2.197  -5.796  0.00  0.00     0.001 A 
HETATM    4  C   UNK     0      -5.865   3.527  -5.723  0.00  0.00     0.013 A 
HETATM    5  C   UNK     0      -6.317   4.343  -4.668  0.00  0.00    -0.019 A 
HETATM    6  C   UNK     0      -7.222   3.860  -3.723  0.00  0.00    -0.043 A 
HETATM    7  C   UNK     0      -6.011   5.656  -4.336  0.00  0.00    -0.016 A 
HETATM    8  C   UNK     0      -6.733   6.023  -3.191  0.00  0.00    -0.031 A 
HETATM    9  C   UNK     0      -7.579   4.893  -2.743  0.00  0.00     0.080 A 
HETATM   10  C   UNK     0      -5.118   6.541  -4.961  0.00  0.00     0.042 A 
HETATM   11  C   UNK     0      -4.944   7.837  -4.427  0.00  0.00     0.036 A 
HETATM   12  C   UNK     0      -5.656   8.191  -3.254  0.00  0.00     0.043 A 
HETATM   13  C   UNK     0      -6.567   7.309  -2.613  0.00  0.00    -0.009 A 
ENDROOT
BRANCH  13  14
HETATM   14  C   UNK     0      -7.253   7.740  -1.438  0.00  0.00     0.015 A 
HETATM   15  C   UNK     0      -6.791   7.803  -0.111  0.00  0.00     0.020 A 
HETATM   16  C   UNK     0      -7.707   8.263   0.850  0.00  0.00     0.008 A 
HETATM   17  C   UNK     0      -8.972   8.577   0.356  0.00  0.00     0.050 A 
HETATM   18  S   UNK     0      -8.926   8.279  -1.368  0.00  0.00    -0.101 SA
ENDBRANCH  13  14
BRANCH  11  19
HETATM   19  N   UNK     0      -4.111   8.788  -4.952  0.00  0.00    -0.327 N 
HETATM   20  C   UNK     0      -2.761   8.926  -4.795  0.00  0.00     0.223 C 
HETATM   21  O   UNK     0      -2.068   8.122  -4.127  0.00  0.00    -0.273 OA
HETATM   22  H   UNK     0      -4.530   9.429  -5.548  0.00  0.00     0.169 HD
BRANCH  20  23
HETATM   23  C   UNK     0      -2.063  10.037  -5.474  0.00  0.00     0.118 C 
BRANCH  23  24
HETATM   24  C   UNK     0      -0.552   9.754  -5.637  0.00  0.00     0.124 C 
HETATM   25 Cl   UNK     0       0.376  10.614  -4.412  0.00  0.00    -0.130 Cl
ENDBRANCH  23  24
ENDBRANCH  20  23
ENDBRANCH  11  19
TORSDOF 4
ENDMDL
MODEL 3
REMARK VINA RESULT:      -6.5     17.703     19.639
REMARK  4 active torsions:
REMARK  status: ('A' for Active; 'I' for Inactive)
REMARK    1  A    between atoms: C_11  and  N_19 
REMARK    2  A    between atoms: C_13  and  C_14 
REMARK       I    between atoms: N_19  and  C_21 
REMARK    3  A    between atoms: C_21  and  C_22 
REMARK    4  A    between atoms: C_22  and  C_23 
ROOT
HETATM    1  C   UNK     0      -9.319   6.277   0.027  0.00  0.00     0.008 A 
HETATM    2  C   UNK     0      -9.513   7.448   0.788  0.00  0.00     0.001 A 
HETATM    3  C   UNK     0      -8.783   8.619   0.492  0.00  0.00     0.001 A 
HETATM    4  C   UNK     0      -7.857   8.635  -0.572  0.00  0.00     0.013 A 
HETATM    5  C   UNK     0      -7.681   7.461  -1.331  0.00  0.00    -0.019 A 
HETATM    6  C   UNK     0      -8.390   6.298  -1.029  0.00  0.00    -0.043 A 
HETATM    7  C   UNK     0      -6.876   7.199  -2.431  0.00  0.00    -0.016 A 
HETATM    8  C   UNK     0      -7.052   5.864  -2.824  0.00  0.00    -0.031 A 
HETATM    9  C   UNK     0      -8.020   5.195  -1.925  0.00  0.00     0.080 A 
HETATM   10  C   UNK     0      -6.018   8.066  -3.125  0.00  0.00     0.042 A 
HETATM   11  C   UNK     0      -5.309   7.583  -4.248  0.00  0.00     0.036 A 
HETATM   12  C   UNK     0      -5.512   6.241  -4.656  0.00  0.00     0.043 A 
HETATM   13  C   UNK     0      -6.373   5.349  -3.960  0.00  0.00    -0.009 A 
ENDROOT
BRANCH  13  14
HETATM   14  C   UNK     0      -6.522   4.009  -4.428  0.00  0.00     0.015 A 
HETATM   15  C   UNK     0      -5.544   3.013  -4.599  0.00  0.00     0.020 A 
HETATM   16  C   UNK     0      -5.990   1.777  -5.095  0.00  0.00     0.008 A 
HETATM   17  C   UNK     0      -7.354   1.710  -5.374  0.00  0.00     0.050 A 
HETATM   18  S   UNK     0      -8.027   3.272  -4.961  0.00  0.00    -0.101 SA
ENDBRANCH  13  14
BRANCH  11  19
HETATM   19  N   UNK     0      -4.439   8.329  -4.997  0.00  0.00    -0.327 N 
HETATM   20  C   UNK     0      -3.147   8.672  -4.721  0.00  0.00     0.223 C 
HETATM   21  O   UNK     0      -2.548   8.292  -3.687  0.00  0.00    -0.273 OA
HETATM   22  H   UNK     0      -4.774   8.621  -5.860  0.00  0.00     0.169 HD
BRANCH  20  23
HETATM   23  C   UNK     0      -2.389   9.486  -5.694  0.00  0.00     0.118 C 
BRANCH  23  24
HETATM   24  C   UNK     0      -1.122  10.107  -5.065  0.00  0.00     0.124 C 
HETATM   25 Cl   UNK     0       0.304   9.157  -5.476  0.00  0.00    -0.130 Cl
ENDBRANCH  23  24
ENDBRANCH  20  23
ENDBRANCH  11  19
TORSDOF 4
ENDMDL
MODEL 4
REMARK VINA RESULT:      -6.5     17.918     19.113
REMARK  4 active torsions:
REMARK  status: ('A' for Active; 'I' for Inactive)
REMARK    1  A    between atoms: C_11  and  N_19 
REMARK    2  A    between atoms: C_13  and  C_14 
REMARK       I    between atoms: N_19  and  C_21 
REMARK    3  A    between atoms: C_21  and  C_22 
REMARK    4  A    between atoms: C_22  and  C_23 
ROOT
HETATM    1  C   UNK     0      -3.395  10.823  -3.067  0.00  0.00     0.008 A 
HETATM    2  C   UNK     0      -2.281  10.918  -3.925  0.00  0.00     0.001 A 
HETATM    3  C   UNK     0      -1.995   9.881  -4.839  0.00  0.00     0.001 A 
HETATM    4  C   UNK     0      -2.823   8.742  -4.910  0.00  0.00     0.013 A 
HETATM    5  C   UNK     0      -3.939   8.665  -4.054  0.00  0.00    -0.019 A 
HETATM    6  C   UNK     0      -4.214   9.681  -3.139  0.00  0.00    -0.043 A 
HETATM    7  C   UNK     0      -4.926   7.696  -3.927  0.00  0.00    -0.016 A 
HETATM    8  C   UNK     0      -5.822   8.079  -2.917  0.00  0.00    -0.031 A 
HETATM    9  C   UNK     0      -5.400   9.371  -2.331  0.00  0.00     0.080 A 
HETATM   10  C   UNK     0      -5.100   6.511  -4.659  0.00  0.00     0.042 A 
HETATM   11  C   UNK     0      -6.205   5.679  -4.371  0.00  0.00     0.036 A 
HETATM   12  C   UNK     0      -7.121   6.085  -3.370  0.00  0.00     0.043 A 
HETATM   13  C   UNK     0      -6.955   7.279  -2.616  0.00  0.00    -0.009 A 
ENDROOT
BRANCH  13  14
HETATM   14  C   UNK     0      -7.917   7.619  -1.618  0.00  0.00     0.015 A 
HETATM   15  C   UNK     0      -7.864   7.421  -0.227  0.00  0.00     0.020 A 
HETATM   16  C   UNK     0      -8.980   7.853   0.510  0.00  0.00     0.008 A 
HETATM   17  C   UNK     0     -10.010   8.405  -0.249  0.00  0.00     0.050 A 
HETATM   18  S   UNK     0      -9.483   8.363  -1.918  0.00  0.00    -0.101 SA
ENDBRANCH  13  14
BRANCH  11  19
HETATM   19  N   UNK     0      -6.475   4.498  -5.009  0.00  0.00    -0.327 N 
HETATM   20  C   UNK     0      -5.935   3.263  -4.791  0.00  0.00     0.223 C 
HETATM   21  O   UNK     0      -5.088   3.040  -3.893  0.00  0.00    -0.273 OA
HETATM   22  H   UNK     0      -7.173   4.536  -5.683  0.00  0.00     0.169 HD
BRANCH  20  23
HETATM   23  C   UNK     0      -6.392   2.118  -5.605  0.00  0.00     0.118 C 
BRANCH  23  24
HETATM   24  C   UNK     0      -7.890   1.812  -5.380  0.00  0.00     0.124 C 
HETATM   25 Cl   UNK     0      -8.273   1.818  -3.660  0.00  0.00    -0.130 Cl
ENDBRANCH  23  24
ENDBRANCH  20  23
ENDBRANCH  11  19
TORSDOF 4
ENDMDL
MODEL 5
REMARK VINA RESULT:      -6.4     17.783     19.062
REMARK  4 active torsions:
REMARK  status: ('A' for Active; 'I' for Inactive)
REMARK    1  A    between atoms: C_11  and  N_19 
REMARK    2  A    between atoms: C_13  and  C_14 
REMARK       I    between atoms: N_19  and  C_21 
REMARK    3  A    between atoms: C_21  and  C_22 
REMARK    4  A    between atoms: C_22  and  C_23 
ROOT
HETATM    1  C   UNK     0      -6.161   3.028  -5.810  0.00  0.00     0.008 A 
HETATM    2  C   UNK     0      -6.924   1.901  -5.444  0.00  0.00     0.001 A 
HETATM    3  C   UNK     0      -7.682   1.909  -4.253  0.00  0.00     0.001 A 
HETATM    4  C   UNK     0      -7.690   3.047  -3.419  0.00  0.00     0.013 A 
HETATM    5  C   UNK     0      -6.932   4.170  -3.803  0.00  0.00    -0.019 A 
HETATM    6  C   UNK     0      -6.169   4.157  -4.971  0.00  0.00    -0.043 A 
HETATM    7  C   UNK     0      -6.778   5.414  -3.205  0.00  0.00    -0.016 A 
HETATM    8  C   UNK     0      -5.903   6.192  -3.977  0.00  0.00    -0.031 A 
HETATM    9  C   UNK     0      -5.437   5.417  -5.149  0.00  0.00     0.080 A 
HETATM   10  C   UNK     0      -7.378   5.914  -2.039  0.00  0.00     0.042 A 
HETATM   11  C   UNK     0      -7.092   7.236  -1.628  0.00  0.00     0.036 A 
HETATM   12  C   UNK     0      -6.229   8.025  -2.427  0.00  0.00     0.043 A 
HETATM   13  C   UNK     0      -5.609   7.531  -3.607  0.00  0.00    -0.009 A 
ENDROOT
BRANCH  13  14
HETATM   14  C   UNK     0      -4.746   8.385  -4.357  0.00  0.00     0.015 A 
HETATM   15  C   UNK     0      -3.389   8.212  -4.686  0.00  0.00     0.020 A 
HETATM   16  C   UNK     0      -2.791   9.240  -5.434  0.00  0.00     0.008 A 
HETATM   17  C   UNK     0      -3.626  10.314  -5.735  0.00  0.00     0.050 A 
HETATM   18  S   UNK     0      -5.190   9.943  -5.042  0.00  0.00    -0.101 SA
ENDBRANCH  13  14
BRANCH  11  19
HETATM   19  N   UNK     0      -7.608   7.829  -0.508  0.00  0.00    -0.327 N 
HETATM   20  C   UNK     0      -6.965   8.202   0.638  0.00  0.00     0.223 C 
HETATM   21  O   UNK     0      -5.730   8.063   0.801  0.00  0.00    -0.273 OA
HETATM   22  H   UNK     0      -8.552   8.051  -0.548  0.00  0.00     0.169 HD
BRANCH  20  23
HETATM   23  C   UNK     0      -7.735   8.844   1.725  0.00  0.00     0.118 C 
BRANCH  23  24
HETATM   24  C   UNK     0      -6.859   9.800   2.564  0.00  0.00     0.124 C 
HETATM   25 Cl   UNK     0      -6.557   9.124   4.162  0.00  0.00    -0.130 Cl
ENDBRANCH  23  24
ENDBRANCH  20  23
ENDBRANCH  11  19
TORSDOF 4
ENDMDL
MODEL 6
REMARK VINA RESULT:      -6.3     18.824     19.757
REMARK  4 active torsions:
REMARK  status: ('A' for Active; 'I' for Inactive)
REMARK    1  A    between atoms: C_11  and  N_19 
REMARK    2  A    between atoms: C_13  and  C_14 
REMARK       I    between atoms: N_19  and  C_21 
REMARK    3  A    between atoms: C_21  and  C_22 
REMARK    4  A    between atoms: C_22  and  C_23 
ROOT
HETATM    1  C   UNK     0      -5.375   3.771  -6.069  0.00  0.00     0.008 A 
HETATM    2  C   UNK     0      -5.792   2.424  -6.088  0.00  0.00     0.001 A 
HETATM    3  C   UNK     0      -6.636   1.925  -5.072  0.00  0.00     0.001 A 
HETATM    4  C   UNK     0      -7.078   2.769  -4.032  0.00  0.00     0.013 A 
HETATM    5  C   UNK     0      -6.663   4.115  -4.032  0.00  0.00    -0.019 A 
HETATM    6  C   UNK     0      -5.815   4.605  -5.026  0.00  0.00    -0.043 A 
HETATM    7  C   UNK     0      -6.959   5.161  -3.168  0.00  0.00    -0.016 A 
HETATM    8  C   UNK     0      -6.288   6.316  -3.594  0.00  0.00    -0.031 A 
HETATM    9  C   UNK     0      -5.488   6.019  -4.805  0.00  0.00     0.080 A 
HETATM   10  C   UNK     0      -7.802   5.168  -2.045  0.00  0.00     0.042 A 
HETATM   11  C   UNK     0      -7.977   6.369  -1.322  0.00  0.00     0.036 A 
HETATM   12  C   UNK     0      -7.318   7.538  -1.774  0.00  0.00     0.043 A 
HETATM   13  C   UNK     0      -6.457   7.546  -2.906  0.00  0.00    -0.009 A 
ENDROOT
BRANCH  13  14
HETATM   14  C   UNK     0      -5.822   8.763  -3.297  0.00  0.00     0.015 A 
HETATM   15  C   UNK     0      -6.276   9.758  -4.181  0.00  0.00     0.020 A 
HETATM   16  C   UNK     0      -5.419  10.853  -4.384  0.00  0.00     0.008 A 
HETATM   17  C   UNK     0      -4.211  10.793  -3.692  0.00  0.00     0.050 A 
HETATM   18  S   UNK     0      -4.234   9.305  -2.770  0.00  0.00    -0.101 SA
ENDBRANCH  13  14
BRANCH  11  19
HETATM   19  N   UNK     0      -8.764   6.497  -0.209  0.00  0.00    -0.327 N 
HETATM   20  C   UNK     0     -10.034   6.990  -0.110  0.00  0.00     0.223 C 
HETATM   21  O   UNK     0     -10.691   7.383  -1.103  0.00  0.00    -0.273 OA
HETATM   22  H   UNK     0      -8.382   6.156   0.616  0.00  0.00     0.169 HD
BRANCH  20  23
HETATM   23  C   UNK     0     -10.697   7.022   1.210  0.00  0.00     0.118 C 
BRANCH  23  24
HETATM   24  C   UNK     0     -12.231   6.877   1.089  0.00  0.00     0.124 C 
HETATM   25 Cl   UNK     0     -12.905   6.163   2.551  0.00  0.00    -0.130 Cl
ENDBRANCH  23  24
ENDBRANCH  20  23
ENDBRANCH  11  19
TORSDOF 4
ENDMDL
MODEL 7
REMARK VINA RESULT:      -6.2      4.364      7.018
REMARK  4 active torsions:
REMARK  status: ('A' for Active; 'I' for Inactive)
REMARK    1  A    between atoms: C_11  and  N_19 
REMARK    2  A    between atoms: C_13  and  C_14 
REMARK       I    between atoms: N_19  and  C_21 
REMARK    3  A    between atoms: C_21  and  C_22 
REMARK    4  A    between atoms: C_22  and  C_23 
ROOT
HETATM    1  C   UNK     0       7.072   1.788  10.162  0.00  0.00     0.008 A 
HETATM    2  C   UNK     0       6.152   0.869   9.617  0.00  0.00     0.001 A 
HETATM    3  C   UNK     0       5.834   0.909   8.242  0.00  0.00     0.001 A 
HETATM    4  C   UNK     0       6.437   1.864   7.397  0.00  0.00     0.013 A 
HETATM    5  C   UNK     0       7.362   2.769   7.952  0.00  0.00    -0.019 A 
HETATM    6  C   UNK     0       7.665   2.741   9.314  0.00  0.00    -0.043 A 
HETATM    7  C   UNK     0       8.117   3.776   7.366  0.00  0.00    -0.016 A 
HETATM    8  C   UNK     0       8.889   4.408   8.353  0.00  0.00    -0.031 A 
HETATM    9  C   UNK     0       8.623   3.793   9.673  0.00  0.00     0.080 A 
HETATM   10  C   UNK     0       8.188   4.156   6.017  0.00  0.00     0.042 A 
HETATM   11  C   UNK     0       9.056   5.206   5.640  0.00  0.00     0.036 A 
HETATM   12  C   UNK     0       9.853   5.820   6.637  0.00  0.00     0.043 A 
HETATM   13  C   UNK     0       9.789   5.450   8.008  0.00  0.00    -0.009 A 
ENDROOT
BRANCH  13  14
HETATM   14  C   UNK     0      10.620   6.120   8.956  0.00  0.00     0.015 A 
HETATM   15  C   UNK     0      10.300   7.175   9.829  0.00  0.00     0.020 A 
HETATM   16  C   UNK     0      11.340   7.646  10.649  0.00  0.00     0.008 A 
HETATM   17  C   UNK     0      12.567   7.011  10.468  0.00  0.00     0.050 A 
HETATM   18  S   UNK     0      12.325   5.793   9.234  0.00  0.00    -0.101 SA
ENDBRANCH  13  14
BRANCH  11  19
HETATM   19  N   UNK     0       9.204   5.669   4.361  0.00  0.00    -0.327 N 
HETATM   20  C   UNK     0       8.704   6.810   3.800  0.00  0.00     0.223 C 
HETATM   21  O   UNK     0       8.026   7.645   4.445  0.00  0.00    -0.273 OA
HETATM   22  H   UNK     0       9.774   5.135   3.785  0.00  0.00     0.169 HD
BRANCH  20  23
HETATM   23  C   UNK     0       9.006   7.114   2.385  0.00  0.00     0.118 C 
BRANCH  23  24
HETATM   24  C   UNK     0       9.899   8.367   2.243  0.00  0.00     0.124 C 
HETATM   25 Cl   UNK     0      10.652   8.416   0.652  0.00  0.00    -0.130 Cl
ENDBRANCH  23  24
ENDBRANCH  20  23
ENDBRANCH  11  19
TORSDOF 4
ENDMDL
MODEL 8
REMARK VINA RESULT:      -6.2      3.172      6.500
REMARK  4 active torsions:
REMARK  status: ('A' for Active; 'I' for Inactive)
REMARK    1  A    between atoms: C_11  and  N_19 
REMARK    2  A    between atoms: C_13  and  C_14 
REMARK       I    between atoms: N_19  and  C_21 
REMARK    3  A    between atoms: C_21  and  C_22 
REMARK    4  A    between atoms: C_22  and  C_23 
ROOT
HETATM    1  C   UNK     0       5.833  -0.229  10.926  0.00  0.00     0.008 A 
HETATM    2  C   UNK     0       4.449  -0.276  10.658  0.00  0.00     0.001 A 
HETATM    3  C   UNK     0       3.859   0.670   9.792  0.00  0.00     0.001 A 
HETATM    4  C   UNK     0       4.646   1.666   9.178  0.00  0.00     0.013 A 
HETATM    5  C   UNK     0       6.029   1.694   9.446  0.00  0.00    -0.019 A 
HETATM    6  C   UNK     0       6.611   0.771  10.315  0.00  0.00    -0.043 A 
HETATM    7  C   UNK     0       7.033   2.526   8.969  0.00  0.00    -0.016 A 
HETATM    8  C   UNK     0       8.256   2.151   9.546  0.00  0.00    -0.031 A 
HETATM    9  C   UNK     0       8.050   1.011  10.470  0.00  0.00     0.080 A 
HETATM   10  C   UNK     0       6.946   3.575   8.041  0.00  0.00     0.042 A 
HETATM   11  C   UNK     0       8.118   4.276   7.680  0.00  0.00     0.036 A 
HETATM   12  C   UNK     0       9.353   3.874   8.245  0.00  0.00     0.043 A 
HETATM   13  C   UNK     0       9.457   2.817   9.190  0.00  0.00    -0.009 A 
ENDROOT
BRANCH  13  14
HETATM   14  C   UNK     0      10.737   2.474   9.721  0.00  0.00     0.015 A 
HETATM   15  C   UNK     0      11.683   1.554   9.236  0.00  0.00     0.020 A 
HETATM   16  C   UNK     0      12.863   1.415   9.986  0.00  0.00     0.008 A 
HETATM   17  C   UNK     0      12.929   2.203  11.134  0.00  0.00     0.050 A 
HETATM   18  S   UNK     0      11.441   3.124  11.196  0.00  0.00    -0.101 SA
ENDBRANCH  13  14
BRANCH  11  19
HETATM   19  N   UNK     0       8.157   5.320   6.795  0.00  0.00    -0.327 N 
HETATM   20  C   UNK     0       8.202   5.285   5.430  0.00  0.00     0.223 C 
HETATM   21  O   UNK     0       8.181   4.215   4.776  0.00  0.00    -0.273 OA
HETATM   22  H   UNK     0       8.106   6.206   7.189  0.00  0.00     0.169 HD
BRANCH  20  23
HETATM   23  C   UNK     0       8.228   6.554   4.673  0.00  0.00     0.118 C 
BRANCH  23  24
HETATM   24  C   UNK     0       9.409   6.609   3.679  0.00  0.00     0.124 C 
HETATM   25 Cl   UNK     0       9.032   7.668   2.323  0.00  0.00    -0.130 Cl
ENDBRANCH  23  24
ENDBRANCH  20  23
ENDBRANCH  11  19
TORSDOF 4
ENDMDL
MODEL 9
REMARK VINA RESULT:      -6.2     16.252     18.044
REMARK  4 active torsions:
REMARK  status: ('A' for Active; 'I' for Inactive)
REMARK    1  A    between atoms: C_11  and  N_19 
REMARK    2  A    between atoms: C_13  and  C_14 
REMARK       I    between atoms: N_19  and  C_21 
REMARK    3  A    between atoms: C_21  and  C_22 
REMARK    4  A    between atoms: C_22  and  C_23 
ROOT
HETATM    1  C   UNK     0      -3.618   9.935   1.642  0.00  0.00     0.008 A 
HETATM    2  C   UNK     0      -4.250   9.626   2.863  0.00  0.00     0.001 A 
HETATM    3  C   UNK     0      -5.376   8.774   2.888  0.00  0.00     0.001 A 
HETATM    4  C   UNK     0      -5.877   8.217   1.693  0.00  0.00     0.013 A 
HETATM    5  C   UNK     0      -5.229   8.526   0.481  0.00  0.00    -0.019 A 
HETATM    6  C   UNK     0      -4.126   9.381   0.453  0.00  0.00    -0.043 A 
HETATM    7  C   UNK     0      -5.478   8.106  -0.819  0.00  0.00    -0.016 A 
HETATM    8  C   UNK     0      -4.551   8.706  -1.684  0.00  0.00    -0.031 A 
HETATM    9  C   UNK     0      -3.639   9.585  -0.916  0.00  0.00     0.080 A 
HETATM   10  C   UNK     0      -6.453   7.211  -1.287  0.00  0.00     0.042 A 
HETATM   11  C   UNK     0      -6.505   6.908  -2.666  0.00  0.00     0.036 A 
HETATM   12  C   UNK     0      -5.548   7.495  -3.529  0.00  0.00     0.043 A 
HETATM   13  C   UNK     0      -4.559   8.408  -3.072  0.00  0.00    -0.009 A 
ENDROOT
BRANCH  13  14
HETATM   14  C   UNK     0      -3.632   8.965  -4.003  0.00  0.00     0.015 A 
HETATM   15  C   UNK     0      -2.264   8.687  -4.170  0.00  0.00     0.020 A 
HETATM   16  C   UNK     0      -1.596   9.409  -5.174  0.00  0.00     0.008 A 
HETATM   17  C   UNK     0      -2.385  10.329  -5.862  0.00  0.00     0.050 A 
HETATM   18  S   UNK     0      -3.996  10.214  -5.187  0.00  0.00    -0.101 SA
ENDBRANCH  13  14
BRANCH  11  19
HETATM   19  N   UNK     0      -7.413   6.059  -3.240  0.00  0.00    -0.327 N 
HETATM   20  C   UNK     0      -7.348   4.702  -3.381  0.00  0.00     0.223 C 
HETATM   21  O   UNK     0      -6.394   4.018  -2.941  0.00  0.00    -0.273 OA
HETATM   22  H   UNK     0      -8.232   6.473  -3.556  0.00  0.00     0.169 HD
BRANCH  20  23
HETATM   23  C   UNK     0      -8.465   3.987  -4.033  0.00  0.00     0.118 C 
BRANCH  23  24
HETATM   24  C   UNK     0      -8.176   2.476  -4.177  0.00  0.00     0.124 C 
HETATM   25 Cl   UNK     0      -7.295   2.152  -5.668  0.00  0.00    -0.130 Cl
ENDBRANCH  23  24
ENDBRANCH  20  23
ENDBRANCH  11  19
TORSDOF 4
ENDMDL
