MODEL 1
REMARK VINA RESULT:      -6.8      0.000      0.000
REMARK  2 active torsions:
REMARK  status: ('A' for Active; 'I' for Inactive)
REMARK    1  A    between atoms: C_10  and  C_17 
REMARK    2  A    between atoms: C_12  and  N_14 
ROOT
HETATM    1  C   UNK     0     -10.498   1.351  -6.547  0.00  0.00     0.013 A 
HETATM    2  C   UNK     0     -11.872   1.523  -6.815  0.00  0.00     0.001 A 
HETATM    3  C   UNK     0     -12.554   2.669  -6.351  0.00  0.00     0.001 A 
HETATM    4  C   UNK     0     -11.872   3.654  -5.607  0.00  0.00     0.008 A 
HETATM    5  C   UNK     0     -10.500   3.474  -5.343  0.00  0.00    -0.043 A 
HETATM    6  C   UNK     0      -9.825   2.340  -5.805  0.00  0.00    -0.019 A 
HETATM    7  C   UNK     0      -9.603   4.367  -4.599  0.00  0.00     0.080 A 
HETATM    8  C   UNK     0      -8.324   3.629  -4.693  0.00  0.00    -0.032 A 
HETATM    9  C   UNK     0      -8.497   2.426  -5.392  0.00  0.00    -0.016 A 
HETATM   10  C   UNK     0      -7.061   3.981  -4.153  0.00  0.00    -0.016 A 
HETATM   11  C   UNK     0      -5.997   3.054  -4.302  0.00  0.00     0.042 A 
HETATM   12  C   UNK     0      -6.183   1.827  -4.978  0.00  0.00     0.027 A 
HETATM   13  C   UNK     0      -7.436   1.515  -5.548  0.00  0.00     0.042 A 
ENDROOT
BRANCH  10  14
HETATM   14  C   UNK     0      -6.861   5.199  -3.447  0.00  0.00    -0.023 A 
HETATM   15  C   UNK     0      -6.187   6.280  -4.058  0.00  0.00     0.029 A 
HETATM   16  C   UNK     0      -5.957   7.463  -3.332  0.00  0.00     0.090 A 
HETATM   17  N   UNK     0      -6.377   7.591  -2.035  0.00  0.00    -0.371 N 
HETATM   18  C   UNK     0      -7.049   6.562  -1.430  0.00  0.00     0.090 A 
HETATM   19  C   UNK     0      -6.139   8.819  -1.318  0.00  0.00     0.154 C 
HETATM   20  C   UNK     0      -7.313   5.364  -2.119  0.00  0.00     0.029 A 
ENDBRANCH  10  14
BRANCH  12  21
HETATM   21  N   UNK     0      -5.170   0.940  -5.063  0.00  0.00    -0.399 N 
HETATM   22  H   UNK     0      -4.367   1.066  -4.530  0.00  0.00     0.156 HD
HETATM   23  H   UNK     0      -5.243   0.171  -5.649  0.00  0.00     0.156 HD
ENDBRANCH  12  21
TORSDOF 2
ENDMDL
MODEL 2
REMARK VINA RESULT:      -6.8     11.387     13.581
REMARK  2 active torsions:
REMARK  status: ('A' for Active; 'I' for Inactive)
REMARK    1  A    between atoms: C_10  and  C_17 
REMARK    2  A    between atoms: C_12  and  N_14 
ROOT
HETATM    1  C   UNK     0      -3.840  -5.388   5.832  0.00  0.00     0.013 A 
HETATM    2  C   UNK     0      -3.979  -5.323   7.234  0.00  0.00     0.001 A 
HETATM    3  C   UNK     0      -5.261  -5.281   7.826  0.00  0.00     0.001 A 
HETATM    4  C   UNK     0      -6.420  -5.297   7.023  0.00  0.00     0.008 A 
HETATM    5  C   UNK     0      -6.273  -5.361   5.623  0.00  0.00    -0.043 A 
HETATM    6  C   UNK     0      -5.003  -5.406   5.038  0.00  0.00    -0.019 A 
HETATM    7  C   UNK     0      -7.332  -5.393   4.608  0.00  0.00     0.080 A 
HETATM    8  C   UNK     0      -6.535  -5.474   3.364  0.00  0.00    -0.032 A 
HETATM    9  C   UNK     0      -5.163  -5.456   3.654  0.00  0.00    -0.016 A 
HETATM   10  C   UNK     0      -6.993  -5.525   2.023  0.00  0.00    -0.016 A 
HETATM   11  C   UNK     0      -6.020  -5.506   0.991  0.00  0.00     0.042 A 
HETATM   12  C   UNK     0      -4.639  -5.454   1.287  0.00  0.00     0.027 A 
HETATM   13  C   UNK     0      -4.201  -5.451   2.628  0.00  0.00     0.042 A 
ENDROOT
BRANCH  10  14
HETATM   14  C   UNK     0      -8.379  -5.551   1.706  0.00  0.00    -0.023 A 
HETATM   15  C   UNK     0      -9.042  -6.780   1.493  0.00  0.00     0.029 A 
HETATM   16  C   UNK     0     -10.404  -6.789   1.136  0.00  0.00     0.090 A 
HETATM   17  N   UNK     0     -11.105  -5.622   0.990  0.00  0.00    -0.371 N 
HETATM   18  C   UNK     0     -10.485  -4.421   1.211  0.00  0.00     0.090 A 
HETATM   19  C   UNK     0     -12.503  -5.660   0.635  0.00  0.00     0.154 C 
HETATM   20  C   UNK     0      -9.129  -4.361   1.581  0.00  0.00     0.029 A 
ENDBRANCH  10  14
BRANCH  12  21
HETATM   21  N   UNK     0      -3.736  -5.386   0.287  0.00  0.00    -0.399 N 
HETATM   22  H   UNK     0      -2.795  -5.544   0.469  0.00  0.00     0.156 HD
HETATM   23  H   UNK     0      -4.024  -5.186  -0.617  0.00  0.00     0.156 HD
ENDBRANCH  12  21
TORSDOF 2
ENDMDL
MODEL 3
REMARK VINA RESULT:      -6.7     18.741     20.790
REMARK  2 active torsions:
REMARK  status: ('A' for Active; 'I' for Inactive)
REMARK    1  A    between atoms: C_10  and  C_17 
REMARK    2  A    between atoms: C_12  and  N_14 
ROOT
HETATM    1  C   UNK     0      11.053   6.934   3.602  0.00  0.00     0.013 A 
HETATM    2  C   UNK     0      10.464   7.754   2.617  0.00  0.00     0.001 A 
HETATM    3  C   UNK     0       9.063   7.773   2.444  0.00  0.00     0.001 A 
HETATM    4  C   UNK     0       8.233   6.967   3.250  0.00  0.00     0.008 A 
HETATM    5  C   UNK     0       8.828   6.150   4.231  0.00  0.00    -0.043 A 
HETATM    6  C   UNK     0      10.217   6.135   4.403  0.00  0.00    -0.019 A 
HETATM    7  C   UNK     0       8.161   5.244   5.173  0.00  0.00     0.080 A 
HETATM    8  C   UNK     0       9.318   4.709   5.924  0.00  0.00    -0.032 A 
HETATM    9  C   UNK     0      10.518   5.238   5.427  0.00  0.00    -0.016 A 
HETATM   10  C   UNK     0       9.324   3.763   6.980  0.00  0.00    -0.016 A 
HETATM   11  C   UNK     0      10.582   3.337   7.479  0.00  0.00     0.042 A 
HETATM   12  C   UNK     0      11.790   3.848   6.953  0.00  0.00     0.027 A 
HETATM   13  C   UNK     0      11.763   4.823   5.933  0.00  0.00     0.042 A 
ENDROOT
BRANCH  10  14
HETATM   14  C   UNK     0       8.119   3.218   7.504  0.00  0.00    -0.023 A 
HETATM   15  C   UNK     0       7.362   3.938   8.455  0.00  0.00     0.029 A 
HETATM   16  C   UNK     0       6.196   3.367   8.999  0.00  0.00     0.090 A 
HETATM   17  N   UNK     0       5.776   2.119   8.622  0.00  0.00    -0.371 N 
HETATM   18  C   UNK     0       6.486   1.413   7.688  0.00  0.00     0.090 A 
HETATM   19  C   UNK     0       4.570   1.563   9.186  0.00  0.00     0.154 C 
HETATM   20  C   UNK     0       7.652   1.946   7.107  0.00  0.00     0.029 A 
ENDBRANCH  10  14
BRANCH  12  21
HETATM   21  N   UNK     0      12.974   3.390   7.409  0.00  0.00    -0.399 N 
HETATM   22  H   UNK     0      13.353   2.573   7.045  0.00  0.00     0.156 HD
HETATM   23  H   UNK     0      13.453   3.878   8.097  0.00  0.00     0.156 HD
ENDBRANCH  12  21
TORSDOF 2
ENDMDL
MODEL 4
REMARK VINA RESULT:      -6.7      2.048      5.997
REMARK  2 active torsions:
REMARK  status: ('A' for Active; 'I' for Inactive)
REMARK    1  A    between atoms: C_10  and  C_17 
REMARK    2  A    between atoms: C_12  and  N_14 
ROOT
HETATM    1  C   UNK     0      -5.452   6.975  -3.659  0.00  0.00     0.013 A 
HETATM    2  C   UNK     0      -5.757   8.217  -3.062  0.00  0.00     0.001 A 
HETATM    3  C   UNK     0      -7.088   8.539  -2.717  0.00  0.00     0.001 A 
HETATM    4  C   UNK     0      -8.132   7.626  -2.971  0.00  0.00     0.008 A 
HETATM    5  C   UNK     0      -7.820   6.389  -3.568  0.00  0.00    -0.043 A 
HETATM    6  C   UNK     0      -6.501   6.070  -3.907  0.00  0.00    -0.019 A 
HETATM    7  C   UNK     0      -8.741   5.299  -3.914  0.00  0.00     0.080 A 
HETATM    8  C   UNK     0      -7.805   4.303  -4.481  0.00  0.00    -0.032 A 
HETATM    9  C   UNK     0      -6.495   4.801  -4.482  0.00  0.00    -0.016 A 
HETATM   10  C   UNK     0      -8.096   3.021  -5.011  0.00  0.00    -0.016 A 
HETATM   11  C   UNK     0      -7.028   2.285  -5.585  0.00  0.00     0.042 A 
HETATM   12  C   UNK     0      -5.713   2.804  -5.615  0.00  0.00     0.027 A 
HETATM   13  C   UNK     0      -5.435   4.062  -5.041  0.00  0.00     0.042 A 
ENDROOT
BRANCH  10  14
HETATM   14  C   UNK     0      -9.417   2.493  -5.013  0.00  0.00    -0.023 A 
HETATM   15  C   UNK     0     -10.123   2.331  -6.226  0.00  0.00     0.029 A 
HETATM   16  C   UNK     0     -11.446   1.851  -6.209  0.00  0.00     0.090 A 
HETATM   17  N   UNK     0     -12.068   1.534  -5.031  0.00  0.00    -0.371 N 
HETATM   18  C   UNK     0     -11.395   1.666  -3.846  0.00  0.00     0.090 A 
HETATM   19  C   UNK     0     -13.420   1.031  -5.043  0.00  0.00     0.154 C 
HETATM   20  C   UNK     0     -10.068   2.131  -3.813  0.00  0.00     0.029 A 
ENDBRANCH  10  14
BRANCH  12  21
HETATM   21  N   UNK     0      -4.725   2.106  -6.211  0.00  0.00    -0.399 N 
HETATM   22  H   UNK     0      -4.134   1.547  -5.680  0.00  0.00     0.156 HD
HETATM   23  H   UNK     0      -4.605   2.155  -7.173  0.00  0.00     0.156 HD
ENDBRANCH  12  21
TORSDOF 2
ENDMDL
MODEL 5
REMARK VINA RESULT:      -6.7      3.437      4.873
REMARK  2 active torsions:
REMARK  status: ('A' for Active; 'I' for Inactive)
REMARK    1  A    between atoms: C_10  and  C_17 
REMARK    2  A    between atoms: C_12  and  N_14 
ROOT
HETATM    1  C   UNK     0      -6.819   2.549  -4.225  0.00  0.00     0.013 A 
HETATM    2  C   UNK     0      -6.220   1.868  -5.306  0.00  0.00     0.001 A 
HETATM    3  C   UNK     0      -5.399   2.560  -6.222  0.00  0.00     0.001 A 
HETATM    4  C   UNK     0      -5.172   3.944  -6.075  0.00  0.00     0.008 A 
HETATM    5  C   UNK     0      -5.775   4.617  -4.993  0.00  0.00    -0.043 A 
HETATM    6  C   UNK     0      -6.585   3.930  -4.084  0.00  0.00    -0.019 A 
HETATM    7  C   UNK     0      -5.671   6.041  -4.650  0.00  0.00     0.080 A 
HETATM    8  C   UNK     0      -6.503   6.101  -3.428  0.00  0.00    -0.032 A 
HETATM    9  C   UNK     0      -7.046   4.842  -3.136  0.00  0.00    -0.016 A 
HETATM   10  C   UNK     0      -6.805   7.227  -2.620  0.00  0.00    -0.016 A 
HETATM   11  C   UNK     0      -7.709   7.044  -1.543  0.00  0.00     0.042 A 
HETATM   12  C   UNK     0      -8.281   5.780  -1.272  0.00  0.00     0.027 A 
HETATM   13  C   UNK     0      -7.932   4.662  -2.059  0.00  0.00     0.042 A 
ENDROOT
BRANCH  10  14
HETATM   14  C   UNK     0      -6.260   8.512  -2.893  0.00  0.00    -0.023 A 
HETATM   15  C   UNK     0      -6.951   9.422  -3.722  0.00  0.00     0.029 A 
HETATM   16  C   UNK     0      -6.378  10.673  -4.021  0.00  0.00     0.090 A 
HETATM   17  N   UNK     0      -5.155  11.029  -3.519  0.00  0.00    -0.371 N 
HETATM   18  C   UNK     0      -4.477  10.168  -2.697  0.00  0.00     0.090 A 
HETATM   19  C   UNK     0      -4.596  12.322  -3.830  0.00  0.00     0.154 C 
HETATM   20  C   UNK     0      -5.014   8.912  -2.361  0.00  0.00     0.029 A 
ENDBRANCH  10  14
BRANCH  12  21
HETATM   21  N   UNK     0      -9.177   5.643  -0.273  0.00  0.00    -0.399 N 
HETATM   22  H   UNK     0     -10.129   5.681  -0.464  0.00  0.00     0.156 HD
HETATM   23  H   UNK     0      -8.874   5.499   0.637  0.00  0.00     0.156 HD
ENDBRANCH  12  21
TORSDOF 2
ENDMDL
MODEL 6
REMARK VINA RESULT:      -6.6      2.372      3.632
REMARK  2 active torsions:
REMARK  status: ('A' for Active; 'I' for Inactive)
REMARK    1  A    between atoms: C_10  and  C_17 
REMARK    2  A    between atoms: C_12  and  N_14 
ROOT
HETATM    1  C   UNK     0      -7.579   2.514  -5.467  0.00  0.00     0.013 A 
HETATM    2  C   UNK     0      -8.446   1.402  -5.469  0.00  0.00     0.001 A 
HETATM    3  C   UNK     0      -9.531   1.338  -4.567  0.00  0.00     0.001 A 
HETATM    4  C   UNK     0      -9.758   2.382  -3.647  0.00  0.00     0.008 A 
HETATM    5  C   UNK     0      -8.887   3.489  -3.651  0.00  0.00    -0.043 A 
HETATM    6  C   UNK     0      -7.814   3.553  -4.546  0.00  0.00    -0.019 A 
HETATM    7  C   UNK     0      -8.939   4.677  -2.791  0.00  0.00     0.080 A 
HETATM    8  C   UNK     0      -7.782   5.448  -3.298  0.00  0.00    -0.032 A 
HETATM    9  C   UNK     0      -7.127   4.744  -4.318  0.00  0.00    -0.016 A 
HETATM   10  C   UNK     0      -7.297   6.705  -2.856  0.00  0.00    -0.016 A 
HETATM   11  C   UNK     0      -6.104   7.198  -3.445  0.00  0.00     0.042 A 
HETATM   12  C   UNK     0      -5.428   6.469  -4.450  0.00  0.00     0.027 A 
HETATM   13  C   UNK     0      -5.951   5.242  -4.909  0.00  0.00     0.042 A 
ENDROOT
BRANCH  10  14
HETATM   14  C   UNK     0      -7.949   7.440  -1.828  0.00  0.00    -0.023 A 
HETATM   15  C   UNK     0      -9.006   8.323  -2.139  0.00  0.00     0.029 A 
HETATM   16  C   UNK     0      -9.613   9.079  -1.117  0.00  0.00     0.090 A 
HETATM   17  N   UNK     0      -9.197   8.973   0.183  0.00  0.00    -0.371 N 
HETATM   18  C   UNK     0      -8.186   8.108   0.508  0.00  0.00     0.090 A 
HETATM   19  C   UNK     0      -9.844   9.749   1.213  0.00  0.00     0.154 C 
HETATM   20  C   UNK     0      -7.556   7.324  -0.476  0.00  0.00     0.029 A 
ENDBRANCH  10  14
BRANCH  12  21
HETATM   21  N   UNK     0      -4.269   6.934  -4.959  0.00  0.00    -0.399 N 
HETATM   22  H   UNK     0      -3.990   6.675  -5.852  0.00  0.00     0.156 HD
HETATM   23  H   UNK     0      -3.713   7.535  -4.436  0.00  0.00     0.156 HD
ENDBRANCH  12  21
TORSDOF 2
ENDMDL
MODEL 7
REMARK VINA RESULT:      -6.6      3.273      5.093
REMARK  2 active torsions:
REMARK  status: ('A' for Active; 'I' for Inactive)
REMARK    1  A    between atoms: C_10  and  C_17 
REMARK    2  A    between atoms: C_12  and  N_14 
ROOT
HETATM    1  C   UNK     0      -5.091   3.882  -5.627  0.00  0.00     0.013 A 
HETATM    2  C   UNK     0      -5.149   2.507  -5.938  0.00  0.00     0.001 A 
HETATM    3  C   UNK     0      -6.122   1.677  -5.340  0.00  0.00     0.001 A 
HETATM    4  C   UNK     0      -7.046   2.210  -4.417  0.00  0.00     0.008 A 
HETATM    5  C   UNK     0      -6.981   3.583  -4.110  0.00  0.00    -0.043 A 
HETATM    6  C   UNK     0      -6.019   4.405  -4.706  0.00  0.00    -0.019 A 
HETATM    7  C   UNK     0      -7.838   4.340  -3.191  0.00  0.00     0.080 A 
HETATM    8  C   UNK     0      -7.274   5.701  -3.329  0.00  0.00    -0.032 A 
HETATM    9  C   UNK     0      -6.186   5.698  -4.213  0.00  0.00    -0.016 A 
HETATM   10  C   UNK     0      -7.675   6.894  -2.674  0.00  0.00    -0.016 A 
HETATM   11  C   UNK     0      -6.909   8.065  -2.908  0.00  0.00     0.042 A 
HETATM   12  C   UNK     0      -5.792   8.050  -3.774  0.00  0.00     0.027 A 
HETATM   13  C   UNK     0      -5.437   6.865  -4.452  0.00  0.00     0.042 A 
ENDROOT
BRANCH  10  14
HETATM   14  C   UNK     0      -8.779   6.921  -1.779  0.00  0.00    -0.023 A 
HETATM   15  C   UNK     0     -10.081   7.194  -2.255  0.00  0.00     0.029 A 
HETATM   16  C   UNK     0     -11.157   7.263  -1.350  0.00  0.00     0.090 A 
HETATM   17  N   UNK     0     -10.968   7.069  -0.008  0.00  0.00    -0.371 N 
HETATM   18  C   UNK     0      -9.717   6.785   0.471  0.00  0.00     0.090 A 
HETATM   19  C   UNK     0     -12.091   7.133   0.895  0.00  0.00     0.154 C 
HETATM   20  C   UNK     0      -8.611   6.694  -0.395  0.00  0.00     0.029 A 
ENDBRANCH  10  14
BRANCH  12  21
HETATM   21  N   UNK     0      -5.050   9.165  -3.940  0.00  0.00    -0.399 N 
HETATM   22  H   UNK     0      -4.338   9.373  -3.314  0.00  0.00     0.156 HD
HETATM   23  H   UNK     0      -5.221   9.757  -4.689  0.00  0.00     0.156 HD
ENDBRANCH  12  21
TORSDOF 2
ENDMDL
MODEL 8
REMARK VINA RESULT:      -6.6      3.060      5.083
REMARK  2 active torsions:
REMARK  status: ('A' for Active; 'I' for Inactive)
REMARK    1  A    between atoms: C_10  and  C_17 
REMARK    2  A    between atoms: C_12  and  N_14 
ROOT
HETATM    1  C   UNK     0      -7.806   2.931  -3.565  0.00  0.00     0.013 A 
HETATM    2  C   UNK     0      -7.700   1.856  -4.472  0.00  0.00     0.001 A 
HETATM    3  C   UNK     0      -6.861   1.954  -5.604  0.00  0.00     0.001 A 
HETATM    4  C   UNK     0      -6.124   3.131  -5.847  0.00  0.00     0.008 A 
HETATM    5  C   UNK     0      -6.236   4.201  -4.937  0.00  0.00    -0.043 A 
HETATM    6  C   UNK     0      -7.064   4.101  -3.814  0.00  0.00    -0.019 A 
HETATM    7  C   UNK     0      -5.562   5.503  -4.993  0.00  0.00     0.080 A 
HETATM    8  C   UNK     0      -6.082   6.147  -3.767  0.00  0.00    -0.032 A 
HETATM    9  C   UNK     0      -6.984   5.300  -3.108  0.00  0.00    -0.016 A 
HETATM   10  C   UNK     0      -5.804   7.444  -3.265  0.00  0.00    -0.016 A 
HETATM   11  C   UNK     0      -6.505   7.868  -2.106  0.00  0.00     0.042 A 
HETATM   12  C   UNK     0      -7.438   7.024  -1.464  0.00  0.00     0.027 A 
HETATM   13  C   UNK     0      -7.667   5.720  -1.952  0.00  0.00     0.042 A 
ENDROOT
BRANCH  10  14
HETATM   14  C   UNK     0      -4.887   8.317  -3.912  0.00  0.00    -0.023 A 
HETATM   15  C   UNK     0      -5.353   9.350  -4.754  0.00  0.00     0.029 A 
HETATM   16  C   UNK     0      -4.433  10.178  -5.425  0.00  0.00     0.090 A 
HETATM   17  N   UNK     0      -3.083  10.001  -5.276  0.00  0.00    -0.371 N 
HETATM   18  C   UNK     0      -2.610   9.017  -4.449  0.00  0.00     0.090 A 
HETATM   19  C   UNK     0      -2.162  10.871  -5.964  0.00  0.00     0.154 C 
HETATM   20  C   UNK     0      -3.491   8.172  -3.749  0.00  0.00     0.029 A 
ENDBRANCH  10  14
BRANCH  12  21
HETATM   21  N   UNK     0      -8.129   7.470  -0.394  0.00  0.00    -0.399 N 
HETATM   22  H   UNK     0      -8.814   8.150  -0.505  0.00  0.00     0.156 HD
HETATM   23  H   UNK     0      -7.949   7.107   0.487  0.00  0.00     0.156 HD
ENDBRANCH  12  21
TORSDOF 2
ENDMDL
MODEL 9
REMARK VINA RESULT:      -6.5     13.741     15.243
REMARK  2 active torsions:
REMARK  status: ('A' for Active; 'I' for Inactive)
REMARK    1  A    between atoms: C_10  and  C_17 
REMARK    2  A    between atoms: C_12  and  N_14 
ROOT
HETATM    1  C   UNK     0      -6.878  -9.108   8.569  0.00  0.00     0.013 A 
HETATM    2  C   UNK     0      -7.895 -10.037   8.873  0.00  0.00     0.001 A 
HETATM    3  C   UNK     0      -9.014 -10.178   8.024  0.00  0.00     0.001 A 
HETATM    4  C   UNK     0      -9.135  -9.387   6.863  0.00  0.00     0.008 A 
HETATM    5  C   UNK     0      -8.116  -8.460   6.567  0.00  0.00    -0.043 A 
HETATM    6  C   UNK     0      -7.006  -8.323   7.407  0.00  0.00    -0.019 A 
HETATM    7  C   UNK     0      -8.036  -7.547   5.420  0.00  0.00     0.080 A 
HETATM    8  C   UNK     0      -6.746  -6.872   5.681  0.00  0.00    -0.032 A 
HETATM    9  C   UNK     0      -6.176  -7.338   6.875  0.00  0.00    -0.016 A 
HETATM   10  C   UNK     0      -6.110  -5.858   4.920  0.00  0.00    -0.016 A 
HETATM   11  C   UNK     0      -4.910  -5.301   5.433  0.00  0.00     0.042 A 
HETATM   12  C   UNK     0      -4.356  -5.750   6.654  0.00  0.00     0.027 A 
HETATM   13  C   UNK     0      -4.979  -6.792   7.373  0.00  0.00     0.042 A 
ENDROOT
BRANCH  10  14
HETATM   14  C   UNK     0      -6.666  -5.376   3.703  0.00  0.00    -0.023 A 
HETATM   15  C   UNK     0      -7.697  -4.411   3.719  0.00  0.00     0.029 A 
HETATM   16  C   UNK     0      -8.269  -3.976   2.508  0.00  0.00     0.090 A 
HETATM   17  N   UNK     0      -7.842  -4.473   1.306  0.00  0.00    -0.371 N 
HETATM   18  C   UNK     0      -6.831  -5.396   1.268  0.00  0.00     0.090 A 
HETATM   19  C   UNK     0      -8.436  -4.001   0.079  0.00  0.00     0.154 C 
HETATM   20  C   UNK     0      -6.220  -5.852   2.450  0.00  0.00     0.029 A 
ENDBRANCH  10  14
BRANCH  12  21
HETATM   21  N   UNK     0      -3.243  -5.170   7.145  0.00  0.00    -0.399 N 
HETATM   22  H   UNK     0      -2.536  -4.885   6.543  0.00  0.00     0.156 HD
HETATM   23  H   UNK     0      -3.147  -5.028   8.100  0.00  0.00     0.156 HD
ENDBRANCH  12  21
TORSDOF 2
ENDMDL
