MODEL 1
REMARK VINA RESULT:      -7.2      0.000      0.000
REMARK  4 active torsions:
REMARK  status: ('A' for Active; 'I' for Inactive)
REMARK    1  A    between atoms: C_11  and  N_14 
REMARK    2  A    between atoms: C_13  and  C_21 
REMARK       I    between atoms: N_14  and  C_15 
REMARK    3  A    between atoms: C_15  and  C_16 
REMARK    4  A    between atoms: C_16  and  C_17 
ROOT
HETATM    1  C   UNK     0      -9.209   6.165  -0.072  0.00  0.00     0.008 A 
HETATM    2  C   UNK     0      -9.323   7.317   0.734  0.00  0.00     0.001 A 
HETATM    3  C   UNK     0      -8.556   8.467   0.450  0.00  0.00     0.001 A 
HETATM    4  C   UNK     0      -7.658   8.473  -0.636  0.00  0.00     0.013 A 
HETATM    5  C   UNK     0      -7.549   7.314  -1.429  0.00  0.00    -0.019 A 
HETATM    6  C   UNK     0      -8.313   6.177  -1.158  0.00  0.00    -0.043 A 
HETATM    7  C   UNK     0      -6.760   7.044  -2.542  0.00  0.00    -0.016 A 
HETATM    8  C   UNK     0      -7.010   5.738  -2.978  0.00  0.00    -0.032 A 
HETATM    9  C   UNK     0      -8.033   5.096  -2.118  0.00  0.00     0.080 A 
HETATM   10  C   UNK     0      -5.849   7.879  -3.212  0.00  0.00     0.042 A 
HETATM   11  C   UNK     0      -5.166   7.394  -4.352  0.00  0.00     0.036 A 
HETATM   12  C   UNK     0      -5.428   6.074  -4.796  0.00  0.00     0.042 A 
HETATM   13  C   UNK     0      -6.340   5.219  -4.118  0.00  0.00    -0.016 A 
ENDROOT
BRANCH  13  14
HETATM   14  C   UNK     0      -6.567   3.897  -4.590  0.00  0.00    -0.023 A 
HETATM   15  C   UNK     0      -7.844   3.497  -5.053  0.00  0.00     0.029 A 
HETATM   16  C   UNK     0      -8.034   2.191  -5.537  0.00  0.00     0.088 A 
HETATM   17  N   UNK     0      -7.001   1.312  -5.541  0.00  0.00    -0.375 N 
HETATM   18  C   UNK     0      -5.765   1.643  -5.084  0.00  0.00     0.088 A 
HETATM   19  HN  UNK     0      -7.156   0.370  -5.899  1.00  0.00     0.164 HD
HETATM   20  C   UNK     0      -5.521   2.942  -4.596  0.00  0.00     0.029 A 
ENDBRANCH  13  14
BRANCH  11  21
HETATM   21  N   UNK     0      -4.305   8.165  -5.088  0.00  0.00    -0.327 N 
HETATM   22  C   UNK     0      -3.058   8.608  -4.744  0.00  0.00     0.223 C 
HETATM   23  O   UNK     0      -2.461   8.204  -3.717  0.00  0.00    -0.273 OA
HETATM   24  H   UNK     0      -4.613   8.419  -5.973  0.00  0.00     0.169 HD
BRANCH  22  25
HETATM   25  C   UNK     0      -2.371   9.587  -5.614  0.00  0.00     0.118 C 
BRANCH  25  26
HETATM   26  C   UNK     0      -1.081  10.126  -4.948  0.00  0.00     0.124 C 
HETATM   27 Cl   UNK     0       0.334   9.226  -5.481  0.00  0.00    -0.130 Cl
ENDBRANCH  25  26
ENDBRANCH  22  25
ENDBRANCH  11  21
TORSDOF 4
ENDMDL
MODEL 2
REMARK VINA RESULT:      -7.1      2.920      6.028
REMARK  4 active torsions:
REMARK  status: ('A' for Active; 'I' for Inactive)
REMARK    1  A    between atoms: C_11  and  N_14 
REMARK    2  A    between atoms: C_13  and  C_21 
REMARK       I    between atoms: N_14  and  C_15 
REMARK    3  A    between atoms: C_15  and  C_16 
REMARK    4  A    between atoms: C_16  and  C_17 
ROOT
HETATM    1  C   UNK     0      -6.563   9.775   0.348  0.00  0.00     0.008 A 
HETATM    2  C   UNK     0      -7.620   9.367   1.188  0.00  0.00     0.001 A 
HETATM    3  C   UNK     0      -8.370   8.210   0.884  0.00  0.00     0.001 A 
HETATM    4  C   UNK     0      -8.078   7.456  -0.270  0.00  0.00     0.013 A 
HETATM    5  C   UNK     0      -7.024   7.877  -1.104  0.00  0.00    -0.019 A 
HETATM    6  C   UNK     0      -6.273   9.016  -0.802  0.00  0.00    -0.043 A 
HETATM    7  C   UNK     0      -6.525   7.336  -2.284  0.00  0.00    -0.016 A 
HETATM    8  C   UNK     0      -5.464   8.127  -2.742  0.00  0.00    -0.032 A 
HETATM    9  C   UNK     0      -5.229   9.257  -1.812  0.00  0.00     0.080 A 
HETATM   10  C   UNK     0      -6.928   6.180  -2.973  0.00  0.00     0.042 A 
HETATM   11  C   UNK     0      -6.251   5.801  -4.157  0.00  0.00     0.036 A 
HETATM   12  C   UNK     0      -5.172   6.599  -4.612  0.00  0.00     0.042 A 
HETATM   13  C   UNK     0      -4.765   7.776  -3.927  0.00  0.00    -0.016 A 
ENDROOT
BRANCH  13  14
HETATM   14  C   UNK     0      -3.684   8.555  -4.423  0.00  0.00    -0.023 A 
HETATM   15  C   UNK     0      -2.351   8.291  -4.024  0.00  0.00     0.029 A 
HETATM   16  C   UNK     0      -1.299   9.060  -4.550  0.00  0.00     0.088 A 
HETATM   17  N   UNK     0      -1.564  10.066  -5.421  0.00  0.00    -0.375 N 
HETATM   18  C   UNK     0      -2.828  10.372  -5.813  0.00  0.00     0.088 A 
HETATM   19  HN  UNK     0      -0.788  10.612  -5.794  1.00  0.00     0.164 HD
HETATM   20  C   UNK     0      -3.916   9.626  -5.321  0.00  0.00     0.029 A 
ENDBRANCH  13  14
BRANCH  11  21
HETATM   21  N   UNK     0      -6.552   4.660  -4.854  0.00  0.00    -0.327 N 
HETATM   22  C   UNK     0      -5.978   3.424  -4.746  0.00  0.00     0.223 C 
HETATM   23  O   UNK     0      -5.169   3.136  -3.832  0.00  0.00    -0.273 OA
HETATM   24  H   UNK     0      -7.274   4.735  -5.500  0.00  0.00     0.169 HD
BRANCH  22  25
HETATM   25  C   UNK     0      -6.327   2.376  -5.729  0.00  0.00     0.118 C 
BRANCH  25  26
HETATM   26  C   UNK     0      -7.817   1.970  -5.616  0.00  0.00     0.124 C 
HETATM   27 Cl   UNK     0      -8.299   1.780  -3.935  0.00  0.00    -0.130 Cl
ENDBRANCH  25  26
ENDBRANCH  22  25
ENDBRANCH  11  21
TORSDOF 4
ENDMDL
MODEL 3
REMARK VINA RESULT:      -6.9     17.636     19.793
REMARK  4 active torsions:
REMARK  status: ('A' for Active; 'I' for Inactive)
REMARK    1  A    between atoms: C_11  and  N_14 
REMARK    2  A    between atoms: C_13  and  C_21 
REMARK       I    between atoms: N_14  and  C_15 
REMARK    3  A    between atoms: C_15  and  C_16 
REMARK    4  A    between atoms: C_16  and  C_17 
ROOT
HETATM    1  C   UNK     0      10.877   6.799   4.459  0.00  0.00     0.008 A 
HETATM    2  C   UNK     0       9.997   7.699   3.822  0.00  0.00     0.001 A 
HETATM    3  C   UNK     0       8.600   7.527   3.926  0.00  0.00     0.001 A 
HETATM    4  C   UNK     0       8.068   6.446   4.657  0.00  0.00     0.013 A 
HETATM    5  C   UNK     0       8.957   5.551   5.283  0.00  0.00    -0.019 A 
HETATM    6  C   UNK     0      10.341   5.722   5.191  0.00  0.00    -0.043 A 
HETATM    7  C   UNK     0       8.717   4.419   6.054  0.00  0.00    -0.016 A 
HETATM    8  C   UNK     0       9.939   3.862   6.449  0.00  0.00    -0.032 A 
HETATM    9  C   UNK     0      11.065   4.670   5.925  0.00  0.00     0.080 A 
HETATM   10  C   UNK     0       7.492   3.856   6.450  0.00  0.00     0.042 A 
HETATM   11  C   UNK     0       7.486   2.700   7.267  0.00  0.00     0.036 A 
HETATM   12  C   UNK     0       8.725   2.144   7.672  0.00  0.00     0.042 A 
HETATM   13  C   UNK     0       9.969   2.701   7.267  0.00  0.00    -0.016 A 
ENDROOT
BRANCH  13  14
HETATM   14  C   UNK     0      11.190   2.106   7.687  0.00  0.00    -0.023 A 
HETATM   15  C   UNK     0      11.725   2.368   8.972  0.00  0.00     0.029 A 
HETATM   16  C   UNK     0      12.921   1.746   9.371  0.00  0.00     0.088 A 
HETATM   17  N   UNK     0      13.570   0.914   8.518  0.00  0.00    -0.375 N 
HETATM   18  C   UNK     0      13.108   0.653   7.268  0.00  0.00     0.088 A 
HETATM   19  HN  UNK     0      14.435   0.470   8.826  1.00  0.00     0.164 HD
HETATM   20  C   UNK     0      11.910   1.245   6.824  0.00  0.00     0.029 A 
ENDBRANCH  13  14
BRANCH  11  21
HETATM   21  N   UNK     0       6.335   2.125   7.736  0.00  0.00    -0.327 N 
HETATM   22  C   UNK     0       5.643   2.421   8.878  0.00  0.00     0.223 C 
HETATM   23  O   UNK     0       5.914   3.419   9.588  0.00  0.00    -0.273 OA
HETATM   24  H   UNK     0       5.952   1.426   7.181  0.00  0.00     0.169 HD
BRANCH  22  25
HETATM   25  C   UNK     0       4.523   1.549   9.293  0.00  0.00     0.118 C 
BRANCH  25  26
HETATM   26  C   UNK     0       4.966   0.068   9.388  0.00  0.00     0.124 C 
HETATM   27 Cl   UNK     0       3.583  -0.998   9.610  0.00  0.00    -0.130 Cl
ENDBRANCH  25  26
ENDBRANCH  22  25
ENDBRANCH  11  21
TORSDOF 4
ENDMDL
MODEL 4
REMARK VINA RESULT:      -6.8      1.881      5.069
REMARK  4 active torsions:
REMARK  status: ('A' for Active; 'I' for Inactive)
REMARK    1  A    between atoms: C_11  and  N_14 
REMARK    2  A    between atoms: C_13  and  C_21 
REMARK       I    between atoms: N_14  and  C_15 
REMARK    3  A    between atoms: C_15  and  C_16 
REMARK    4  A    between atoms: C_16  and  C_17 
ROOT
HETATM    1  C   UNK     0      -7.734   2.520  -3.757  0.00  0.00     0.008 A 
HETATM    2  C   UNK     0      -7.360   1.680  -4.827  0.00  0.00     0.001 A 
HETATM    3  C   UNK     0      -6.455   2.134  -5.810  0.00  0.00     0.001 A 
HETATM    4  C   UNK     0      -5.924   3.438  -5.740  0.00  0.00     0.013 A 
HETATM    5  C   UNK     0      -6.310   4.269  -4.670  0.00  0.00    -0.019 A 
HETATM    6  C   UNK     0      -7.198   3.820  -3.690  0.00  0.00    -0.043 A 
HETATM    7  C   UNK     0      -5.949   5.575  -4.356  0.00  0.00    -0.016 A 
HETATM    8  C   UNK     0      -6.609   5.966  -3.185  0.00  0.00    -0.032 A 
HETATM    9  C   UNK     0      -7.451   4.857  -2.675  0.00  0.00     0.080 A 
HETATM   10  C   UNK     0      -5.062   6.438  -5.021  0.00  0.00     0.042 A 
HETATM   11  C   UNK     0      -4.826   7.732  -4.501  0.00  0.00     0.036 A 
HETATM   12  C   UNK     0      -5.488   8.122  -3.310  0.00  0.00     0.042 A 
HETATM   13  C   UNK     0      -6.396   7.259  -2.637  0.00  0.00    -0.016 A 
ENDROOT
BRANCH  13  14
HETATM   14  C   UNK     0      -7.049   7.691  -1.450  0.00  0.00    -0.023 A 
HETATM   15  C   UNK     0      -8.417   8.058  -1.462  0.00  0.00     0.029 A 
HETATM   16  C   UNK     0      -9.043   8.457  -0.269  0.00  0.00     0.088 A 
HETATM   17  N   UNK     0      -8.333   8.511   0.885  0.00  0.00    -0.375 N 
HETATM   18  C   UNK     0      -7.013   8.193   0.940  0.00  0.00     0.088 A 
HETATM   19  HN  UNK     0      -8.805   8.800   1.742  1.00  0.00     0.164 HD
HETATM   20  C   UNK     0      -6.341   7.779  -0.226  0.00  0.00     0.029 A 
ENDBRANCH  13  14
BRANCH  11  21
HETATM   21  N   UNK     0      -3.936   8.610  -5.063  0.00  0.00    -0.327 N 
HETATM   22  C   UNK     0      -2.625   8.813  -4.737  0.00  0.00     0.223 C 
HETATM   23  O   UNK     0      -2.005   8.063  -3.945  0.00  0.00    -0.273 OA
HETATM   24  H   UNK     0      -4.277   9.149  -5.795  0.00  0.00     0.169 HD
BRANCH  22  25
HETATM   25  C   UNK     0      -1.894   9.945  -5.346  0.00  0.00     0.118 C 
BRANCH  25  26
HETATM   26  C   UNK     0      -0.772  10.461  -4.411  0.00  0.00     0.124 C 
HETATM   27 Cl   UNK     0       0.793   9.802  -4.871  0.00  0.00    -0.130 Cl
ENDBRANCH  25  26
ENDBRANCH  22  25
ENDBRANCH  11  21
TORSDOF 4
ENDMDL
MODEL 5
REMARK VINA RESULT:      -6.8      2.267      5.101
REMARK  4 active torsions:
REMARK  status: ('A' for Active; 'I' for Inactive)
REMARK    1  A    between atoms: C_11  and  N_14 
REMARK    2  A    between atoms: C_13  and  C_21 
REMARK       I    between atoms: N_14  and  C_15 
REMARK    3  A    between atoms: C_15  and  C_16 
REMARK    4  A    between atoms: C_16  and  C_17 
ROOT
HETATM    1  C   UNK     0      -7.143   2.164  -4.495  0.00  0.00     0.008 A 
HETATM    2  C   UNK     0      -6.181   1.637  -5.382  0.00  0.00     0.001 A 
HETATM    3  C   UNK     0      -5.150   2.457  -5.888  0.00  0.00     0.001 A 
HETATM    4  C   UNK     0      -5.076   3.815  -5.522  0.00  0.00     0.013 A 
HETATM    5  C   UNK     0      -6.046   4.331  -4.640  0.00  0.00    -0.019 A 
HETATM    6  C   UNK     0      -7.063   3.522  -4.129  0.00  0.00    -0.043 A 
HETATM    7  C   UNK     0      -6.213   5.610  -4.118  0.00  0.00    -0.016 A 
HETATM    8  C   UNK     0      -7.337   5.623  -3.284  0.00  0.00    -0.032 A 
HETATM    9  C   UNK     0      -7.953   4.276  -3.231  0.00  0.00     0.080 A 
HETATM   10  C   UNK     0      -5.430   6.760  -4.313  0.00  0.00     0.042 A 
HETATM   11  C   UNK     0      -5.780   7.962  -3.653  0.00  0.00     0.036 A 
HETATM   12  C   UNK     0      -6.913   7.970  -2.801  0.00  0.00     0.042 A 
HETATM   13  C   UNK     0      -7.717   6.814  -2.608  0.00  0.00    -0.016 A 
ENDROOT
BRANCH  13  14
HETATM   14  C   UNK     0      -8.852   6.866  -1.753  0.00  0.00    -0.023 A 
HETATM   15  C   UNK     0     -10.143   7.132  -2.271  0.00  0.00     0.029 A 
HETATM   16  C   UNK     0     -11.251   7.152  -1.407  0.00  0.00     0.088 A 
HETATM   17  N   UNK     0     -11.080   6.937  -0.078  0.00  0.00    -0.375 N 
HETATM   18  C   UNK     0      -9.858   6.702   0.466  0.00  0.00     0.088 A 
HETATM   19  HN  UNK     0     -11.896   6.953   0.533  1.00  0.00     0.164 HD
HETATM   20  C   UNK     0      -8.717   6.664  -0.358  0.00  0.00     0.029 A 
ENDBRANCH  13  14
BRANCH  11  21
HETATM   21  N   UNK     0      -5.036   9.109  -3.751  0.00  0.00    -0.327 N 
HETATM   22  C   UNK     0      -4.044   9.549  -2.921  0.00  0.00     0.223 C 
HETATM   23  O   UNK     0      -3.563   8.835  -2.009  0.00  0.00    -0.273 OA
HETATM   24  H   UNK     0      -5.231   9.677  -4.514  0.00  0.00     0.169 HD
BRANCH  22  25
HETATM   25  C   UNK     0      -3.497  10.911  -3.105  0.00  0.00     0.118 C 
BRANCH  25  26
HETATM   26  C   UNK     0      -2.795  11.057  -4.478  0.00  0.00     0.124 C 
HETATM   27 Cl   UNK     0      -1.671   9.733  -4.761  0.00  0.00    -0.130 Cl
ENDBRANCH  25  26
ENDBRANCH  22  25
ENDBRANCH  11  21
TORSDOF 4
ENDMDL
MODEL 6
REMARK VINA RESULT:      -6.7     17.248     19.589
REMARK  4 active torsions:
REMARK  status: ('A' for Active; 'I' for Inactive)
REMARK    1  A    between atoms: C_11  and  N_14 
REMARK    2  A    between atoms: C_13  and  C_21 
REMARK       I    between atoms: N_14  and  C_15 
REMARK    3  A    between atoms: C_15  and  C_16 
REMARK    4  A    between atoms: C_16  and  C_17 
ROOT
HETATM    1  C   UNK     0      10.706   6.675   3.222  0.00  0.00     0.008 A 
HETATM    2  C   UNK     0       9.777   7.504   2.559  0.00  0.00     0.001 A 
HETATM    3  C   UNK     0       8.416   7.492   2.929  0.00  0.00     0.001 A 
HETATM    4  C   UNK     0       7.965   6.642   3.959  0.00  0.00     0.013 A 
HETATM    5  C   UNK     0       8.901   5.814   4.609  0.00  0.00    -0.019 A 
HETATM    6  C   UNK     0      10.252   5.830   4.253  0.00  0.00    -0.043 A 
HETATM    7  C   UNK     0       8.741   4.895   5.641  0.00  0.00    -0.016 A 
HETATM    8  C   UNK     0       9.981   4.317   5.939  0.00  0.00    -0.032 A 
HETATM    9  C   UNK     0      11.036   4.888   5.069  0.00  0.00     0.080 A 
HETATM   10  C   UNK     0       7.579   4.546   6.350  0.00  0.00     0.042 A 
HETATM   11  C   UNK     0       7.658   3.590   7.390  0.00  0.00     0.036 A 
HETATM   12  C   UNK     0       8.916   3.013   7.696  0.00  0.00     0.042 A 
HETATM   13  C   UNK     0      10.094   3.353   6.976  0.00  0.00    -0.016 A 
ENDROOT
BRANCH  13  14
HETATM   14  C   UNK     0      11.335   2.743   7.307  0.00  0.00    -0.023 A 
HETATM   15  C   UNK     0      11.648   1.436   6.860  0.00  0.00     0.029 A 
HETATM   16  C   UNK     0      12.893   0.868   7.181  0.00  0.00     0.088 A 
HETATM   17  N   UNK     0      13.783   1.564   7.933  0.00  0.00    -0.375 N 
HETATM   18  C   UNK     0      13.517   2.809   8.404  0.00  0.00     0.088 A 
HETATM   19  HN  UNK     0      14.682   1.137   8.153  1.00  0.00     0.164 HD
HETATM   20  C   UNK     0      12.286   3.426   8.104  0.00  0.00     0.029 A 
ENDBRANCH  13  14
BRANCH  11  21
HETATM   21  N   UNK     0       6.580   3.238   8.160  0.00  0.00    -0.327 N 
HETATM   22  C   UNK     0       5.911   2.046   8.188  0.00  0.00     0.223 C 
HETATM   23  O   UNK     0       6.329   1.026   7.590  0.00  0.00    -0.273 OA
HETATM   24  H   UNK     0       6.258   3.917   8.775  0.00  0.00     0.169 HD
BRANCH  22  25
HETATM   25  C   UNK     0       4.655   1.939   8.961  0.00  0.00     0.118 C 
BRANCH  25  26
HETATM   26  C   UNK     0       4.754   0.844  10.051  0.00  0.00     0.124 C 
HETATM   27 Cl   UNK     0       3.945  -0.635   9.544  0.00  0.00    -0.130 Cl
ENDBRANCH  25  26
ENDBRANCH  22  25
ENDBRANCH  11  21
TORSDOF 4
ENDMDL
MODEL 7
REMARK VINA RESULT:      -6.7      3.454      4.756
REMARK  4 active torsions:
REMARK  status: ('A' for Active; 'I' for Inactive)
REMARK    1  A    between atoms: C_11  and  N_14 
REMARK    2  A    between atoms: C_13  and  C_21 
REMARK       I    between atoms: N_14  and  C_15 
REMARK    3  A    between atoms: C_15  and  C_16 
REMARK    4  A    between atoms: C_16  and  C_17 
ROOT
HETATM    1  C   UNK     0     -12.333   3.964  -5.282  0.00  0.00     0.008 A 
HETATM    2  C   UNK     0     -13.532   4.551  -4.826  0.00  0.00     0.001 A 
HETATM    3  C   UNK     0     -13.515   5.478  -3.762  0.00  0.00     0.001 A 
HETATM    4  C   UNK     0     -12.300   5.821  -3.135  0.00  0.00     0.013 A 
HETATM    5  C   UNK     0     -11.111   5.223  -3.596  0.00  0.00    -0.019 A 
HETATM    6  C   UNK     0     -11.121   4.311  -4.654  0.00  0.00    -0.043 A 
HETATM    7  C   UNK     0      -9.794   5.373  -3.173  0.00  0.00    -0.016 A 
HETATM    8  C   UNK     0      -8.965   4.555  -3.950  0.00  0.00    -0.032 A 
HETATM    9  C   UNK     0      -9.766   3.824  -4.960  0.00  0.00     0.080 A 
HETATM   10  C   UNK     0      -9.272   6.196  -2.161  0.00  0.00     0.042 A 
HETATM   11  C   UNK     0      -7.878   6.205  -1.918  0.00  0.00     0.036 A 
HETATM   12  C   UNK     0      -7.040   5.383  -2.712  0.00  0.00     0.042 A 
HETATM   13  C   UNK     0      -7.561   4.538  -3.730  0.00  0.00    -0.016 A 
ENDROOT
BRANCH  13  14
HETATM   14  C   UNK     0      -6.688   3.720  -4.498  0.00  0.00    -0.023 A 
HETATM   15  C   UNK     0      -5.794   4.289  -5.438  0.00  0.00     0.029 A 
HETATM   16  C   UNK     0      -4.924   3.459  -6.165  0.00  0.00     0.088 A 
HETATM   17  N   UNK     0      -4.956   2.116  -5.981  0.00  0.00    -0.375 N 
HETATM   18  C   UNK     0      -5.812   1.523  -5.109  0.00  0.00     0.088 A 
HETATM   19  HN  UNK     0      -4.315   1.529  -6.515  1.00  0.00     0.164 HD
HETATM   20  C   UNK     0      -6.699   2.312  -4.350  0.00  0.00     0.029 A 
ENDBRANCH  13  14
BRANCH  11  21
HETATM   21  N   UNK     0      -7.290   7.019  -0.986  0.00  0.00    -0.327 N 
HETATM   22  C   UNK     0      -6.742   8.258  -1.168  0.00  0.00     0.223 C 
HETATM   23  O   UNK     0      -6.864   8.896  -2.241  0.00  0.00    -0.273 OA
HETATM   24  H   UNK     0      -7.270   6.678  -0.077  0.00  0.00     0.169 HD
BRANCH  22  25
HETATM   25  C   UNK     0      -5.989   8.887  -0.060  0.00  0.00     0.118 C 
BRANCH  25  26
HETATM   26  C   UNK     0      -4.661   8.140   0.214  0.00  0.00     0.124 C 
HETATM   27 Cl   UNK     0      -4.305   8.085   1.937  0.00  0.00    -0.130 Cl
ENDBRANCH  25  26
ENDBRANCH  22  25
ENDBRANCH  11  21
TORSDOF 4
ENDMDL
MODEL 8
REMARK VINA RESULT:      -6.6     17.385     19.652
REMARK  4 active torsions:
REMARK  status: ('A' for Active; 'I' for Inactive)
REMARK    1  A    between atoms: C_11  and  N_14 
REMARK    2  A    between atoms: C_13  and  C_21 
REMARK       I    between atoms: N_14  and  C_15 
REMARK    3  A    between atoms: C_15  and  C_16 
REMARK    4  A    between atoms: C_16  and  C_17 
ROOT
HETATM    1  C   UNK     0      12.060   7.274   9.596  0.00  0.00     0.008 A 
HETATM    2  C   UNK     0      12.290   7.036  10.968  0.00  0.00     0.001 A 
HETATM    3  C   UNK     0      11.591   6.012  11.643  0.00  0.00     0.001 A 
HETATM    4  C   UNK     0      10.646   5.223  10.957  0.00  0.00     0.013 A 
HETATM    5  C   UNK     0      10.421   5.475   9.589  0.00  0.00    -0.019 A 
HETATM    6  C   UNK     0      11.117   6.481   8.914  0.00  0.00    -0.043 A 
HETATM    7  C   UNK     0       9.564   4.864   8.680  0.00  0.00    -0.016 A 
HETATM    8  C   UNK     0       9.703   5.479   7.430  0.00  0.00    -0.032 A 
HETATM    9  C   UNK     0      10.718   6.556   7.498  0.00  0.00     0.080 A 
HETATM   10  C   UNK     0       8.682   3.787   8.873  0.00  0.00     0.042 A 
HETATM   11  C   UNK     0       7.916   3.308   7.785  0.00  0.00     0.036 A 
HETATM   12  C   UNK     0       8.065   3.927   6.518  0.00  0.00     0.042 A 
HETATM   13  C   UNK     0       8.946   5.025   6.317  0.00  0.00    -0.016 A 
ENDROOT
BRANCH  13  14
HETATM   14  C   UNK     0       9.060   5.625   5.033  0.00  0.00    -0.023 A 
HETATM   15  C   UNK     0       8.160   6.638   4.620  0.00  0.00     0.029 A 
HETATM   16  C   UNK     0       8.312   7.233   3.355  0.00  0.00     0.088 A 
HETATM   17  N   UNK     0       9.304   6.821   2.526  0.00  0.00    -0.375 N 
HETATM   18  C   UNK     0      10.174   5.837   2.870  0.00  0.00     0.088 A 
HETATM   19  HN  UNK     0       9.400   7.266   1.614  1.00  0.00     0.164 HD
HETATM   20  C   UNK     0      10.069   5.215   4.129  0.00  0.00     0.029 A 
ENDBRANCH  13  14
BRANCH  11  21
HETATM   21  N   UNK     0       7.076   2.230   7.882  0.00  0.00    -0.327 N 
HETATM   22  C   UNK     0       5.952   2.097   8.649  0.00  0.00     0.223 C 
HETATM   23  O   UNK     0       5.443   3.061   9.270  0.00  0.00    -0.273 OA
HETATM   24  H   UNK     0       7.299   1.466   7.325  0.00  0.00     0.169 HD
BRANCH  22  25
HETATM   25  C   UNK     0       5.294   0.776   8.747  0.00  0.00     0.118 C 
BRANCH  25  26
HETATM   26  C   UNK     0       4.081   0.819   9.708  0.00  0.00     0.124 C 
HETATM   27 Cl   UNK     0       3.231  -0.721   9.730  0.00  0.00    -0.130 Cl
ENDBRANCH  25  26
ENDBRANCH  22  25
ENDBRANCH  11  21
TORSDOF 4
ENDMDL
MODEL 9
REMARK VINA RESULT:      -6.6      3.655      7.020
REMARK  4 active torsions:
REMARK  status: ('A' for Active; 'I' for Inactive)
REMARK    1  A    between atoms: C_11  and  N_14 
REMARK    2  A    between atoms: C_13  and  C_21 
REMARK       I    between atoms: N_14  and  C_15 
REMARK    3  A    between atoms: C_15  and  C_16 
REMARK    4  A    between atoms: C_16  and  C_17 
ROOT
HETATM    1  C   UNK     0      -6.072   3.147  -5.906  0.00  0.00     0.008 A 
HETATM    2  C   UNK     0      -6.799   1.980  -5.586  0.00  0.00     0.001 A 
HETATM    3  C   UNK     0      -7.573   1.921  -4.408  0.00  0.00     0.001 A 
HETATM    4  C   UNK     0      -7.620   3.022  -3.530  0.00  0.00     0.013 A 
HETATM    5  C   UNK     0      -6.885   4.179  -3.857  0.00  0.00    -0.019 A 
HETATM    6  C   UNK     0      -6.125   4.246  -5.027  0.00  0.00    -0.043 A 
HETATM    7  C   UNK     0      -6.751   5.391  -3.189  0.00  0.00    -0.016 A 
HETATM    8  C   UNK     0      -5.902   6.230  -3.922  0.00  0.00    -0.032 A 
HETATM    9  C   UNK     0      -5.449   5.549  -5.158  0.00  0.00     0.080 A 
HETATM   10  C   UNK     0      -7.342   5.816  -1.987  0.00  0.00     0.042 A 
HETATM   11  C   UNK     0      -7.078   7.118  -1.501  0.00  0.00     0.036 A 
HETATM   12  C   UNK     0      -6.225   7.967  -2.250  0.00  0.00     0.042 A 
HETATM   13  C   UNK     0      -5.614   7.542  -3.461  0.00  0.00    -0.016 A 
ENDROOT
BRANCH  13  14
HETATM   14  C   UNK     0      -4.756   8.422  -4.177  0.00  0.00    -0.023 A 
HETATM   15  C   UNK     0      -3.356   8.211  -4.206  0.00  0.00     0.029 A 
HETATM   16  C   UNK     0      -2.534   9.081  -4.943  0.00  0.00     0.088 A 
HETATM   17  N   UNK     0      -3.081  10.130  -5.607  0.00  0.00    -0.375 N 
HETATM   18  C   UNK     0      -4.414  10.385  -5.588  0.00  0.00     0.088 A 
HETATM   19  HN  UNK     0      -2.469  10.749  -6.139  1.00  0.00     0.164 HD
HETATM   20  C   UNK     0      -5.281   9.539  -4.870  0.00  0.00     0.029 A 
ENDBRANCH  13  14
BRANCH  11  21
HETATM   21  N   UNK     0      -7.658   7.621  -0.366  0.00  0.00    -0.327 N 
HETATM   22  C   UNK     0      -8.737   8.454  -0.263  0.00  0.00     0.223 C 
HETATM   23  O   UNK     0      -9.459   8.743  -1.247  0.00  0.00    -0.273 OA
HETATM   24  H   UNK     0      -7.260   7.341   0.474  0.00  0.00     0.169 HD
BRANCH  22  25
HETATM   25  C   UNK     0      -9.085   9.028   1.055  0.00  0.00     0.118 C 
BRANCH  25  26
HETATM   26  C   UNK     0     -10.542   8.685   1.453  0.00  0.00     0.124 C 
HETATM   27 Cl   UNK     0     -10.853   6.959   1.300  0.00  0.00    -0.130 Cl
ENDBRANCH  25  26
ENDBRANCH  22  25
ENDBRANCH  11  21
TORSDOF 4
ENDMDL
