MODEL 1
REMARK VINA RESULT:      -7.0      0.000      0.000
REMARK  4 active torsions:
REMARK  status: ('A' for Active; 'I' for Inactive)
REMARK    1  A    between atoms: C_11  and  N_14 
REMARK    2  A    between atoms: C_13  and  C_21 
REMARK       I    between atoms: N_14  and  C_15 
REMARK    3  A    between atoms: C_15  and  C_16 
REMARK    4  A    between atoms: C_16  and  C_17 
ROOT
HETATM    1  C   UNK     0      -6.471   9.717   0.380  0.00  0.00     0.016 A 
HETATM    2  C   UNK     0      -7.545   9.337   1.214  0.00  0.00     0.001 A 
HETATM    3  C   UNK     0      -8.347   8.220   0.886  0.00  0.00     0.001 A 
HETATM    4  C   UNK     0      -8.081   7.462  -0.275  0.00  0.00     0.013 A 
HETATM    5  C   UNK     0      -6.998   7.843  -1.092  0.00  0.00    -0.011 A 
HETATM    6  C   UNK     0      -6.214   8.955  -0.775  0.00  0.00     0.026 A 
HETATM    7  C   UNK     0      -6.492   7.295  -2.272  0.00  0.00    -0.008 A 
HETATM    8  C   UNK     0      -5.424   8.087  -2.712  0.00  0.00     0.037 A 
HETATM    9  C   UNK     0      -5.238   9.108  -1.761  0.00  0.00     0.195 A 
HETATM   10  C   UNK     0      -6.890   6.146  -2.972  0.00  0.00     0.043 A 
HETATM   11  C   UNK     0      -6.214   5.790  -4.164  0.00  0.00     0.036 A 
HETATM   12  C   UNK     0      -5.150   6.611  -4.613  0.00  0.00     0.043 A 
HETATM   13  C   UNK     0      -4.738   7.776  -3.912  0.00  0.00    -0.009 A 
HETATM   14  O   UNK     0      -4.353   9.994  -1.757  0.00  0.00    -0.287 OA
ENDROOT
BRANCH  13  15
HETATM   15  C   UNK     0      -3.686   8.584  -4.426  0.00  0.00    -0.022 A 
HETATM   16  C   UNK     0      -3.957   9.660  -5.305  0.00  0.00     0.029 A 
HETATM   17  C   UNK     0      -2.895  10.432  -5.808  0.00  0.00     0.088 A 
HETATM   18  N   UNK     0      -1.619  10.135  -5.456  0.00  0.00    -0.375 N 
HETATM   19  C   UNK     0      -1.313   9.112  -4.619  0.00  0.00     0.088 A 
HETATM   20  HN  UNK     0      -0.860  10.703  -5.835  1.00  0.00     0.164 HD
HETATM   21  C   UNK     0      -2.340   8.316  -4.081  0.00  0.00     0.029 A 
ENDBRANCH  13  15
BRANCH  11  22
HETATM   22  N   UNK     0      -6.509   4.676  -4.902  0.00  0.00    -0.327 N 
HETATM   23  C   UNK     0      -5.978   3.422  -4.783  0.00  0.00     0.223 C 
HETATM   24  O   UNK     0      -5.171   3.114  -3.874  0.00  0.00    -0.273 OA
HETATM   25  H   UNK     0      -7.198   4.785  -5.577  0.00  0.00     0.169 HD
BRANCH  23  26
HETATM   26  C   UNK     0      -6.389   2.363  -5.729  0.00  0.00     0.118 C 
BRANCH  26  27
HETATM   27  C   UNK     0      -7.841   1.889  -5.477  0.00  0.00     0.124 C 
HETATM   28 Cl   UNK     0      -8.208   1.854  -3.755  0.00  0.00    -0.130 Cl
ENDBRANCH  26  27
ENDBRANCH  23  26
ENDBRANCH  11  22
TORSDOF 4
ENDMDL
MODEL 2
REMARK VINA RESULT:      -6.8     17.289     18.964
REMARK  4 active torsions:
REMARK  status: ('A' for Active; 'I' for Inactive)
REMARK    1  A    between atoms: C_11  and  N_14 
REMARK    2  A    between atoms: C_13  and  C_21 
REMARK       I    between atoms: N_14  and  C_15 
REMARK    3  A    between atoms: C_15  and  C_16 
REMARK    4  A    between atoms: C_16  and  C_17 
ROOT
HETATM    1  C   UNK     0      10.881   6.808   4.615  0.00  0.00     0.016 A 
HETATM    2  C   UNK     0      10.022   7.710   3.952  0.00  0.00     0.001 A 
HETATM    3  C   UNK     0       8.622   7.523   3.987  0.00  0.00     0.001 A 
HETATM    4  C   UNK     0       8.060   6.438   4.694  0.00  0.00     0.013 A 
HETATM    5  C   UNK     0       8.927   5.552   5.363  0.00  0.00    -0.011 A 
HETATM    6  C   UNK     0      10.312   5.728   5.316  0.00  0.00     0.026 A 
HETATM    7  C   UNK     0       8.674   4.418   6.137  0.00  0.00    -0.008 A 
HETATM    8  C   UNK     0       9.897   3.865   6.536  0.00  0.00     0.037 A 
HETATM    9  C   UNK     0      10.917   4.700   6.042  0.00  0.00     0.195 A 
HETATM   10  C   UNK     0       7.451   3.852   6.528  0.00  0.00     0.043 A 
HETATM   11  C   UNK     0       7.451   2.681   7.325  0.00  0.00     0.036 A 
HETATM   12  C   UNK     0       8.694   2.116   7.703  0.00  0.00     0.043 A 
HETATM   13  C   UNK     0       9.938   2.682   7.314  0.00  0.00    -0.009 A 
HETATM   14  O   UNK     0      12.151   4.586   6.222  0.00  0.00    -0.287 OA
ENDROOT
BRANCH  13  15
HETATM   15  C   UNK     0      11.157   2.054   7.693  0.00  0.00    -0.022 A 
HETATM   16  C   UNK     0      11.710   2.254   8.981  0.00  0.00     0.029 A 
HETATM   17  C   UNK     0      12.923   1.631   9.322  0.00  0.00     0.088 A 
HETATM   18  N   UNK     0      13.562   0.853   8.411  0.00  0.00    -0.375 N 
HETATM   19  C   UNK     0      13.070   0.636   7.165  0.00  0.00     0.088 A 
HETATM   20  HN  UNK     0      14.444   0.414   8.674  1.00  0.00     0.164 HD
HETATM   21  C   UNK     0      11.854   1.229   6.779  0.00  0.00     0.029 A 
ENDBRANCH  13  15
BRANCH  11  22
HETATM   22  N   UNK     0       6.314   2.071   7.779  0.00  0.00    -0.327 N 
HETATM   23  C   UNK     0       5.627   2.321   8.934  0.00  0.00     0.223 C 
HETATM   24  O   UNK     0       5.936   3.252   9.714  0.00  0.00    -0.273 OA
HETATM   25  H   UNK     0       5.935   1.393   7.196  0.00  0.00     0.169 HD
BRANCH  23  26
HETATM   26  C   UNK     0       4.446   1.498   9.274  0.00  0.00     0.118 C 
BRANCH  26  27
HETATM   27  C   UNK     0       4.826   0.027   9.565  0.00  0.00     0.124 C 
HETATM   28 Cl   UNK     0       3.402  -1.008   9.574  0.00  0.00    -0.130 Cl
ENDBRANCH  26  27
ENDBRANCH  23  26
ENDBRANCH  11  22
TORSDOF 4
ENDMDL
MODEL 3
REMARK VINA RESULT:      -6.7      3.071      7.462
REMARK  4 active torsions:
REMARK  status: ('A' for Active; 'I' for Inactive)
REMARK    1  A    between atoms: C_11  and  N_14 
REMARK    2  A    between atoms: C_13  and  C_21 
REMARK       I    between atoms: N_14  and  C_15 
REMARK    3  A    between atoms: C_15  and  C_16 
REMARK    4  A    between atoms: C_16  and  C_17 
ROOT
HETATM    1  C   UNK     0      -7.121   2.216  -4.522  0.00  0.00     0.016 A 
HETATM    2  C   UNK     0      -6.186   1.687  -5.438  0.00  0.00     0.001 A 
HETATM    3  C   UNK     0      -5.174   2.509  -5.984  0.00  0.00     0.001 A 
HETATM    4  C   UNK     0      -5.076   3.868  -5.615  0.00  0.00     0.013 A 
HETATM    5  C   UNK     0      -6.007   4.381  -4.690  0.00  0.00    -0.011 A 
HETATM    6  C   UNK     0      -7.016   3.572  -4.162  0.00  0.00     0.026 A 
HETATM    7  C   UNK     0      -6.155   5.653  -4.136  0.00  0.00    -0.008 A 
HETATM    8  C   UNK     0      -7.278   5.650  -3.299  0.00  0.00     0.037 A 
HETATM    9  C   UNK     0      -7.797   4.342  -3.298  0.00  0.00     0.195 A 
HETATM   10  C   UNK     0      -5.368   6.803  -4.301  0.00  0.00     0.043 A 
HETATM   11  C   UNK     0      -5.727   7.994  -3.625  0.00  0.00     0.036 A 
HETATM   12  C   UNK     0      -6.877   7.986  -2.798  0.00  0.00     0.043 A 
HETATM   13  C   UNK     0      -7.681   6.828  -2.623  0.00  0.00    -0.009 A 
HETATM   14  O   UNK     0      -8.768   3.907  -2.636  0.00  0.00    -0.287 OA
ENDROOT
BRANCH  13  15
HETATM   15  C   UNK     0      -8.846   6.885  -1.808  0.00  0.00    -0.022 A 
HETATM   16  C   UNK     0      -8.767   6.683  -0.409  0.00  0.00     0.029 A 
HETATM   17  C   UNK     0      -9.938   6.732   0.368  0.00  0.00     0.088 A 
HETATM   18  N   UNK     0     -11.136   6.960  -0.229  0.00  0.00    -0.375 N 
HETATM   19  C   UNK     0     -11.258   7.155  -1.566  0.00  0.00     0.088 A 
HETATM   20  HN  UNK     0     -11.976   6.985   0.349  1.00  0.00     0.164 HD
HETATM   21  C   UNK     0     -10.115   7.127  -2.386  0.00  0.00     0.029 A 
ENDBRANCH  13  15
BRANCH  11  22
HETATM   22  N   UNK     0      -5.009   9.156  -3.700  0.00  0.00    -0.327 N 
HETATM   23  C   UNK     0      -4.014   9.588  -2.867  0.00  0.00     0.223 C 
HETATM   24  O   UNK     0      -3.565   8.884  -1.932  0.00  0.00    -0.273 OA
HETATM   25  H   UNK     0      -5.216   9.734  -4.452  0.00  0.00     0.169 HD
BRANCH  23  26
HETATM   26  C   UNK     0      -3.403  10.916  -3.086  0.00  0.00     0.118 C 
BRANCH  26  27
HETATM   27  C   UNK     0      -1.885  10.819  -3.371  0.00  0.00     0.124 C 
HETATM   28 Cl   UNK     0      -1.540   9.563  -4.557  0.00  0.00    -0.130 Cl
ENDBRANCH  26  27
ENDBRANCH  23  26
ENDBRANCH  11  22
TORSDOF 4
ENDMDL
MODEL 4
REMARK VINA RESULT:      -6.7      3.194      6.176
REMARK  4 active torsions:
REMARK  status: ('A' for Active; 'I' for Inactive)
REMARK    1  A    between atoms: C_11  and  N_14 
REMARK    2  A    between atoms: C_13  and  C_21 
REMARK       I    between atoms: N_14  and  C_15 
REMARK    3  A    between atoms: C_15  and  C_16 
REMARK    4  A    between atoms: C_16  and  C_17 
ROOT
HETATM    1  C   UNK     0      -5.734   3.847  -5.642  0.00  0.00     0.016 A 
HETATM    2  C   UNK     0      -6.216   2.536  -5.845  0.00  0.00     0.001 A 
HETATM    3  C   UNK     0      -7.177   1.982  -4.970  0.00  0.00     0.001 A 
HETATM    4  C   UNK     0      -7.677   2.733  -3.884  0.00  0.00     0.013 A 
HETATM    5  C   UNK     0      -7.198   4.045  -3.699  0.00  0.00    -0.011 A 
HETATM    6  C   UNK     0      -6.238   4.588  -4.556  0.00  0.00     0.026 A 
HETATM    7  C   UNK     0      -7.505   5.016  -2.744  0.00  0.00    -0.008 A 
HETATM    8  C   UNK     0      -6.708   6.144  -2.979  0.00  0.00     0.037 A 
HETATM    9  C   UNK     0      -5.936   5.882  -4.127  0.00  0.00     0.195 A 
HETATM   10  C   UNK     0      -8.442   4.986  -1.701  0.00  0.00     0.043 A 
HETATM   11  C   UNK     0      -8.571   6.109  -0.850  0.00  0.00     0.036 A 
HETATM   12  C   UNK     0      -7.744   7.236  -1.081  0.00  0.00     0.043 A 
HETATM   13  C   UNK     0      -6.793   7.279  -2.136  0.00  0.00    -0.009 A 
HETATM   14  O   UNK     0      -5.134   6.654  -4.699  0.00  0.00    -0.287 OA
ENDROOT
BRANCH  13  15
HETATM   15  C   UNK     0      -5.963   8.423  -2.302  0.00  0.00    -0.022 A 
HETATM   16  C   UNK     0      -4.690   8.495  -1.686  0.00  0.00     0.029 A 
HETATM   17  C   UNK     0      -3.899   9.644  -1.858  0.00  0.00     0.088 A 
HETATM   18  N   UNK     0      -4.364  10.679  -2.603  0.00  0.00    -0.375 N 
HETATM   19  C   UNK     0      -5.578  10.654  -3.209  0.00  0.00     0.088 A 
HETATM   20  HN  UNK     0      -3.778  11.508  -2.712  1.00  0.00     0.164 HD
HETATM   21  C   UNK     0      -6.403   9.522  -3.076  0.00  0.00     0.029 A 
ENDBRANCH  13  15
BRANCH  11  22
HETATM   22  N   UNK     0      -9.473   6.186   0.177  0.00  0.00    -0.327 N 
HETATM   23  C   UNK     0     -10.589   6.972   0.261  0.00  0.00     0.223 C 
HETATM   24  O   UNK     0     -10.979   7.693  -0.688  0.00  0.00    -0.273 OA
HETATM   25  H   UNK     0      -9.313   5.592   0.927  0.00  0.00     0.169 HD
BRANCH  23  26
HETATM   26  C   UNK     0     -11.404   6.953   1.494  0.00  0.00     0.118 C 
BRANCH  26  27
HETATM   27  C   UNK     0     -11.287   8.276   2.289  0.00  0.00     0.124 C 
HETATM   28 Cl   UNK     0      -9.631   8.874   2.287  0.00  0.00    -0.130 Cl
ENDBRANCH  26  27
ENDBRANCH  23  26
ENDBRANCH  11  22
TORSDOF 4
ENDMDL
MODEL 5
REMARK VINA RESULT:      -6.7      3.172      6.857
REMARK  4 active torsions:
REMARK  status: ('A' for Active; 'I' for Inactive)
REMARK    1  A    between atoms: C_11  and  N_14 
REMARK    2  A    between atoms: C_13  and  C_21 
REMARK       I    between atoms: N_14  and  C_15 
REMARK    3  A    between atoms: C_15  and  C_16 
REMARK    4  A    between atoms: C_16  and  C_17 
ROOT
HETATM    1  C   UNK     0      -7.685   2.542  -3.783  0.00  0.00     0.016 A 
HETATM    2  C   UNK     0      -7.278   1.679  -4.822  0.00  0.00     0.001 A 
HETATM    3  C   UNK     0      -6.370   2.124  -5.810  0.00  0.00     0.001 A 
HETATM    4  C   UNK     0      -5.850   3.435  -5.767  0.00  0.00     0.013 A 
HETATM    5  C   UNK     0      -6.253   4.283  -4.717  0.00  0.00    -0.011 A 
HETATM    6  C   UNK     0      -7.161   3.848  -3.749  0.00  0.00     0.026 A 
HETATM    7  C   UNK     0      -5.910   5.600  -4.408  0.00  0.00    -0.008 A 
HETATM    8  C   UNK     0      -6.632   5.999  -3.277  0.00  0.00     0.037 A 
HETATM    9  C   UNK     0      -7.394   4.893  -2.854  0.00  0.00     0.195 A 
HETATM   10  C   UNK     0      -4.998   6.463  -5.037  0.00  0.00     0.043 A 
HETATM   11  C   UNK     0      -4.821   7.773  -4.532  0.00  0.00     0.036 A 
HETATM   12  C   UNK     0      -5.574   8.174  -3.401  0.00  0.00     0.043 A 
HETATM   13  C   UNK     0      -6.498   7.310  -2.756  0.00  0.00    -0.009 A 
HETATM   14  O   UNK     0      -8.136   4.818  -1.848  0.00  0.00    -0.287 OA
ENDROOT
BRANCH  13  15
HETATM   15  C   UNK     0      -7.255   7.775  -1.644  0.00  0.00    -0.022 A 
HETATM   16  C   UNK     0      -8.535   8.351  -1.825  0.00  0.00     0.029 A 
HETATM   17  C   UNK     0      -9.253   8.814  -0.708  0.00  0.00     0.088 A 
HETATM   18  N   UNK     0      -8.710   8.716   0.532  0.00  0.00    -0.375 N 
HETATM   19  C   UNK     0      -7.485   8.174   0.750  0.00  0.00     0.088 A 
HETATM   20  HN  UNK     0      -9.242   9.063   1.330  1.00  0.00     0.164 HD
HETATM   21  C   UNK     0      -6.731   7.686  -0.333  0.00  0.00     0.029 A 
ENDBRANCH  13  15
BRANCH  11  22
HETATM   22  N   UNK     0      -3.938   8.677  -5.058  0.00  0.00    -0.327 N 
HETATM   23  C   UNK     0      -2.617   8.845  -4.746  0.00  0.00     0.223 C 
HETATM   24  O   UNK     0      -2.010   8.086  -3.953  0.00  0.00    -0.273 OA
HETATM   25  H   UNK     0      -4.287   9.254  -5.755  0.00  0.00     0.169 HD
BRANCH  23  26
HETATM   26  C   UNK     0      -1.847   9.931  -5.388  0.00  0.00     0.118 C 
BRANCH  26  27
HETATM   27  C   UNK     0      -0.327   9.641  -5.397  0.00  0.00     0.124 C 
HETATM   28 Cl   UNK     0       0.476  10.416  -4.036  0.00  0.00    -0.130 Cl
ENDBRANCH  26  27
ENDBRANCH  23  26
ENDBRANCH  11  22
TORSDOF 4
ENDMDL
MODEL 6
REMARK VINA RESULT:      -6.6      3.955      7.166
REMARK  4 active torsions:
REMARK  status: ('A' for Active; 'I' for Inactive)
REMARK    1  A    between atoms: C_11  and  N_14 
REMARK    2  A    between atoms: C_13  and  C_21 
REMARK       I    between atoms: N_14  and  C_15 
REMARK    3  A    between atoms: C_15  and  C_16 
REMARK    4  A    between atoms: C_16  and  C_17 
ROOT
HETATM    1  C   UNK     0     -12.260   3.492  -5.563  0.00  0.00     0.016 A 
HETATM    2  C   UNK     0     -13.514   3.972  -5.127  0.00  0.00     0.001 A 
HETATM    3  C   UNK     0     -13.603   4.834  -4.011  0.00  0.00     0.001 A 
HETATM    4  C   UNK     0     -12.440   5.237  -3.321  0.00  0.00     0.013 A 
HETATM    5  C   UNK     0     -11.193   4.763  -3.773  0.00  0.00    -0.011 A 
HETATM    6  C   UNK     0     -11.106   3.899  -4.867  0.00  0.00     0.026 A 
HETATM    7  C   UNK     0      -9.895   4.990  -3.313  0.00  0.00    -0.008 A 
HETATM    8  C   UNK     0      -9.006   4.237  -4.090  0.00  0.00     0.037 A 
HETATM    9  C   UNK     0      -9.764   3.577  -5.075  0.00  0.00     0.195 A 
HETATM   10  C   UNK     0      -9.441   5.820  -2.277  0.00  0.00     0.043 A 
HETATM   11  C   UNK     0      -8.055   5.883  -1.994  0.00  0.00     0.036 A 
HETATM   12  C   UNK     0      -7.166   5.100  -2.770  0.00  0.00     0.043 A 
HETATM   13  C   UNK     0      -7.614   4.257  -3.822  0.00  0.00    -0.009 A 
HETATM   14  O   UNK     0      -9.341   2.846  -6.000  0.00  0.00    -0.287 OA
ENDROOT
BRANCH  13  15
HETATM   15  C   UNK     0      -6.682   3.464  -4.549  0.00  0.00    -0.022 A 
HETATM   16  C   UNK     0      -6.591   2.068  -4.335  0.00  0.00     0.029 A 
HETATM   17  C   UNK     0      -5.651   1.313  -5.059  0.00  0.00     0.088 A 
HETATM   18  N   UNK     0      -4.830   1.930  -5.947  0.00  0.00    -0.375 N 
HETATM   19  C   UNK     0      -4.880   3.266  -6.180  0.00  0.00     0.088 A 
HETATM   20  HN  UNK     0      -4.149   1.368  -6.458  1.00  0.00     0.164 HD
HETATM   21  C   UNK     0      -5.811   4.063  -5.490  0.00  0.00     0.029 A 
ENDBRANCH  13  15
BRANCH  11  22
HETATM   22  N   UNK     0      -7.513   6.682  -1.024  0.00  0.00    -0.327 N 
HETATM   23  C   UNK     0      -6.908   7.899  -1.175  0.00  0.00     0.223 C 
HETATM   24  O   UNK     0      -6.854   8.492  -2.278  0.00  0.00    -0.273 OA
HETATM   25  H   UNK     0      -7.589   6.354  -0.113  0.00  0.00     0.169 HD
BRANCH  23  26
HETATM   26  C   UNK     0      -6.326   8.576   0.003  0.00  0.00     0.118 C 
BRANCH  26  27
HETATM   27  C   UNK     0      -4.901   8.064   0.323  0.00  0.00     0.124 C 
HETATM   28 Cl   UNK     0      -4.601   8.063   2.058  0.00  0.00    -0.130 Cl
ENDBRANCH  26  27
ENDBRANCH  23  26
ENDBRANCH  11  22
TORSDOF 4
ENDMDL
MODEL 7
REMARK VINA RESULT:      -6.5      1.358      1.783
REMARK  4 active torsions:
REMARK  status: ('A' for Active; 'I' for Inactive)
REMARK    1  A    between atoms: C_11  and  N_14 
REMARK    2  A    between atoms: C_13  and  C_21 
REMARK       I    between atoms: N_14  and  C_15 
REMARK    3  A    between atoms: C_15  and  C_16 
REMARK    4  A    between atoms: C_16  and  C_17 
ROOT
HETATM    1  C   UNK     0      -4.712  10.123   1.153  0.00  0.00     0.016 A 
HETATM    2  C   UNK     0      -5.610   9.868   2.211  0.00  0.00     0.001 A 
HETATM    3  C   UNK     0      -6.650   8.924   2.058  0.00  0.00     0.001 A 
HETATM    4  C   UNK     0      -6.801   8.213   0.848  0.00  0.00     0.013 A 
HETATM    5  C   UNK     0      -5.891   8.466  -0.197  0.00  0.00    -0.011 A 
HETATM    6  C   UNK     0      -4.872   9.410  -0.051  0.00  0.00     0.026 A 
HETATM    7  C   UNK     0      -5.780   7.924  -1.479  0.00  0.00    -0.008 A 
HETATM    8  C   UNK     0      -4.723   8.558  -2.144  0.00  0.00     0.037 A 
HETATM    9  C   UNK     0      -4.142   9.468  -1.240  0.00  0.00     0.195 A 
HETATM   10  C   UNK     0      -6.526   6.907  -2.092  0.00  0.00     0.043 A 
HETATM   11  C   UNK     0      -6.222   6.527  -3.421  0.00  0.00     0.036 A 
HETATM   12  C   UNK     0      -5.166   7.190  -4.094  0.00  0.00     0.043 A 
HETATM   13  C   UNK     0      -4.403   8.221  -3.482  0.00  0.00    -0.009 A 
HETATM   14  O   UNK     0      -3.139  10.194  -1.426  0.00  0.00    -0.287 OA
ENDROOT
BRANCH  13  15
HETATM   15  C   UNK     0      -3.375   8.879  -4.215  0.00  0.00    -0.022 A 
HETATM   16  C   UNK     0      -2.024   8.472  -4.099  0.00  0.00     0.029 A 
HETATM   17  C   UNK     0      -1.029   9.150  -4.826  0.00  0.00     0.088 A 
HETATM   18  N   UNK     0      -1.369  10.196  -5.622  0.00  0.00    -0.375 N 
HETATM   19  C   UNK     0      -2.650  10.621  -5.759  0.00  0.00     0.088 A 
HETATM   20  HN  UNK     0      -0.633  10.680  -6.136  1.00  0.00     0.164 HD
HETATM   21  C   UNK     0      -3.684   9.969  -5.062  0.00  0.00     0.029 A 
ENDBRANCH  13  15
BRANCH  11  22
HETATM   22  N   UNK     0      -6.873   5.529  -4.095  0.00  0.00    -0.327 N 
HETATM   23  C   UNK     0      -6.594   4.191  -4.095  0.00  0.00     0.223 C 
HETATM   24  O   UNK     0      -5.705   3.688  -3.368  0.00  0.00    -0.273 OA
HETATM   25  H   UNK     0      -7.643   5.804  -4.618  0.00  0.00     0.169 HD
BRANCH  23  26
HETATM   26  C   UNK     0      -7.386   3.280  -4.949  0.00  0.00     0.118 C 
BRANCH  26  27
HETATM   27  C   UNK     0      -6.488   2.321  -5.767  0.00  0.00     0.124 C 
HETATM   28 Cl   UNK     0      -5.209   3.201  -6.598  0.00  0.00    -0.130 Cl
ENDBRANCH  26  27
ENDBRANCH  23  26
ENDBRANCH  11  22
TORSDOF 4
ENDMDL
MODEL 8
REMARK VINA RESULT:      -6.5      1.840      4.972
REMARK  4 active torsions:
REMARK  status: ('A' for Active; 'I' for Inactive)
REMARK    1  A    between atoms: C_11  and  N_14 
REMARK    2  A    between atoms: C_13  and  C_21 
REMARK       I    between atoms: N_14  and  C_15 
REMARK    3  A    between atoms: C_15  and  C_16 
REMARK    4  A    between atoms: C_16  and  C_17 
ROOT
HETATM    1  C   UNK     0      -3.653  10.907  -3.377  0.00  0.00     0.016 A 
HETATM    2  C   UNK     0      -2.502  10.950  -4.193  0.00  0.00     0.001 A 
HETATM    3  C   UNK     0      -2.167   9.852  -5.017  0.00  0.00     0.001 A 
HETATM    4  C   UNK     0      -2.982   8.700  -5.045  0.00  0.00     0.013 A 
HETATM    5  C   UNK     0      -4.135   8.674  -4.236  0.00  0.00    -0.011 A 
HETATM    6  C   UNK     0      -4.459   9.754  -3.410  0.00  0.00     0.026 A 
HETATM    7  C   UNK     0      -5.121   7.702  -4.060  0.00  0.00    -0.008 A 
HETATM    8  C   UNK     0      -6.032   8.155  -3.098  0.00  0.00     0.037 A 
HETATM    9  C   UNK     0      -5.629   9.447  -2.713  0.00  0.00     0.195 A 
HETATM   10  C   UNK     0      -5.283   6.461  -4.696  0.00  0.00     0.043 A 
HETATM   11  C   UNK     0      -6.378   5.637  -4.343  0.00  0.00     0.036 A 
HETATM   12  C   UNK     0      -7.281   6.094  -3.351  0.00  0.00     0.043 A 
HETATM   13  C   UNK     0      -7.127   7.348  -2.702  0.00  0.00    -0.009 A 
HETATM   14  O   UNK     0      -6.204  10.219  -1.912  0.00  0.00    -0.287 OA
ENDROOT
BRANCH  13  15
HETATM   15  C   UNK     0      -8.044   7.744  -1.688  0.00  0.00    -0.022 A 
HETATM   16  C   UNK     0      -9.253   8.403  -2.017  0.00  0.00     0.029 A 
HETATM   17  C   UNK     0     -10.133   8.794  -0.992  0.00  0.00     0.088 A 
HETATM   18  N   UNK     0      -9.812   8.548   0.304  0.00  0.00    -0.375 N 
HETATM   19  C   UNK     0      -8.663   7.922   0.664  0.00  0.00     0.088 A 
HETATM   20  HN  UNK     0     -10.459   8.844   1.035  1.00  0.00     0.164 HD
HETATM   21  C   UNK     0      -7.755   7.502  -0.325  0.00  0.00     0.029 A 
ENDBRANCH  13  15
BRANCH  11  22
HETATM   22  N   UNK     0      -6.636   4.425  -4.924  0.00  0.00    -0.327 N 
HETATM   23  C   UNK     0      -6.013   3.230  -4.693  0.00  0.00     0.223 C 
HETATM   24  O   UNK     0      -5.137   3.086  -3.808  0.00  0.00    -0.273 OA
HETATM   25  H   UNK     0      -7.367   4.409  -5.562  0.00  0.00     0.169 HD
BRANCH  23  26
HETATM   26  C   UNK     0      -6.402   2.040  -5.480  0.00  0.00     0.118 C 
BRANCH  26  27
HETATM   27  C   UNK     0      -7.917   1.742  -5.373  0.00  0.00     0.124 C 
HETATM   28 Cl   UNK     0      -8.439   1.691  -3.692  0.00  0.00    -0.130 Cl
ENDBRANCH  26  27
ENDBRANCH  23  26
ENDBRANCH  11  22
TORSDOF 4
ENDMDL
MODEL 9
REMARK VINA RESULT:      -6.5     17.418     19.397
REMARK  4 active torsions:
REMARK  status: ('A' for Active; 'I' for Inactive)
REMARK    1  A    between atoms: C_11  and  N_14 
REMARK    2  A    between atoms: C_13  and  C_21 
REMARK       I    between atoms: N_14  and  C_15 
REMARK    3  A    between atoms: C_15  and  C_16 
REMARK    4  A    between atoms: C_16  and  C_17 
ROOT
HETATM    1  C   UNK     0      11.952   4.409  10.922  0.00  0.00     0.016 A 
HETATM    2  C   UNK     0      13.111   5.210  10.998  0.00  0.00     0.001 A 
HETATM    3  C   UNK     0      13.393   6.161   9.992  0.00  0.00     0.001 A 
HETATM    4  C   UNK     0      12.515   6.331   8.899  0.00  0.00     0.013 A 
HETATM    5  C   UNK     0      11.354   5.535   8.841  0.00  0.00    -0.011 A 
HETATM    6  C   UNK     0      11.083   4.585   9.829  0.00  0.00     0.026 A 
HETATM    7  C   UNK     0      10.314   5.482   7.912  0.00  0.00    -0.008 A 
HETATM    8  C   UNK     0       9.420   4.475   8.296  0.00  0.00     0.037 A 
HETATM    9  C   UNK     0       9.891   3.934   9.507  0.00  0.00     0.195 A 
HETATM   10  C   UNK     0      10.089   6.265   6.769  0.00  0.00     0.043 A 
HETATM   11  C   UNK     0       8.946   6.018   5.972  0.00  0.00     0.036 A 
HETATM   12  C   UNK     0       8.060   4.981   6.356  0.00  0.00     0.043 A 
HETATM   13  C   UNK     0       8.277   4.184   7.511  0.00  0.00    -0.009 A 
HETATM   14  O   UNK     0       9.351   3.047  10.208  0.00  0.00    -0.287 OA
ENDROOT
BRANCH  13  15
HETATM   15  C   UNK     0       7.373   3.132   7.832  0.00  0.00    -0.022 A 
HETATM   16  C   UNK     0       6.242   3.368   8.650  0.00  0.00     0.029 A 
HETATM   17  C   UNK     0       5.375   2.306   8.961  0.00  0.00     0.088 A 
HETATM   18  N   UNK     0       5.634   1.061   8.485  0.00  0.00    -0.375 N 
HETATM   19  C   UNK     0       6.707   0.790   7.701  0.00  0.00     0.088 A 
HETATM   20  HN  UNK     0       4.997   0.301   8.727  1.00  0.00     0.164 HD
HETATM   21  C   UNK     0       7.599   1.820   7.352  0.00  0.00     0.029 A 
ENDBRANCH  13  15
BRANCH  11  22
HETATM   22  N   UNK     0       8.626   6.743   4.856  0.00  0.00    -0.327 N 
HETATM   23  C   UNK     0       9.140   6.621   3.595  0.00  0.00     0.223 C 
HETATM   24  O   UNK     0       9.953   5.718   3.283  0.00  0.00    -0.273 OA
HETATM   25  H   UNK     0       7.932   7.412   4.970  0.00  0.00     0.169 HD
BRANCH  23  26
HETATM   26  C   UNK     0       8.703   7.553   2.535  0.00  0.00     0.118 C 
BRANCH  26  27
HETATM   27  C   UNK     0       9.901   8.204   1.802  0.00  0.00     0.124 C 
HETATM   28 Cl   UNK     0      10.676   9.422   2.809  0.00  0.00    -0.130 Cl
ENDBRANCH  26  27
ENDBRANCH  23  26
ENDBRANCH  11  22
TORSDOF 4
ENDMDL
