MODEL 1
REMARK VINA RESULT:      -8.0      0.000      0.000
REMARK  2 active torsions:
REMARK  status: ('A' for Active; 'I' for Inactive)
REMARK    1  A    between atoms: C_10  and  C_17 
REMARK    2  A    between atoms: C_12  and  N_14 
ROOT
HETATM    1  C   UNK     0      -5.418   2.063   7.528  0.00  0.00     0.013 A 
HETATM    2  C   UNK     0      -4.997   2.463   8.814  0.00  0.00     0.001 A 
HETATM    3  C   UNK     0      -5.793   3.334   9.589  0.00  0.00     0.001 A 
HETATM    4  C   UNK     0      -7.018   3.822   9.086  0.00  0.00     0.008 A 
HETATM    5  C   UNK     0      -7.430   3.418   7.801  0.00  0.00    -0.043 A 
HETATM    6  C   UNK     0      -6.642   2.552   7.035  0.00  0.00    -0.019 A 
HETATM    7  C   UNK     0      -8.658   3.795   7.090  0.00  0.00     0.080 A 
HETATM    8  C   UNK     0      -8.501   3.040   5.828  0.00  0.00    -0.032 A 
HETATM    9  C   UNK     0      -7.289   2.336   5.820  0.00  0.00    -0.016 A 
HETATM   10  C   UNK     0      -9.372   3.001   4.709  0.00  0.00    -0.016 A 
HETATM   11  C   UNK     0      -8.951   2.267   3.570  0.00  0.00     0.042 A 
HETATM   12  C   UNK     0      -7.713   1.585   3.553  0.00  0.00     0.027 A 
HETATM   13  C   UNK     0      -6.881   1.599   4.693  0.00  0.00     0.042 A 
ENDROOT
BRANCH  10  14
HETATM   14  C   UNK     0     -10.609   3.701   4.698  0.00  0.00    -0.023 A 
HETATM   15  C   UNK     0     -11.806   3.047   5.062  0.00  0.00     0.029 A 
HETATM   16  C   UNK     0     -13.030   3.740   5.003  0.00  0.00     0.090 A 
HETATM   17  N   UNK     0     -13.085   5.047   4.598  0.00  0.00    -0.371 N 
HETATM   18  C   UNK     0     -11.932   5.705   4.259  0.00  0.00     0.090 A 
HETATM   19  C   UNK     0     -14.350   5.738   4.559  0.00  0.00     0.154 C 
HETATM   20  C   UNK     0     -10.684   5.058   4.313  0.00  0.00     0.029 A 
ENDBRANCH  10  14
BRANCH  12  21
HETATM   21  N   UNK     0      -7.313   0.938   2.440  0.00  0.00    -0.399 N 
HETATM   22  H   UNK     0      -6.705   1.369   1.816  0.00  0.00     0.156 HD
HETATM   23  H   UNK     0      -7.624   0.036   2.262  0.00  0.00     0.156 HD
ENDBRANCH  12  21
TORSDOF 2
ENDMDL
MODEL 2
REMARK VINA RESULT:      -7.2      3.251      7.757
REMARK  2 active torsions:
REMARK  status: ('A' for Active; 'I' for Inactive)
REMARK    1  A    between atoms: C_10  and  C_17 
REMARK    2  A    between atoms: C_12  and  N_14 
ROOT
HETATM    1  C   UNK     0      -9.132   3.060   5.212  0.00  0.00     0.013 A 
HETATM    2  C   UNK     0      -9.076   2.458   3.938  0.00  0.00     0.001 A 
HETATM    3  C   UNK     0      -7.956   1.686   3.559  0.00  0.00     0.001 A 
HETATM    4  C   UNK     0      -6.874   1.511   4.447  0.00  0.00     0.008 A 
HETATM    5  C   UNK     0      -6.937   2.116   5.718  0.00  0.00    -0.043 A 
HETATM    6  C   UNK     0      -8.049   2.879   6.093  0.00  0.00    -0.019 A 
HETATM    7  C   UNK     0      -5.937   2.063   6.790  0.00  0.00     0.080 A 
HETATM    8  C   UNK     0      -6.599   2.870   7.839  0.00  0.00    -0.032 A 
HETATM    9  C   UNK     0      -7.833   3.355   7.385  0.00  0.00    -0.016 A 
HETATM   10  C   UNK     0      -6.120   3.199   9.133  0.00  0.00    -0.016 A 
HETATM   11  C   UNK     0      -6.908   4.073   9.926  0.00  0.00     0.042 A 
HETATM   12  C   UNK     0      -8.136   4.587   9.452  0.00  0.00     0.027 A 
HETATM   13  C   UNK     0      -8.617   4.211   8.180  0.00  0.00     0.042 A 
ENDROOT
BRANCH  10  14
HETATM   14  C   UNK     0      -4.874   2.712   9.617  0.00  0.00    -0.023 A 
HETATM   15  C   UNK     0      -4.833   1.660  10.558  0.00  0.00     0.029 A 
HETATM   16  C   UNK     0      -3.595   1.219  11.063  0.00  0.00     0.090 A 
HETATM   17  N   UNK     0      -2.420   1.792  10.655  0.00  0.00    -0.371 N 
HETATM   18  C   UNK     0      -2.437   2.801   9.729  0.00  0.00     0.090 A 
HETATM   19  C   UNK     0      -1.165   1.313  11.178  0.00  0.00     0.154 C 
HETATM   20  C   UNK     0      -3.649   3.268   9.188  0.00  0.00     0.029 A 
ENDBRANCH  10  14
BRANCH  12  21
HETATM   21  N   UNK     0      -8.841   5.455  10.205  0.00  0.00    -0.399 N 
HETATM   22  H   UNK     0      -9.809   5.488  10.133  0.00  0.00     0.156 HD
HETATM   23  H   UNK     0      -8.385   6.044  10.826  0.00  0.00     0.156 HD
ENDBRANCH  12  21
TORSDOF 2
ENDMDL
MODEL 3
REMARK VINA RESULT:      -7.1      2.026      6.205
REMARK  2 active torsions:
REMARK  status: ('A' for Active; 'I' for Inactive)
REMARK    1  A    between atoms: C_10  and  C_17 
REMARK    2  A    between atoms: C_12  and  N_14 
ROOT
HETATM    1  C   UNK     0     -11.710   3.449   4.293  0.00  0.00     0.013 A 
HETATM    2  C   UNK     0     -12.932   3.949   4.790  0.00  0.00     0.001 A 
HETATM    3  C   UNK     0     -13.046   4.353   6.138  0.00  0.00     0.001 A 
HETATM    4  C   UNK     0     -11.940   4.257   7.008  0.00  0.00     0.008 A 
HETATM    5  C   UNK     0     -10.724   3.756   6.505  0.00  0.00    -0.043 A 
HETATM    6  C   UNK     0     -10.611   3.359   5.168  0.00  0.00    -0.019 A 
HETATM    7  C   UNK     0      -9.458   3.576   7.226  0.00  0.00     0.080 A 
HETATM    8  C   UNK     0      -8.591   3.041   6.153  0.00  0.00    -0.032 A 
HETATM    9  C   UNK     0      -9.311   2.903   4.958  0.00  0.00    -0.016 A 
HETATM   10  C   UNK     0      -7.230   2.652   6.230  0.00  0.00    -0.016 A 
HETATM   11  C   UNK     0      -6.641   2.076   5.074  0.00  0.00     0.042 A 
HETATM   12  C   UNK     0      -7.379   1.909   3.881  0.00  0.00     0.027 A 
HETATM   13  C   UNK     0      -8.720   2.344   3.810  0.00  0.00     0.042 A 
ENDROOT
BRANCH  10  14
HETATM   14  C   UNK     0      -6.478   2.789   7.429  0.00  0.00    -0.023 A 
HETATM   15  C   UNK     0      -6.365   4.046   8.064  0.00  0.00     0.029 A 
HETATM   16  C   UNK     0      -5.581   4.176   9.226  0.00  0.00     0.090 A 
HETATM   17  N   UNK     0      -4.921   3.101   9.758  0.00  0.00    -0.371 N 
HETATM   18  C   UNK     0      -5.032   1.870   9.168  0.00  0.00     0.090 A 
HETATM   19  C   UNK     0      -4.134   3.259  10.957  0.00  0.00     0.154 C 
HETATM   20  C   UNK     0      -5.814   1.688   8.012  0.00  0.00     0.029 A 
ENDBRANCH  10  14
BRANCH  12  21
HETATM   21  N   UNK     0      -6.812   1.312   2.812  0.00  0.00    -0.399 N 
HETATM   22  H   UNK     0      -7.194   0.496   2.450  0.00  0.00     0.156 HD
HETATM   23  H   UNK     0      -6.025   1.701   2.399  0.00  0.00     0.156 HD
ENDBRANCH  12  21
TORSDOF 2
ENDMDL
MODEL 4
REMARK VINA RESULT:      -6.6     16.339     18.574
REMARK  2 active torsions:
REMARK  status: ('A' for Active; 'I' for Inactive)
REMARK    1  A    between atoms: C_10  and  C_17 
REMARK    2  A    between atoms: C_12  and  N_14 
ROOT
HETATM    1  C   UNK     0      -0.173   3.111 -10.942  0.00  0.00     0.013 A 
HETATM    2  C   UNK     0      -1.087   2.133 -10.495  0.00  0.00     0.001 A 
HETATM    3  C   UNK     0      -1.627   2.200  -9.192  0.00  0.00     0.001 A 
HETATM    4  C   UNK     0      -1.255   3.242  -8.317  0.00  0.00     0.008 A 
HETATM    5  C   UNK     0      -0.341   4.214  -8.771  0.00  0.00    -0.043 A 
HETATM    6  C   UNK     0       0.191   4.148 -10.063  0.00  0.00    -0.019 A 
HETATM    7  C   UNK     0       0.175   5.375  -8.036  0.00  0.00     0.080 A 
HETATM    8  C   UNK     0       1.059   5.986  -9.053  0.00  0.00    -0.032 A 
HETATM    9  C   UNK     0       1.062   5.223 -10.229  0.00  0.00    -0.016 A 
HETATM   10  C   UNK     0       1.862   7.150  -8.940  0.00  0.00    -0.016 A 
HETATM   11  C   UNK     0       2.700   7.484 -10.035  0.00  0.00     0.042 A 
HETATM   12  C   UNK     0       2.725   6.693 -11.206  0.00  0.00     0.027 A 
HETATM   13  C   UNK     0       1.885   5.565 -11.318  0.00  0.00     0.042 A 
ENDROOT
BRANCH  10  14
HETATM   14  C   UNK     0       1.868   7.943  -7.759  0.00  0.00    -0.023 A 
HETATM   15  C   UNK     0       0.892   8.944  -7.563  0.00  0.00     0.029 A 
HETATM   16  C   UNK     0       0.938   9.752  -6.411  0.00  0.00     0.090 A 
HETATM   17  N   UNK     0       1.917   9.585  -5.469  0.00  0.00    -0.371 N 
HETATM   18  C   UNK     0       2.862   8.607  -5.631  0.00  0.00     0.090 A 
HETATM   19  C   UNK     0       1.934  10.418  -4.291  0.00  0.00     0.154 C 
HETATM   20  C   UNK     0       2.851   7.768  -6.760  0.00  0.00     0.029 A 
ENDBRANCH  10  14
BRANCH  12  21
HETATM   21  N   UNK     0       3.568   7.002 -12.213  0.00  0.00    -0.399 N 
HETATM   22  H   UNK     0       3.276   7.590 -12.929  0.00  0.00     0.156 HD
HETATM   23  H   UNK     0       4.470   6.645 -12.221  0.00  0.00     0.156 HD
ENDBRANCH  12  21
TORSDOF 2
ENDMDL
MODEL 5
REMARK VINA RESULT:      -6.5     16.599     19.352
REMARK  2 active torsions:
REMARK  status: ('A' for Active; 'I' for Inactive)
REMARK    1  A    between atoms: C_10  and  C_17 
REMARK    2  A    between atoms: C_12  and  N_14 
ROOT
HETATM    1  C   UNK     0       0.242   2.644 -13.098  0.00  0.00     0.013 A 
HETATM    2  C   UNK     0       0.838   2.829 -14.364  0.00  0.00     0.001 A 
HETATM    3  C   UNK     0       1.748   3.887 -14.579  0.00  0.00     0.001 A 
HETATM    4  C   UNK     0       2.068   4.778 -13.534  0.00  0.00     0.008 A 
HETATM    5  C   UNK     0       1.468   4.588 -12.274  0.00  0.00    -0.043 A 
HETATM    6  C   UNK     0       0.569   3.537 -12.060  0.00  0.00    -0.019 A 
HETATM    7  C   UNK     0       1.659   5.385 -11.057  0.00  0.00     0.080 A 
HETATM    8  C   UNK     0       0.779   4.671 -10.106  0.00  0.00    -0.032 A 
HETATM    9  C   UNK     0       0.133   3.599 -10.738  0.00  0.00    -0.016 A 
HETATM   10  C   UNK     0       0.523   4.971  -8.743  0.00  0.00    -0.016 A 
HETATM   11  C   UNK     0      -0.441   4.183  -8.062  0.00  0.00     0.042 A 
HETATM   12  C   UNK     0      -1.114   3.124  -8.713  0.00  0.00     0.027 A 
HETATM   13  C   UNK     0      -0.812   2.812 -10.056  0.00  0.00     0.042 A 
ENDROOT
BRANCH  10  14
HETATM   14  C   UNK     0       1.172   6.049  -8.079  0.00  0.00    -0.023 A 
HETATM   15  C   UNK     0       0.417   7.046  -7.424  0.00  0.00     0.029 A 
HETATM   16  C   UNK     0       1.071   8.131  -6.811  0.00  0.00     0.090 A 
HETATM   17  N   UNK     0       2.436   8.239  -6.834  0.00  0.00    -0.371 N 
HETATM   18  C   UNK     0       3.188   7.273  -7.448  0.00  0.00     0.090 A 
HETATM   19  C   UNK     0       3.082   9.355  -6.186  0.00  0.00     0.154 C 
HETATM   20  C   UNK     0       2.580   6.164  -8.065  0.00  0.00     0.029 A 
ENDBRANCH  10  14
BRANCH  12  21
HETATM   21  N   UNK     0      -2.062   2.423  -8.059  0.00  0.00    -0.399 N 
HETATM   22  H   UNK     0      -2.944   2.807  -7.920  0.00  0.00     0.156 HD
HETATM   23  H   UNK     0      -1.870   1.530  -7.732  0.00  0.00     0.156 HD
ENDBRANCH  12  21
TORSDOF 2
ENDMDL
MODEL 6
REMARK VINA RESULT:      -6.4      3.280      6.023
REMARK  2 active torsions:
REMARK  status: ('A' for Active; 'I' for Inactive)
REMARK    1  A    between atoms: C_10  and  C_17 
REMARK    2  A    between atoms: C_12  and  N_14 
ROOT
HETATM    1  C   UNK     0      -6.606   1.543   4.982  0.00  0.00     0.013 A 
HETATM    2  C   UNK     0      -7.431   1.554   3.838  0.00  0.00     0.001 A 
HETATM    3  C   UNK     0      -8.626   2.306   3.823  0.00  0.00     0.001 A 
HETATM    4  C   UNK     0      -9.015   3.053   4.955  0.00  0.00     0.008 A 
HETATM    5  C   UNK     0      -8.186   3.036   6.094  0.00  0.00    -0.043 A 
HETATM    6  C   UNK     0      -7.001   2.293   6.107  0.00  0.00    -0.019 A 
HETATM    7  C   UNK     0      -8.393   3.736   7.367  0.00  0.00     0.080 A 
HETATM    8  C   UNK     0      -7.186   3.326   8.119  0.00  0.00    -0.032 A 
HETATM    9  C   UNK     0      -6.398   2.456   7.353  0.00  0.00    -0.016 A 
HETATM   10  C   UNK     0      -6.809   3.674   9.441  0.00  0.00    -0.016 A 
HETATM   11  C   UNK     0      -5.640   3.073   9.974  0.00  0.00     0.042 A 
HETATM   12  C   UNK     0      -4.866   2.170   9.211  0.00  0.00     0.027 A 
HETATM   13  C   UNK     0      -5.232   1.872   7.881  0.00  0.00     0.042 A 
ENDROOT
BRANCH  10  14
HETATM   14  C   UNK     0      -7.589   4.561  10.234  0.00  0.00    -0.023 A 
HETATM   15  C   UNK     0      -7.357   5.953  10.190  0.00  0.00     0.029 A 
HETATM   16  C   UNK     0      -8.106   6.815  11.013  0.00  0.00     0.090 A 
HETATM   17  N   UNK     0      -9.064   6.328  11.862  0.00  0.00    -0.371 N 
HETATM   18  C   UNK     0      -9.317   4.982  11.905  0.00  0.00     0.090 A 
HETATM   19  C   UNK     0      -9.826   7.234  12.686  0.00  0.00     0.154 C 
HETATM   20  C   UNK     0      -8.603   4.083  11.093  0.00  0.00     0.029 A 
ENDBRANCH  10  14
BRANCH  12  21
HETATM   21  N   UNK     0      -3.787   1.573   9.758  0.00  0.00    -0.399 N 
HETATM   22  H   UNK     0      -3.650   1.603  10.719  0.00  0.00     0.156 HD
HETATM   23  H   UNK     0      -3.150   1.107   9.194  0.00  0.00     0.156 HD
ENDBRANCH  12  21
TORSDOF 2
ENDMDL
MODEL 7
REMARK VINA RESULT:      -6.2     13.010     16.578
REMARK  2 active torsions:
REMARK  status: ('A' for Active; 'I' for Inactive)
REMARK    1  A    between atoms: C_10  and  C_17 
REMARK    2  A    between atoms: C_12  and  N_14 
ROOT
HETATM    1  C   UNK     0      -4.818  -4.443  -4.469  0.00  0.00     0.013 A 
HETATM    2  C   UNK     0      -4.288  -3.916  -5.666  0.00  0.00     0.001 A 
HETATM    3  C   UNK     0      -3.593  -4.750  -6.569  0.00  0.00     0.001 A 
HETATM    4  C   UNK     0      -3.413  -6.119  -6.284  0.00  0.00     0.008 A 
HETATM    5  C   UNK     0      -3.944  -6.637  -5.087  0.00  0.00    -0.043 A 
HETATM    6  C   UNK     0      -4.635  -5.811  -4.194  0.00  0.00    -0.019 A 
HETATM    7  C   UNK     0      -3.879  -8.019  -4.598  0.00  0.00     0.080 A 
HETATM    8  C   UNK     0      -4.622  -7.907  -3.323  0.00  0.00    -0.032 A 
HETATM    9  C   UNK     0      -5.034  -6.585  -3.106  0.00  0.00    -0.016 A 
HETATM   10  C   UNK     0      -4.896  -8.920  -2.369  0.00  0.00    -0.016 A 
HETATM   11  C   UNK     0      -5.555  -8.539  -1.172  0.00  0.00     0.042 A 
HETATM   12  C   UNK     0      -5.939  -7.199  -0.941  0.00  0.00     0.027 A 
HETATM   13  C   UNK     0      -5.698  -6.214  -1.922  0.00  0.00     0.042 A 
ENDROOT
BRANCH  10  14
HETATM   14  C   UNK     0      -4.495 -10.269  -2.573  0.00  0.00    -0.023 A 
HETATM   15  C   UNK     0      -3.221 -10.565  -3.106  0.00  0.00     0.029 A 
HETATM   16  C   UNK     0      -2.854 -11.903  -3.345  0.00  0.00     0.090 A 
HETATM   17  N   UNK     0      -3.713 -12.932  -3.067  0.00  0.00    -0.371 N 
HETATM   18  C   UNK     0      -4.946 -12.668  -2.532  0.00  0.00     0.090 A 
HETATM   19  C   UNK     0      -3.308 -14.295  -3.309  0.00  0.00     0.154 C 
HETATM   20  C   UNK     0      -5.353 -11.348  -2.265  0.00  0.00     0.029 A 
ENDBRANCH  10  14
BRANCH  12  21
HETATM   21  N   UNK     0      -6.518  -6.853   0.227  0.00  0.00    -0.399 N 
HETATM   22  H   UNK     0      -6.013  -6.904   1.055  0.00  0.00     0.156 HD
HETATM   23  H   UNK     0      -7.438  -6.545   0.243  0.00  0.00     0.156 HD
ENDBRANCH  12  21
TORSDOF 2
ENDMDL
MODEL 8
REMARK VINA RESULT:      -6.2     13.544     16.206
REMARK  2 active torsions:
REMARK  status: ('A' for Active; 'I' for Inactive)
REMARK    1  A    between atoms: C_10  and  C_17 
REMARK    2  A    between atoms: C_12  and  N_14 
ROOT
HETATM    1  C   UNK     0      -3.464  -6.585  -4.315  0.00  0.00     0.013 A 
HETATM    2  C   UNK     0      -3.938  -5.256  -4.291  0.00  0.00     0.001 A 
HETATM    3  C   UNK     0      -4.920  -4.863  -3.356  0.00  0.00     0.001 A 
HETATM    4  C   UNK     0      -5.447  -5.795  -2.438  0.00  0.00     0.008 A 
HETATM    5  C   UNK     0      -4.969  -7.120  -2.469  0.00  0.00    -0.043 A 
HETATM    6  C   UNK     0      -3.993  -7.508  -3.394  0.00  0.00    -0.019 A 
HETATM    7  C   UNK     0      -5.370  -8.241  -1.611  0.00  0.00     0.080 A 
HETATM    8  C   UNK     0      -4.507  -9.323  -2.132  0.00  0.00    -0.032 A 
HETATM    9  C   UNK     0      -3.724  -8.861  -3.199  0.00  0.00    -0.016 A 
HETATM   10  C   UNK     0      -4.436 -10.676  -1.712  0.00  0.00    -0.016 A 
HETATM   11  C   UNK     0      -3.587 -11.550  -2.437  0.00  0.00     0.042 A 
HETATM   12  C   UNK     0      -2.824 -11.088  -3.534  0.00  0.00     0.027 A 
HETATM   13  C   UNK     0      -2.873  -9.729  -3.908  0.00  0.00     0.042 A 
ENDROOT
BRANCH  10  14
HETATM   14  C   UNK     0      -5.216 -11.165  -0.627  0.00  0.00    -0.023 A 
HETATM   15  C   UNK     0      -4.687 -11.186   0.683  0.00  0.00     0.029 A 
HETATM   16  C   UNK     0      -5.453 -11.715   1.739  0.00  0.00     0.090 A 
HETATM   17  N   UNK     0      -6.711 -12.211   1.522  0.00  0.00    -0.371 N 
HETATM   18  C   UNK     0      -7.249 -12.182   0.262  0.00  0.00     0.090 A 
HETATM   19  C   UNK     0      -7.479 -12.735   2.624  0.00  0.00     0.154 C 
HETATM   20  C   UNK     0      -6.526 -11.654  -0.823  0.00  0.00     0.029 A 
ENDBRANCH  10  14
BRANCH  12  21
HETATM   21  N   UNK     0      -2.063 -11.950  -4.239  0.00  0.00    -0.399 N 
HETATM   22  H   UNK     0      -1.915 -11.806  -5.189  0.00  0.00     0.156 HD
HETATM   23  H   UNK     0      -1.654 -12.712  -3.799  0.00  0.00     0.156 HD
ENDBRANCH  12  21
TORSDOF 2
ENDMDL
MODEL 9
REMARK VINA RESULT:      -6.2     16.554     18.348
REMARK  2 active torsions:
REMARK  status: ('A' for Active; 'I' for Inactive)
REMARK    1  A    between atoms: C_10  and  C_17 
REMARK    2  A    between atoms: C_12  and  N_14 
ROOT
HETATM    1  C   UNK     0      -3.746   5.020 -11.862  0.00  0.00     0.013 A 
HETATM    2  C   UNK     0      -4.501   5.946 -12.612  0.00  0.00     0.001 A 
HETATM    3  C   UNK     0      -4.252   7.331 -12.502  0.00  0.00     0.001 A 
HETATM    4  C   UNK     0      -3.248   7.810 -11.634  0.00  0.00     0.008 A 
HETATM    5  C   UNK     0      -2.499   6.880 -10.887  0.00  0.00    -0.043 A 
HETATM    6  C   UNK     0      -2.745   5.507 -11.000  0.00  0.00    -0.019 A 
HETATM    7  C   UNK     0      -1.415   7.154  -9.936  0.00  0.00     0.080 A 
HETATM    8  C   UNK     0      -1.048   5.783  -9.518  0.00  0.00    -0.032 A 
HETATM    9  C   UNK     0      -1.869   4.837 -10.148  0.00  0.00    -0.016 A 
HETATM   10  C   UNK     0      -0.054   5.380  -8.590  0.00  0.00    -0.016 A 
HETATM   11  C   UNK     0       0.045   3.997  -8.286  0.00  0.00     0.042 A 
HETATM   12  C   UNK     0      -0.807   3.050  -8.898  0.00  0.00     0.027 A 
HETATM   13  C   UNK     0      -1.759   3.466  -9.854  0.00  0.00     0.042 A 
ENDROOT
BRANCH  10  14
HETATM   14  C   UNK     0       0.795   6.321  -7.945  0.00  0.00    -0.023 A 
HETATM   15  C   UNK     0       0.272   7.220  -6.989  0.00  0.00     0.029 A 
HETATM   16  C   UNK     0       1.115   8.177  -6.392  0.00  0.00     0.090 A 
HETATM   17  N   UNK     0       2.442   8.254  -6.721  0.00  0.00    -0.371 N 
HETATM   18  C   UNK     0       2.972   7.379  -7.632  0.00  0.00     0.090 A 
HETATM   19  C   UNK     0       3.286   9.236  -6.085  0.00  0.00     0.154 C 
HETATM   20  C   UNK     0       2.172   6.399  -8.247  0.00  0.00     0.029 A 
ENDBRANCH  10  14
BRANCH  12  21
HETATM   21  N   UNK     0      -0.728   1.748  -8.555  0.00  0.00    -0.399 N 
HETATM   22  H   UNK     0      -1.501   1.169  -8.657  0.00  0.00     0.156 HD
HETATM   23  H   UNK     0       0.104   1.384  -8.212  0.00  0.00     0.156 HD
ENDBRANCH  12  21
TORSDOF 2
ENDMDL
