MODEL 1
REMARK VINA RESULT:      -6.8      0.000      0.000
REMARK  4 active torsions:
REMARK  status: ('A' for Active; 'I' for Inactive)
REMARK    1  A    between atoms: C_11  and  N_19 
REMARK    2  A    between atoms: C_13  and  C_14 
REMARK       I    between atoms: N_19  and  C_21 
REMARK    3  A    between atoms: C_21  and  C_22 
REMARK    4  A    between atoms: C_22  and  C_23 
ROOT
HETATM    1  C   UNK     0      -8.989   3.117   5.051  0.00  0.00     0.008 A 
HETATM    2  C   UNK     0      -8.601   2.354   3.931  0.00  0.00     0.001 A 
HETATM    3  C   UNK     0      -7.403   1.607   3.959  0.00  0.00     0.001 A 
HETATM    4  C   UNK     0      -6.585   1.610   5.109  0.00  0.00     0.013 A 
HETATM    5  C   UNK     0      -6.991   2.369   6.224  0.00  0.00    -0.019 A 
HETATM    6  C   UNK     0      -8.166   3.120   6.192  0.00  0.00    -0.043 A 
HETATM    7  C   UNK     0      -6.413   2.531   7.476  0.00  0.00    -0.016 A 
HETATM    8  C   UNK     0      -7.203   3.402   8.240  0.00  0.00    -0.031 A 
HETATM    9  C   UNK     0      -8.369   3.854   7.446  0.00  0.00     0.080 A 
HETATM   10  C   UNK     0      -5.248   1.943   7.994  0.00  0.00     0.042 A 
HETATM   11  C   UNK     0      -4.859   2.237   9.320  0.00  0.00     0.036 A 
HETATM   12  C   UNK     0      -5.677   3.095  10.096  0.00  0.00     0.043 A 
HETATM   13  C   UNK     0      -6.855   3.703   9.583  0.00  0.00    -0.009 A 
ENDROOT
BRANCH  13  14
HETATM   14  C   UNK     0      -7.625   4.562  10.423  0.00  0.00     0.015 A 
HETATM   15  C   UNK     0      -8.731   4.254  11.235  0.00  0.00     0.020 A 
HETATM   16  C   UNK     0      -9.300   5.322  11.950  0.00  0.00     0.008 A 
HETATM   17  C   UNK     0      -8.697   6.561  11.739  0.00  0.00     0.050 A 
HETATM   18  S   UNK     0      -7.381   6.294  10.616  0.00  0.00    -0.101 SA
ENDBRANCH  13  14
BRANCH  11  19
HETATM   19  N   UNK     0      -3.743   1.733   9.931  0.00  0.00    -0.327 N 
HETATM   20  C   UNK     0      -2.429   2.015   9.685  0.00  0.00     0.223 C 
HETATM   21  O   UNK     0      -2.063   2.855   8.828  0.00  0.00    -0.273 OA
HETATM   22  H   UNK     0      -3.908   1.120  10.666  0.00  0.00     0.169 HD
BRANCH  20  23
HETATM   23  C   UNK     0      -1.382   1.349  10.487  0.00  0.00     0.118 C 
BRANCH  23  24
HETATM   24  C   UNK     0      -1.531   1.651  11.995  0.00  0.00     0.124 C 
HETATM   25 Cl   UNK     0      -1.645   3.387  12.272  0.00  0.00    -0.130 Cl
ENDBRANCH  23  24
ENDBRANCH  20  23
ENDBRANCH  11  19
TORSDOF 4
ENDMDL
MODEL 2
REMARK VINA RESULT:      -6.1      2.884      5.291
REMARK  4 active torsions:
REMARK  status: ('A' for Active; 'I' for Inactive)
REMARK    1  A    between atoms: C_11  and  N_19 
REMARK    2  A    between atoms: C_13  and  C_14 
REMARK       I    between atoms: N_19  and  C_21 
REMARK    3  A    between atoms: C_21  and  C_22 
REMARK    4  A    between atoms: C_22  and  C_23 
ROOT
HETATM    1  C   UNK     0      -6.873   1.562   4.444  0.00  0.00     0.008 A 
HETATM    2  C   UNK     0      -7.951   1.788   3.565  0.00  0.00     0.001 A 
HETATM    3  C   UNK     0      -9.061   2.555   3.980  0.00  0.00     0.001 A 
HETATM    4  C   UNK     0      -9.100   3.111   5.276  0.00  0.00     0.013 A 
HETATM    5  C   UNK     0      -8.011   2.887   6.140  0.00  0.00    -0.019 A 
HETATM    6  C   UNK     0      -6.921   2.115   5.737  0.00  0.00    -0.043 A 
HETATM    7  C   UNK     0      -7.769   3.327   7.435  0.00  0.00    -0.016 A 
HETATM    8  C   UNK     0      -6.534   2.821   7.870  0.00  0.00    -0.031 A 
HETATM    9  C   UNK     0      -5.926   1.987   6.809  0.00  0.00     0.080 A 
HETATM   10  C   UNK     0      -8.552   4.163   8.245  0.00  0.00     0.042 A 
HETATM   11  C   UNK     0      -8.089   4.504   9.536  0.00  0.00     0.036 A 
HETATM   12  C   UNK     0      -6.829   4.013   9.959  0.00  0.00     0.043 A 
HETATM   13  C   UNK     0      -6.027   3.160   9.152  0.00  0.00    -0.009 A 
ENDROOT
BRANCH  13  14
HETATM   14  C   UNK     0      -4.770   2.701   9.650  0.00  0.00     0.015 A 
HETATM   15  C   UNK     0      -3.471   3.085   9.275  0.00  0.00     0.020 A 
HETATM   16  C   UNK     0      -2.412   2.443   9.938  0.00  0.00     0.008 A 
HETATM   17  C   UNK     0      -2.797   1.484  10.874  0.00  0.00     0.050 A 
HETATM   18  S   UNK     0      -4.548   1.459  10.876  0.00  0.00    -0.101 SA
ENDBRANCH  13  14
BRANCH  11  19
HETATM   19  N   UNK     0      -8.766   5.302  10.418  0.00  0.00    -0.327 N 
HETATM   20  C   UNK     0      -8.808   6.666  10.482  0.00  0.00     0.223 C 
HETATM   21  O   UNK     0      -8.213   7.404   9.661  0.00  0.00    -0.273 OA
HETATM   22  H   UNK     0      -9.323   4.836  11.063  0.00  0.00     0.169 HD
BRANCH  20  23
HETATM   23  C   UNK     0      -9.625   7.317  11.527  0.00  0.00     0.118 C 
BRANCH  23  24
HETATM   24  C   UNK     0      -9.267   6.807  12.940  0.00  0.00     0.124 C 
HETATM   25 Cl   UNK     0      -7.555   7.052  13.274  0.00  0.00    -0.130 Cl
ENDBRANCH  23  24
ENDBRANCH  20  23
ENDBRANCH  11  19
TORSDOF 4
ENDMDL
MODEL 3
REMARK VINA RESULT:      -6.0     18.120     20.809
REMARK  4 active torsions:
REMARK  status: ('A' for Active; 'I' for Inactive)
REMARK    1  A    between atoms: C_11  and  N_19 
REMARK    2  A    between atoms: C_13  and  C_14 
REMARK       I    between atoms: N_19  and  C_21 
REMARK    3  A    between atoms: C_21  and  C_22 
REMARK    4  A    between atoms: C_22  and  C_23 
ROOT
HETATM    1  C   UNK     0      13.791   2.078  -0.725  0.00  0.00     0.008 A 
HETATM    2  C   UNK     0      14.214   2.586  -1.971  0.00  0.00     0.001 A 
HETATM    3  C   UNK     0      13.730   2.022  -3.171  0.00  0.00     0.001 A 
HETATM    4  C   UNK     0      12.814   0.950  -3.139  0.00  0.00     0.013 A 
HETATM    5  C   UNK     0      12.392   0.460  -1.888  0.00  0.00    -0.019 A 
HETATM    6  C   UNK     0      12.882   1.005  -0.701  0.00  0.00    -0.043 A 
HETATM    7  C   UNK     0      11.494  -0.546  -1.558  0.00  0.00    -0.016 A 
HETATM    8  C   UNK     0      11.421  -0.661  -0.162  0.00  0.00    -0.031 A 
HETATM    9  C   UNK     0      12.333   0.317   0.474  0.00  0.00     0.080 A 
HETATM   10  C   UNK     0      10.717  -1.351  -2.407  0.00  0.00     0.042 A 
HETATM   11  C   UNK     0       9.840  -2.304  -1.842  0.00  0.00     0.036 A 
HETATM   12  C   UNK     0       9.751  -2.395  -0.431  0.00  0.00     0.043 A 
HETATM   13  C   UNK     0      10.536  -1.592   0.442  0.00  0.00    -0.009 A 
ENDROOT
BRANCH  13  14
HETATM   14  C   UNK     0      10.395  -1.746   1.854  0.00  0.00     0.015 A 
HETATM   15  C   UNK     0       9.396  -1.247   2.708  0.00  0.00     0.020 A 
HETATM   16  C   UNK     0       9.528  -1.553   4.072  0.00  0.00     0.008 A 
HETATM   17  C   UNK     0      10.656  -2.301   4.403  0.00  0.00     0.050 A 
HETATM   18  S   UNK     0      11.514  -2.603   2.906  0.00  0.00    -0.101 SA
ENDBRANCH  13  14
BRANCH  11  19
HETATM   19  N   UNK     0       9.041  -3.148  -2.565  0.00  0.00    -0.327 N 
HETATM   20  C   UNK     0       9.296  -4.426  -2.977  0.00  0.00     0.223 C 
HETATM   21  O   UNK     0      10.356  -5.033  -2.694  0.00  0.00    -0.273 OA
HETATM   22  H   UNK     0       8.159  -2.807  -2.782  0.00  0.00     0.169 HD
BRANCH  20  23
HETATM   23  C   UNK     0       8.268  -5.157  -3.747  0.00  0.00     0.118 C 
BRANCH  23  24
HETATM   24  C   UNK     0       7.674  -6.334  -2.942  0.00  0.00     0.124 C 
HETATM   25 Cl   UNK     0       7.007  -7.553  -4.026  0.00  0.00    -0.130 Cl
ENDBRANCH  23  24
ENDBRANCH  20  23
ENDBRANCH  11  19
TORSDOF 4
ENDMDL
MODEL 4
REMARK VINA RESULT:      -5.9     19.464     21.863
REMARK  4 active torsions:
REMARK  status: ('A' for Active; 'I' for Inactive)
REMARK    1  A    between atoms: C_11  and  N_19 
REMARK    2  A    between atoms: C_13  and  C_14 
REMARK       I    between atoms: N_19  and  C_21 
REMARK    3  A    between atoms: C_21  and  C_22 
REMARK    4  A    between atoms: C_22  and  C_23 
ROOT
HETATM    1  C   UNK     0      13.435  -6.262   0.325  0.00  0.00     0.008 A 
HETATM    2  C   UNK     0      13.686  -7.634   0.119  0.00  0.00     0.001 A 
HETATM    3  C   UNK     0      12.901  -8.372  -0.794  0.00  0.00     0.001 A 
HETATM    4  C   UNK     0      11.863  -7.745  -1.514  0.00  0.00     0.013 A 
HETATM    5  C   UNK     0      11.631  -6.371  -1.306  0.00  0.00    -0.019 A 
HETATM    6  C   UNK     0      12.395  -5.644  -0.393  0.00  0.00    -0.043 A 
HETATM    7  C   UNK     0      10.716  -5.503  -1.886  0.00  0.00    -0.016 A 
HETATM    8  C   UNK     0      10.877  -4.225  -1.332  0.00  0.00    -0.031 A 
HETATM    9  C   UNK     0      11.954  -4.246  -0.316  0.00  0.00     0.080 A 
HETATM   10  C   UNK     0       9.767  -5.760  -2.888  0.00  0.00     0.042 A 
HETATM   11  C   UNK     0       8.949  -4.704  -3.350  0.00  0.00     0.036 A 
HETATM   12  C   UNK     0       9.137  -3.410  -2.807  0.00  0.00     0.043 A 
HETATM   13  C   UNK     0      10.089  -3.135  -1.788  0.00  0.00    -0.009 A 
ENDROOT
BRANCH  13  14
HETATM   14  C   UNK     0      10.216  -1.806  -1.285  0.00  0.00     0.015 A 
HETATM   15  C   UNK     0      10.767  -0.669  -1.903  0.00  0.00     0.020 A 
HETATM   16  C   UNK     0      10.766   0.516  -1.149  0.00  0.00     0.008 A 
HETATM   17  C   UNK     0      10.233   0.400   0.133  0.00  0.00     0.050 A 
HETATM   18  S   UNK     0       9.725  -1.266   0.316  0.00  0.00    -0.101 SA
ENDBRANCH  13  14
BRANCH  11  19
HETATM   19  N   UNK     0       7.985  -4.833  -4.314  0.00  0.00    -0.327 N 
HETATM   20  C   UNK     0       6.851  -5.594  -4.296  0.00  0.00     0.223 C 
HETATM   21  O   UNK     0       6.517  -6.292  -3.309  0.00  0.00    -0.273 OA
HETATM   22  H   UNK     0       8.104  -4.279  -5.102  0.00  0.00     0.169 HD
BRANCH  20  23
HETATM   23  C   UNK     0       5.942  -5.568  -5.460  0.00  0.00     0.118 C 
BRANCH  23  24
HETATM   24  C   UNK     0       6.540  -6.310  -6.676  0.00  0.00     0.124 C 
HETATM   25 Cl   UNK     0       7.300  -7.817  -6.171  0.00  0.00    -0.130 Cl
ENDBRANCH  23  24
ENDBRANCH  20  23
ENDBRANCH  11  19
TORSDOF 4
ENDMDL
MODEL 5
REMARK VINA RESULT:      -5.9     17.631     20.276
REMARK  4 active torsions:
REMARK  status: ('A' for Active; 'I' for Inactive)
REMARK    1  A    between atoms: C_11  and  N_19 
REMARK    2  A    between atoms: C_13  and  C_14 
REMARK       I    between atoms: N_19  and  C_21 
REMARK    3  A    between atoms: C_21  and  C_22 
REMARK    4  A    between atoms: C_22  and  C_23 
ROOT
HETATM    1  C   UNK     0      -0.563   2.844 -10.816  0.00  0.00     0.008 A 
HETATM    2  C   UNK     0      -1.288   2.050  -9.903  0.00  0.00     0.001 A 
HETATM    3  C   UNK     0      -1.416   2.451  -8.556  0.00  0.00     0.001 A 
HETATM    4  C   UNK     0      -0.827   3.652  -8.108  0.00  0.00     0.013 A 
HETATM    5  C   UNK     0      -0.116   4.441  -9.033  0.00  0.00    -0.019 A 
HETATM    6  C   UNK     0       0.026   4.037 -10.362  0.00  0.00    -0.043 A 
HETATM    7  C   UNK     0       0.530   5.661  -8.885  0.00  0.00    -0.016 A 
HETATM    8  C   UNK     0       1.102   6.032 -10.111  0.00  0.00    -0.031 A 
HETATM    9  C   UNK     0       0.833   4.993 -11.130  0.00  0.00     0.080 A 
HETATM   10  C   UNK     0       0.624   6.478  -7.748  0.00  0.00     0.042 A 
HETATM   11  C   UNK     0       1.317   7.707  -7.837  0.00  0.00     0.036 A 
HETATM   12  C   UNK     0       1.869   8.088  -9.084  0.00  0.00     0.043 A 
HETATM   13  C   UNK     0       1.786   7.269 -10.244  0.00  0.00    -0.009 A 
ENDROOT
BRANCH  13  14
HETATM   14  C   UNK     0       2.373   7.719 -11.464  0.00  0.00     0.015 A 
HETATM   15  C   UNK     0       3.554   7.289 -12.096  0.00  0.00     0.020 A 
HETATM   16  C   UNK     0       3.891   7.933 -13.298  0.00  0.00     0.008 A 
HETATM   17  C   UNK     0       3.012   8.937 -13.696  0.00  0.00     0.050 A 
HETATM   18  S   UNK     0       1.746   9.004 -12.489  0.00  0.00    -0.101 SA
ENDBRANCH  13  14
BRANCH  11  19
HETATM   19  N   UNK     0       1.483   8.582  -6.797  0.00  0.00    -0.327 N 
HETATM   20  C   UNK     0       2.353   8.510  -5.747  0.00  0.00     0.223 C 
HETATM   21  O   UNK     0       3.187   7.582  -5.617  0.00  0.00    -0.273 OA
HETATM   22  H   UNK     0       0.934   9.381  -6.831  0.00  0.00     0.169 HD
BRANCH  20  23
HETATM   23  C   UNK     0       2.361   9.589  -4.737  0.00  0.00     0.118 C 
BRANCH  23  24
HETATM   24  C   UNK     0       1.013  10.341  -4.688  0.00  0.00     0.124 C 
HETATM   25 Cl   UNK     0       1.224  12.025  -5.161  0.00  0.00    -0.130 Cl
ENDBRANCH  23  24
ENDBRANCH  20  23
ENDBRANCH  11  19
TORSDOF 4
ENDMDL
MODEL 6
REMARK VINA RESULT:      -5.9     15.917     18.725
REMARK  4 active torsions:
REMARK  status: ('A' for Active; 'I' for Inactive)
REMARK    1  A    between atoms: C_11  and  N_19 
REMARK    2  A    between atoms: C_13  and  C_14 
REMARK       I    between atoms: N_19  and  C_21 
REMARK    3  A    between atoms: C_21  and  C_22 
REMARK    4  A    between atoms: C_22  and  C_23 
ROOT
HETATM    1  C   UNK     0      -3.847  -4.978  -6.211  0.00  0.00     0.008 A 
HETATM    2  C   UNK     0      -4.358  -3.915  -5.438  0.00  0.00     0.001 A 
HETATM    3  C   UNK     0      -4.771  -4.137  -4.106  0.00  0.00     0.001 A 
HETATM    4  C   UNK     0      -4.671  -5.421  -3.531  0.00  0.00     0.013 A 
HETATM    5  C   UNK     0      -4.148  -6.471  -4.311  0.00  0.00    -0.019 A 
HETATM    6  C   UNK     0      -3.755  -6.257  -5.632  0.00  0.00    -0.043 A 
HETATM    7  C   UNK     0      -3.910  -7.804  -4.003  0.00  0.00    -0.016 A 
HETATM    8  C   UNK     0      -3.384  -8.451  -5.131  0.00  0.00    -0.031 A 
HETATM    9  C   UNK     0      -3.277  -7.496  -6.258  0.00  0.00     0.080 A 
HETATM   10  C   UNK     0      -4.103  -8.478  -2.788  0.00  0.00     0.042 A 
HETATM   11  C   UNK     0      -3.763  -9.847  -2.696  0.00  0.00     0.036 A 
HETATM   12  C   UNK     0      -3.206 -10.487  -3.831  0.00  0.00     0.043 A 
HETATM   13  C   UNK     0      -3.010  -9.819  -5.070  0.00  0.00    -0.009 A 
ENDROOT
BRANCH  13  14
HETATM   14  C   UNK     0      -2.449 -10.533  -6.172  0.00  0.00     0.015 A 
HETATM   15  C   UNK     0      -1.119 -10.564  -6.627  0.00  0.00     0.020 A 
HETATM   16  C   UNK     0      -0.862 -11.356  -7.758  0.00  0.00     0.008 A 
HETATM   17  C   UNK     0      -1.978 -11.996  -8.295  0.00  0.00     0.050 A 
HETATM   18  S   UNK     0      -3.342 -11.556  -7.290  0.00  0.00    -0.101 SA
ENDBRANCH  13  14
BRANCH  11  19
HETATM   19  N   UNK     0      -3.913 -10.611  -1.570  0.00  0.00    -0.327 N 
HETATM   20  C   UNK     0      -5.040 -11.215  -1.090  0.00  0.00     0.223 C 
HETATM   21  O   UNK     0      -6.144 -11.165  -1.681  0.00  0.00    -0.273 OA
HETATM   22  H   UNK     0      -3.101 -10.778  -1.066  0.00  0.00     0.169 HD
BRANCH  20  23
HETATM   23  C   UNK     0      -4.961 -12.009   0.155  0.00  0.00     0.118 C 
BRANCH  23  24
HETATM   24  C   UNK     0      -4.625 -11.128   1.379  0.00  0.00     0.124 C 
HETATM   25 Cl   UNK     0      -4.164 -12.127   2.755  0.00  0.00    -0.130 Cl
ENDBRANCH  23  24
ENDBRANCH  20  23
ENDBRANCH  11  19
TORSDOF 4
ENDMDL
MODEL 7
REMARK VINA RESULT:      -5.8     15.974     18.433
REMARK  4 active torsions:
REMARK  status: ('A' for Active; 'I' for Inactive)
REMARK    1  A    between atoms: C_11  and  N_19 
REMARK    2  A    between atoms: C_13  and  C_14 
REMARK       I    between atoms: N_19  and  C_21 
REMARK    3  A    between atoms: C_21  and  C_22 
REMARK    4  A    between atoms: C_22  and  C_23 
ROOT
HETATM    1  C   UNK     0      -5.361  -5.920  -2.399  0.00  0.00     0.008 A 
HETATM    2  C   UNK     0      -4.862  -5.056  -3.396  0.00  0.00     0.001 A 
HETATM    3  C   UNK     0      -3.943  -5.531  -4.357  0.00  0.00     0.001 A 
HETATM    4  C   UNK     0      -3.519  -6.876  -4.336  0.00  0.00     0.013 A 
HETATM    5  C   UNK     0      -4.034  -7.731  -3.341  0.00  0.00    -0.019 A 
HETATM    6  C   UNK     0      -4.929  -7.258  -2.381  0.00  0.00    -0.043 A 
HETATM    7  C   UNK     0      -3.821  -9.082  -3.101  0.00  0.00    -0.016 A 
HETATM    8  C   UNK     0      -4.563  -9.473  -1.976  0.00  0.00    -0.031 A 
HETATM    9  C   UNK     0      -5.302  -8.312  -1.429  0.00  0.00     0.080 A 
HETATM   10  C   UNK     0      -3.037  -9.995  -3.823  0.00  0.00     0.042 A 
HETATM   11  C   UNK     0      -2.990 -11.345  -3.405  0.00  0.00     0.036 A 
HETATM   12  C   UNK     0      -3.763 -11.738  -2.286  0.00  0.00     0.043 A 
HETATM   13  C   UNK     0      -4.557 -10.824  -1.541  0.00  0.00    -0.009 A 
ENDROOT
BRANCH  13  14
HETATM   14  C   UNK     0      -5.305 -11.294  -0.419  0.00  0.00     0.015 A 
HETATM   15  C   UNK     0      -6.625 -11.776  -0.369  0.00  0.00     0.020 A 
HETATM   16  C   UNK     0      -7.103 -12.161   0.894  0.00  0.00     0.008 A 
HETATM   17  C   UNK     0      -6.201 -11.992   1.943  0.00  0.00     0.050 A 
HETATM   18  S   UNK     0      -4.733 -11.345   1.243  0.00  0.00    -0.101 SA
ENDBRANCH  13  14
BRANCH  11  19
HETATM   19  N   UNK     0      -2.257 -12.323  -4.021  0.00  0.00    -0.327 N 
HETATM   20  C   UNK     0      -2.646 -13.204  -4.989  0.00  0.00     0.223 C 
HETATM   21  O   UNK     0      -3.797 -13.202  -5.487  0.00  0.00    -0.273 OA
HETATM   22  H   UNK     0      -1.322 -12.371  -3.763  0.00  0.00     0.169 HD
BRANCH  20  23
HETATM   23  C   UNK     0      -1.668 -14.177  -5.519  0.00  0.00     0.118 C 
BRANCH  23  24
HETATM   24  C   UNK     0      -2.023 -15.627  -5.121  0.00  0.00     0.124 C 
HETATM   25 Cl   UNK     0      -2.607 -15.689  -3.461  0.00  0.00    -0.130 Cl
ENDBRANCH  23  24
ENDBRANCH  20  23
ENDBRANCH  11  19
TORSDOF 4
ENDMDL
MODEL 8
REMARK VINA RESULT:      -5.7     15.267     18.265
REMARK  4 active torsions:
REMARK  status: ('A' for Active; 'I' for Inactive)
REMARK    1  A    between atoms: C_11  and  N_19 
REMARK    2  A    between atoms: C_13  and  C_14 
REMARK       I    between atoms: N_19  and  C_21 
REMARK    3  A    between atoms: C_21  and  C_22 
REMARK    4  A    between atoms: C_22  and  C_23 
ROOT
HETATM    1  C   UNK     0      -1.517  -9.512  -8.148  0.00  0.00     0.008 A 
HETATM    2  C   UNK     0      -1.055 -10.802  -8.481  0.00  0.00     0.001 A 
HETATM    3  C   UNK     0      -1.155 -11.856  -7.547  0.00  0.00     0.001 A 
HETATM    4  C   UNK     0      -1.722 -11.634  -6.275  0.00  0.00     0.013 A 
HETATM    5  C   UNK     0      -2.190 -10.343  -5.961  0.00  0.00    -0.019 A 
HETATM    6  C   UNK     0      -2.078  -9.296  -6.876  0.00  0.00    -0.043 A 
HETATM    7  C   UNK     0      -2.809  -9.850  -4.820  0.00  0.00    -0.016 A 
HETATM    8  C   UNK     0      -3.077  -8.484  -4.994  0.00  0.00    -0.031 A 
HETATM    9  C   UNK     0      -2.596  -8.040  -6.322  0.00  0.00     0.080 A 
HETATM   10  C   UNK     0      -3.176 -10.532  -3.649  0.00  0.00     0.042 A 
HETATM   11  C   UNK     0      -3.828  -9.824  -2.615  0.00  0.00     0.036 A 
HETATM   12  C   UNK     0      -4.120  -8.451  -2.808  0.00  0.00     0.043 A 
HETATM   13  C   UNK     0      -3.750  -7.746  -3.986  0.00  0.00    -0.009 A 
ENDROOT
BRANCH  13  14
HETATM   14  C   UNK     0      -4.073  -6.361  -4.105  0.00  0.00     0.015 A 
HETATM   15  C   UNK     0      -3.960  -5.335  -3.149  0.00  0.00     0.020 A 
HETATM   16  C   UNK     0      -4.372  -4.055  -3.553  0.00  0.00     0.008 A 
HETATM   17  C   UNK     0      -4.864  -3.976  -4.855  0.00  0.00     0.050 A 
HETATM   18  S   UNK     0      -4.757  -5.588  -5.530  0.00  0.00    -0.101 SA
ENDBRANCH  13  14
BRANCH  11  19
HETATM   19  N   UNK     0      -4.225 -10.376  -1.427  0.00  0.00    -0.327 N 
HETATM   20  C   UNK     0      -5.448 -10.878  -1.081  0.00  0.00     0.223 C 
HETATM   21  O   UNK     0      -6.414 -10.925  -1.879  0.00  0.00    -0.273 OA
HETATM   22  H   UNK     0      -3.533 -10.458  -0.751  0.00  0.00     0.169 HD
BRANCH  20  23
HETATM   23  C   UNK     0      -5.644 -11.440   0.272  0.00  0.00     0.118 C 
BRANCH  23  24
HETATM   24  C   UNK     0      -4.597 -10.907   1.275  0.00  0.00     0.124 C 
HETATM   25 Cl   UNK     0      -4.194 -12.140   2.466  0.00  0.00    -0.130 Cl
ENDBRANCH  23  24
ENDBRANCH  20  23
ENDBRANCH  11  19
TORSDOF 4
ENDMDL
MODEL 9
REMARK VINA RESULT:      -5.7     20.203     22.868
REMARK  4 active torsions:
REMARK  status: ('A' for Active; 'I' for Inactive)
REMARK    1  A    between atoms: C_11  and  N_19 
REMARK    2  A    between atoms: C_13  and  C_14 
REMARK       I    between atoms: N_19  and  C_21 
REMARK    3  A    between atoms: C_21  and  C_22 
REMARK    4  A    between atoms: C_22  and  C_23 
ROOT
HETATM    1  C   UNK     0      12.722  -0.110  -2.149  0.00  0.00     0.008 A 
HETATM    2  C   UNK     0      11.970   0.836  -1.422  0.00  0.00     0.001 A 
HETATM    3  C   UNK     0      10.631   0.561  -1.069  0.00  0.00     0.001 A 
HETATM    4  C   UNK     0      10.032  -0.663  -1.432  0.00  0.00     0.013 A 
HETATM    5  C   UNK     0      10.799  -1.603  -2.148  0.00  0.00    -0.019 A 
HETATM    6  C   UNK     0      12.117  -1.327  -2.512  0.00  0.00    -0.043 A 
HETATM    7  C   UNK     0      10.487  -2.877  -2.603  0.00  0.00    -0.016 A 
HETATM    8  C   UNK     0      11.596  -3.411  -3.276  0.00  0.00    -0.031 A 
HETATM    9  C   UNK     0      12.706  -2.431  -3.280  0.00  0.00     0.080 A 
HETATM   10  C   UNK     0       9.299  -3.607  -2.442  0.00  0.00     0.042 A 
HETATM   11  C   UNK     0       9.215  -4.914  -2.974  0.00  0.00     0.036 A 
HETATM   12  C   UNK     0      10.348  -5.457  -3.627  0.00  0.00     0.043 A 
HETATM   13  C   UNK     0      11.556  -4.728  -3.804  0.00  0.00    -0.009 A 
ENDROOT
BRANCH  13  14
HETATM   14  C   UNK     0      12.653  -5.342  -4.480  0.00  0.00     0.015 A 
HETATM   15  C   UNK     0      13.723  -6.083  -3.948  0.00  0.00     0.020 A 
HETATM   16  C   UNK     0      14.674  -6.558  -4.867  0.00  0.00     0.008 A 
HETATM   17  C   UNK     0      14.437  -6.208  -6.195  0.00  0.00     0.050 A 
HETATM   18  S   UNK     0      12.955  -5.274  -6.212  0.00  0.00    -0.101 SA
ENDBRANCH  13  14
BRANCH  11  19
HETATM   19  N   UNK     0       8.109  -5.717  -2.887  0.00  0.00    -0.327 N 
HETATM   20  C   UNK     0       7.003  -5.742  -3.688  0.00  0.00     0.223 C 
HETATM   21  O   UNK     0       6.872  -4.999  -4.690  0.00  0.00    -0.273 OA
HETATM   22  H   UNK     0       8.132  -6.386  -2.184  0.00  0.00     0.169 HD
BRANCH  20  23
HETATM   23  C   UNK     0       5.926  -6.714  -3.406  0.00  0.00     0.118 C 
BRANCH  23  24
HETATM   24  C   UNK     0       6.407  -7.854  -2.481  0.00  0.00     0.124 C 
HETATM   25 Cl   UNK     0       6.045  -9.425  -3.192  0.00  0.00    -0.130 Cl
ENDBRANCH  23  24
ENDBRANCH  20  23
ENDBRANCH  11  19
TORSDOF 4
ENDMDL
