MODEL 1
REMARK VINA RESULT:      -7.2      0.000      0.000
REMARK  4 active torsions:
REMARK  status: ('A' for Active; 'I' for Inactive)
REMARK    1  A    between atoms: C_11  and  N_14 
REMARK    2  A    between atoms: C_13  and  C_21 
REMARK       I    between atoms: N_14  and  C_15 
REMARK    3  A    between atoms: C_15  and  C_16 
REMARK    4  A    between atoms: C_16  and  C_17 
ROOT
HETATM    1  C   UNK     0      13.578   2.058  -0.393  0.00  0.00     0.016 A 
HETATM    2  C   UNK     0      14.072   2.591  -1.602  0.00  0.00     0.001 A 
HETATM    3  C   UNK     0      13.668   2.048  -2.843  0.00  0.00     0.001 A 
HETATM    4  C   UNK     0      12.756   0.972  -2.893  0.00  0.00     0.013 A 
HETATM    5  C   UNK     0      12.260   0.456  -1.679  0.00  0.00    -0.011 A 
HETATM    6  C   UNK     0      12.671   0.983  -0.452  0.00  0.00     0.026 A 
HETATM    7  C   UNK     0      11.358  -0.575  -1.412  0.00  0.00    -0.008 A 
HETATM    8  C   UNK     0      11.239  -0.719  -0.024  0.00  0.00     0.037 A 
HETATM    9  C   UNK     0      12.041   0.273   0.571  0.00  0.00     0.195 A 
HETATM   10  C   UNK     0      10.624  -1.379  -2.297  0.00  0.00     0.043 A 
HETATM   11  C   UNK     0       9.762  -2.375  -1.779  0.00  0.00     0.036 A 
HETATM   12  C   UNK     0       9.666  -2.528  -0.374  0.00  0.00     0.043 A 
HETATM   13  C   UNK     0      10.403  -1.719   0.532  0.00  0.00    -0.009 A 
HETATM   14  O   UNK     0      12.171   0.517   1.793  0.00  0.00    -0.287 OA
ENDROOT
BRANCH  13  15
HETATM   15  C   UNK     0      10.297  -1.938   1.933  0.00  0.00    -0.022 A 
HETATM   16  C   UNK     0       9.276  -1.316   2.692  0.00  0.00     0.029 A 
HETATM   17  C   UNK     0       9.204  -1.541   4.078  0.00  0.00     0.088 A 
HETATM   18  N   UNK     0      10.120  -2.342   4.680  0.00  0.00    -0.375 N 
HETATM   19  C   UNK     0      11.116  -2.955   3.993  0.00  0.00     0.088 A 
HETATM   20  HN  UNK     0      10.056  -2.489   5.688  1.00  0.00     0.164 HD
HETATM   21  C   UNK     0      11.225  -2.771   2.602  0.00  0.00     0.029 A 
ENDBRANCH  13  15
BRANCH  11  22
HETATM   22  N   UNK     0       8.986  -3.189  -2.559  0.00  0.00    -0.327 N 
HETATM   23  C   UNK     0       9.205  -4.498  -2.889  0.00  0.00     0.223 C 
HETATM   24  O   UNK     0      10.157  -5.162  -2.416  0.00  0.00    -0.273 OA
HETATM   25  H   UNK     0       8.168  -2.795  -2.901  0.00  0.00     0.169 HD
BRANCH  23  26
HETATM   26  C   UNK     0       8.270  -5.186  -3.805  0.00  0.00     0.118 C 
BRANCH  26  27
HETATM   27  C   UNK     0       7.641  -6.443  -3.158  0.00  0.00     0.124 C 
HETATM   28 Cl   UNK     0       5.892  -6.453  -3.359  0.00  0.00    -0.130 Cl
ENDBRANCH  26  27
ENDBRANCH  23  26
ENDBRANCH  11  22
TORSDOF 4
ENDMDL
MODEL 2
REMARK VINA RESULT:      -7.1     17.894     20.788
REMARK  4 active torsions:
REMARK  status: ('A' for Active; 'I' for Inactive)
REMARK    1  A    between atoms: C_11  and  N_14 
REMARK    2  A    between atoms: C_13  and  C_21 
REMARK       I    between atoms: N_14  and  C_15 
REMARK    3  A    between atoms: C_15  and  C_16 
REMARK    4  A    between atoms: C_16  and  C_17 
ROOT
HETATM    1  C   UNK     0      -8.922   2.870   4.678  0.00  0.00     0.016 A 
HETATM    2  C   UNK     0      -8.438   2.132   3.576  0.00  0.00     0.001 A 
HETATM    3  C   UNK     0      -7.214   1.431   3.665  0.00  0.00     0.001 A 
HETATM    4  C   UNK     0      -6.462   1.450   4.859  0.00  0.00     0.013 A 
HETATM    5  C   UNK     0      -6.962   2.178   5.956  0.00  0.00    -0.011 A 
HETATM    6  C   UNK     0      -8.164   2.883   5.864  0.00  0.00     0.026 A 
HETATM    7  C   UNK     0      -6.461   2.371   7.245  0.00  0.00    -0.008 A 
HETATM    8  C   UNK     0      -7.325   3.227   7.939  0.00  0.00     0.037 A 
HETATM    9  C   UNK     0      -8.401   3.524   7.081  0.00  0.00     0.195 A 
HETATM   10  C   UNK     0      -5.315   1.836   7.853  0.00  0.00     0.043 A 
HETATM   11  C   UNK     0      -5.010   2.186   9.190  0.00  0.00     0.036 A 
HETATM   12  C   UNK     0      -5.879   3.071   9.876  0.00  0.00     0.043 A 
HETATM   13  C   UNK     0      -7.042   3.617   9.271  0.00  0.00    -0.009 A 
HETATM   14  O   UNK     0      -9.414   4.214   7.339  0.00  0.00    -0.287 OA
ENDROOT
BRANCH  13  15
HETATM   15  C   UNK     0      -7.862   4.529   9.994  0.00  0.00    -0.022 A 
HETATM   16  C   UNK     0      -7.628   5.924   9.933  0.00  0.00     0.029 A 
HETATM   17  C   UNK     0      -8.446   6.799  10.670  0.00  0.00     0.088 A 
HETATM   18  N   UNK     0      -9.445   6.300  11.441  0.00  0.00    -0.375 N 
HETATM   19  C   UNK     0      -9.703   4.971  11.531  0.00  0.00     0.088 A 
HETATM   20  HN  UNK     0     -10.025   6.949  11.973  1.00  0.00     0.164 HD
HETATM   21  C   UNK     0      -8.919   4.055  10.805  0.00  0.00     0.029 A 
ENDBRANCH  13  15
BRANCH  11  22
HETATM   22  N   UNK     0      -3.933   1.697   9.878  0.00  0.00    -0.327 N 
HETATM   23  C   UNK     0      -2.653   2.177   9.891  0.00  0.00     0.223 C 
HETATM   24  O   UNK     0      -2.323   3.234   9.303  0.00  0.00    -0.273 OA
HETATM   25  H   UNK     0      -4.105   0.928  10.443  0.00  0.00     0.169 HD
BRANCH  23  26
HETATM   26  C   UNK     0      -1.611   1.459  10.656  0.00  0.00     0.118 C 
BRANCH  26  27
HETATM   27  C   UNK     0      -1.790   1.630  12.184  0.00  0.00     0.124 C 
HETATM   28 Cl   UNK     0      -1.521   3.299  12.673  0.00  0.00    -0.130 Cl
ENDBRANCH  26  27
ENDBRANCH  23  26
ENDBRANCH  11  22
TORSDOF 4
ENDMDL
MODEL 3
REMARK VINA RESULT:      -6.7      3.170      5.396
REMARK  4 active torsions:
REMARK  status: ('A' for Active; 'I' for Inactive)
REMARK    1  A    between atoms: C_11  and  N_14 
REMARK    2  A    between atoms: C_13  and  C_21 
REMARK       I    between atoms: N_14  and  C_15 
REMARK    3  A    between atoms: C_15  and  C_16 
REMARK    4  A    between atoms: C_16  and  C_17 
ROOT
HETATM    1  C   UNK     0      13.551  -6.008   0.518  0.00  0.00     0.016 A 
HETATM    2  C   UNK     0      13.857  -7.380   0.403  0.00  0.00     0.001 A 
HETATM    3  C   UNK     0      13.126  -8.206  -0.480  0.00  0.00     0.001 A 
HETATM    4  C   UNK     0      12.086  -7.670  -1.269  0.00  0.00     0.013 A 
HETATM    5  C   UNK     0      11.798  -6.295  -1.155  0.00  0.00    -0.011 A 
HETATM    6  C   UNK     0      12.511  -5.482  -0.271  0.00  0.00     0.026 A 
HETATM    7  C   UNK     0      10.855  -5.491  -1.798  0.00  0.00    -0.008 A 
HETATM    8  C   UNK     0      10.951  -4.191  -1.286  0.00  0.00     0.037 A 
HETATM    9  C   UNK     0      12.003  -4.184  -0.351  0.00  0.00     0.195 A 
HETATM   10  C   UNK     0       9.937  -5.815  -2.808  0.00  0.00     0.043 A 
HETATM   11  C   UNK     0       9.070  -4.813  -3.306  0.00  0.00     0.036 A 
HETATM   12  C   UNK     0       9.158  -3.507  -2.765  0.00  0.00     0.043 A 
HETATM   13  C   UNK     0      10.085  -3.167  -1.743  0.00  0.00    -0.009 A 
HETATM   14  O   UNK     0      12.445  -3.205   0.293  0.00  0.00    -0.287 OA
ENDROOT
BRANCH  13  15
HETATM   15  C   UNK     0      10.109  -1.848  -1.211  0.00  0.00    -0.022 A 
HETATM   16  C   UNK     0       9.578  -1.571   0.072  0.00  0.00     0.029 A 
HETATM   17  C   UNK     0       9.603  -0.254   0.566  0.00  0.00     0.088 A 
HETATM   18  N   UNK     0      10.125   0.742  -0.194  0.00  0.00    -0.375 N 
HETATM   19  C   UNK     0      10.642   0.522  -1.430  0.00  0.00     0.088 A 
HETATM   20  HN  UNK     0      10.130   1.692   0.178  1.00  0.00     0.164 HD
HETATM   21  C   UNK     0      10.650  -0.779  -1.964  0.00  0.00     0.029 A 
ENDBRANCH  13  15
BRANCH  11  22
HETATM   22  N   UNK     0       8.160  -5.024  -4.307  0.00  0.00    -0.327 N 
HETATM   23  C   UNK     0       6.970  -5.694  -4.237  0.00  0.00     0.223 C 
HETATM   24  O   UNK     0       6.514  -6.147  -3.161  0.00  0.00    -0.273 OA
HETATM   25  H   UNK     0       8.377  -4.628  -5.166  0.00  0.00     0.169 HD
BRANCH  23  26
HETATM   26  C   UNK     0       6.157  -5.866  -5.459  0.00  0.00     0.118 C 
BRANCH  26  27
HETATM   27  C   UNK     0       6.846  -6.790  -6.492  0.00  0.00     0.124 C 
HETATM   28 Cl   UNK     0       7.221  -8.360  -5.789  0.00  0.00    -0.130 Cl
ENDBRANCH  26  27
ENDBRANCH  23  26
ENDBRANCH  11  22
TORSDOF 4
ENDMDL
MODEL 4
REMARK VINA RESULT:      -6.3     16.404     17.662
REMARK  4 active torsions:
REMARK  status: ('A' for Active; 'I' for Inactive)
REMARK    1  A    between atoms: C_11  and  N_14 
REMARK    2  A    between atoms: C_13  and  C_21 
REMARK       I    between atoms: N_14  and  C_15 
REMARK    3  A    between atoms: C_15  and  C_16 
REMARK    4  A    between atoms: C_16  and  C_17 
ROOT
HETATM    1  C   UNK     0      -5.417  -5.854  -2.199  0.00  0.00     0.016 A 
HETATM    2  C   UNK     0      -4.925  -4.960  -3.174  0.00  0.00     0.001 A 
HETATM    3  C   UNK     0      -4.009  -5.402  -4.155  0.00  0.00     0.001 A 
HETATM    4  C   UNK     0      -3.580  -6.747  -4.182  0.00  0.00     0.013 A 
HETATM    5  C   UNK     0      -4.089  -7.633  -3.212  0.00  0.00    -0.011 A 
HETATM    6  C   UNK     0      -4.983  -7.193  -2.234  0.00  0.00     0.026 A 
HETATM    7  C   UNK     0      -3.865  -8.994  -2.994  0.00  0.00    -0.008 A 
HETATM    8  C   UNK     0      -4.583  -9.390  -1.860  0.00  0.00     0.037 A 
HETATM    9  C   UNK     0      -5.300  -8.268  -1.402  0.00  0.00     0.195 A 
HETATM   10  C   UNK     0      -3.094  -9.907  -3.729  0.00  0.00     0.043 A 
HETATM   11  C   UNK     0      -3.020 -11.255  -3.303  0.00  0.00     0.036 A 
HETATM   12  C   UNK     0      -3.731 -11.641  -2.140  0.00  0.00     0.043 A 
HETATM   13  C   UNK     0      -4.516 -10.725  -1.389  0.00  0.00    -0.009 A 
HETATM   14  O   UNK     0      -6.103  -8.215  -0.442  0.00  0.00    -0.287 OA
ENDROOT
BRANCH  13  15
HETATM   15  C   UNK     0      -5.183 -11.157  -0.209  0.00  0.00    -0.022 A 
HETATM   16  C   UNK     0      -4.497 -11.236   1.027  0.00  0.00     0.029 A 
HETATM   17  C   UNK     0      -5.179 -11.680   2.174  0.00  0.00     0.088 A 
HETATM   18  N   UNK     0      -6.485 -12.040   2.086  0.00  0.00    -0.375 N 
HETATM   19  C   UNK     0      -7.180 -11.983   0.921  0.00  0.00     0.088 A 
HETATM   20  HN  UNK     0      -6.962 -12.366   2.927  1.00  0.00     0.164 HD
HETATM   21  C   UNK     0      -6.545 -11.536  -0.252  0.00  0.00     0.029 A 
ENDBRANCH  13  15
BRANCH  11  22
HETATM   22  N   UNK     0      -2.317 -12.224  -3.967  0.00  0.00    -0.327 N 
HETATM   23  C   UNK     0      -2.756 -13.047  -4.967  0.00  0.00     0.223 C 
HETATM   24  O   UNK     0      -3.897 -12.941  -5.475  0.00  0.00    -0.273 OA
HETATM   25  H   UNK     0      -1.387 -12.323  -3.711  0.00  0.00     0.169 HD
BRANCH  23  26
HETATM   26  C   UNK     0      -1.850 -14.081  -5.511  0.00  0.00     0.118 C 
BRANCH  26  27
HETATM   27  C   UNK     0      -1.477 -15.144  -4.451  0.00  0.00     0.124 C 
HETATM   28 Cl   UNK     0      -2.888 -15.633  -3.517  0.00  0.00    -0.130 Cl
ENDBRANCH  26  27
ENDBRANCH  23  26
ENDBRANCH  11  22
TORSDOF 4
ENDMDL
MODEL 5
REMARK VINA RESULT:      -6.3     16.378     17.562
REMARK  4 active torsions:
REMARK  status: ('A' for Active; 'I' for Inactive)
REMARK    1  A    between atoms: C_11  and  N_14 
REMARK    2  A    between atoms: C_13  and  C_21 
REMARK       I    between atoms: N_14  and  C_15 
REMARK    3  A    between atoms: C_15  and  C_16 
REMARK    4  A    between atoms: C_16  and  C_17 
ROOT
HETATM    1  C   UNK     0      -3.830  -4.971  -6.240  0.00  0.00     0.016 A 
HETATM    2  C   UNK     0      -4.377  -3.914  -5.483  0.00  0.00     0.001 A 
HETATM    3  C   UNK     0      -4.820  -4.134  -4.159  0.00  0.00     0.001 A 
HETATM    4  C   UNK     0      -4.712  -5.413  -3.570  0.00  0.00     0.013 A 
HETATM    5  C   UNK     0      -4.152  -6.457  -4.332  0.00  0.00    -0.011 A 
HETATM    6  C   UNK     0      -3.728  -6.243  -5.645  0.00  0.00     0.026 A 
HETATM    7  C   UNK     0      -3.909  -7.798  -4.026  0.00  0.00    -0.008 A 
HETATM    8  C   UNK     0      -3.375  -8.426  -5.158  0.00  0.00     0.037 A 
HETATM    9  C   UNK     0      -3.240  -7.445  -6.159  0.00  0.00     0.195 A 
HETATM   10  C   UNK     0      -4.105  -8.496  -2.825  0.00  0.00     0.043 A 
HETATM   11  C   UNK     0      -3.780  -9.872  -2.760  0.00  0.00     0.036 A 
HETATM   12  C   UNK     0      -3.263 -10.504  -3.918  0.00  0.00     0.043 A 
HETATM   13  C   UNK     0      -3.058  -9.807  -5.139  0.00  0.00    -0.009 A 
HETATM   14  O   UNK     0      -2.754  -7.586  -7.305  0.00  0.00    -0.287 OA
ENDROOT
BRANCH  13  15
HETATM   15  C   UNK     0      -2.569 -10.498  -6.282  0.00  0.00    -0.022 A 
HETATM   16  C   UNK     0      -1.178 -10.636  -6.509  0.00  0.00     0.029 A 
HETATM   17  C   UNK     0      -0.724 -11.313  -7.655  0.00  0.00     0.088 A 
HETATM   18  N   UNK     0      -1.621 -11.819  -8.540  0.00  0.00    -0.375 N 
HETATM   19  C   UNK     0      -2.962 -11.707  -8.363  0.00  0.00     0.088 A 
HETATM   20  HN  UNK     0      -1.274 -12.301  -9.369  1.00  0.00     0.164 HD
HETATM   21  C   UNK     0      -3.467 -11.048  -7.227  0.00  0.00     0.029 A 
ENDBRANCH  13  15
BRANCH  11  22
HETATM   22  N   UNK     0      -3.910 -10.631  -1.629  0.00  0.00    -0.327 N 
HETATM   23  C   UNK     0      -5.033 -11.251  -1.154  0.00  0.00     0.223 C 
HETATM   24  O   UNK     0      -6.116 -11.261  -1.787  0.00  0.00    -0.273 OA
HETATM   25  H   UNK     0      -3.100 -10.765  -1.113  0.00  0.00     0.169 HD
BRANCH  23  26
HETATM   26  C   UNK     0      -4.978 -11.976   0.132  0.00  0.00     0.118 C 
BRANCH  26  27
HETATM   27  C   UNK     0      -4.635 -11.039   1.315  0.00  0.00     0.124 C 
HETATM   28 Cl   UNK     0      -4.136 -11.959   2.731  0.00  0.00    -0.130 Cl
ENDBRANCH  26  27
ENDBRANCH  23  26
ENDBRANCH  11  22
TORSDOF 4
ENDMDL
MODEL 6
REMARK VINA RESULT:      -6.2      1.997      5.049
REMARK  4 active torsions:
REMARK  status: ('A' for Active; 'I' for Inactive)
REMARK    1  A    between atoms: C_11  and  N_14 
REMARK    2  A    between atoms: C_13  and  C_21 
REMARK       I    between atoms: N_14  and  C_15 
REMARK    3  A    between atoms: C_15  and  C_16 
REMARK    4  A    between atoms: C_16  and  C_17 
ROOT
HETATM    1  C   UNK     0      12.374  -1.282   2.973  0.00  0.00     0.016 A 
HETATM    2  C   UNK     0      11.615  -1.872   4.006  0.00  0.00     0.001 A 
HETATM    3  C   UNK     0      10.450  -2.613   3.706  0.00  0.00     0.001 A 
HETATM    4  C   UNK     0      10.032  -2.783   2.368  0.00  0.00     0.013 A 
HETATM    5  C   UNK     0      10.805  -2.200   1.345  0.00  0.00    -0.011 A 
HETATM    6  C   UNK     0      11.949  -1.456   1.642  0.00  0.00     0.026 A 
HETATM    7  C   UNK     0      10.656  -2.204  -0.043  0.00  0.00    -0.008 A 
HETATM    8  C   UNK     0      11.678  -1.430  -0.606  0.00  0.00     0.037 A 
HETATM    9  C   UNK     0      12.498  -0.985   0.448  0.00  0.00     0.195 A 
HETATM   10  C   UNK     0       9.701  -2.851  -0.843  0.00  0.00     0.043 A 
HETATM   11  C   UNK     0       9.756  -2.700  -2.249  0.00  0.00     0.036 A 
HETATM   12  C   UNK     0      10.780  -1.895  -2.808  0.00  0.00     0.043 A 
HETATM   13  C   UNK     0      11.752  -1.237  -2.008  0.00  0.00    -0.009 A 
HETATM   14  O   UNK     0      13.549  -0.309   0.364  0.00  0.00    -0.287 OA
ENDROOT
BRANCH  13  15
HETATM   15  C   UNK     0      12.739  -0.413  -2.618  0.00  0.00    -0.022 A 
HETATM   16  C   UNK     0      12.543   0.984  -2.745  0.00  0.00     0.029 A 
HETATM   17  C   UNK     0      13.530   1.771  -3.365  0.00  0.00     0.088 A 
HETATM   18  N   UNK     0      14.657   1.186  -3.846  0.00  0.00    -0.375 N 
HETATM   19  C   UNK     0      14.884  -0.149  -3.748  0.00  0.00     0.088 A 
HETATM   20  HN  UNK     0      15.359   1.771  -4.298  1.00  0.00     0.164 HD
HETATM   21  C   UNK     0      13.932  -0.978  -3.127  0.00  0.00     0.029 A 
ENDBRANCH  13  15
BRANCH  11  22
HETATM   22  N   UNK     0       8.889  -3.311  -3.114  0.00  0.00    -0.327 N 
HETATM   23  C   UNK     0       8.754  -4.648  -3.368  0.00  0.00     0.223 C 
HETATM   24  O   UNK     0       9.393  -5.522  -2.736  0.00  0.00    -0.273 OA
HETATM   25  H   UNK     0       8.279  -2.723  -3.587  0.00  0.00     0.169 HD
BRANCH  23  26
HETATM   26  C   UNK     0       7.793  -5.102  -4.395  0.00  0.00     0.118 C 
BRANCH  26  27
HETATM   27  C   UNK     0       7.311  -6.551  -4.141  0.00  0.00     0.124 C 
HETATM   28 Cl   UNK     0       5.860  -6.573  -3.144  0.00  0.00    -0.130 Cl
ENDBRANCH  26  27
ENDBRANCH  23  26
ENDBRANCH  11  22
TORSDOF 4
ENDMDL
MODEL 7
REMARK VINA RESULT:      -6.2     14.732     16.434
REMARK  4 active torsions:
REMARK  status: ('A' for Active; 'I' for Inactive)
REMARK    1  A    between atoms: C_11  and  N_14 
REMARK    2  A    between atoms: C_13  and  C_21 
REMARK       I    between atoms: N_14  and  C_15 
REMARK    3  A    between atoms: C_15  and  C_16 
REMARK    4  A    between atoms: C_16  and  C_17 
ROOT
HETATM    1  C   UNK     0       3.407   5.838 -13.414  0.00  0.00     0.016 A 
HETATM    2  C   UNK     0       4.386   6.716 -13.926  0.00  0.00     0.001 A 
HETATM    3  C   UNK     0       4.753   7.877 -13.209  0.00  0.00     0.001 A 
HETATM    4  C   UNK     0       4.154   8.172 -11.965  0.00  0.00     0.013 A 
HETATM    5  C   UNK     0       3.187   7.281 -11.458  0.00  0.00    -0.011 A 
HETATM    6  C   UNK     0       2.814   6.141 -12.174  0.00  0.00     0.026 A 
HETATM    7  C   UNK     0       2.444   7.297 -10.277  0.00  0.00    -0.008 A 
HETATM    8  C   UNK     0       1.580   6.195 -10.276  0.00  0.00     0.037 A 
HETATM    9  C   UNK     0       1.832   5.461 -11.451  0.00  0.00     0.195 A 
HETATM   10  C   UNK     0       2.485   8.196  -9.201  0.00  0.00     0.043 A 
HETATM   11  C   UNK     0       1.619   8.001  -8.099  0.00  0.00     0.036 A 
HETATM   12  C   UNK     0       0.732   6.896  -8.117  0.00  0.00     0.043 A 
HETATM   13  C   UNK     0       0.683   5.978  -9.201  0.00  0.00    -0.009 A 
HETATM   14  O   UNK     0       1.308   4.380 -11.803  0.00  0.00    -0.287 OA
ENDROOT
BRANCH  13  15
HETATM   15  C   UNK     0      -0.251   4.905  -9.185  0.00  0.00    -0.022 A 
HETATM   16  C   UNK     0      -0.006   3.738  -8.422  0.00  0.00     0.029 A 
HETATM   17  C   UNK     0      -0.941   2.688  -8.437  0.00  0.00     0.088 A 
HETATM   18  N   UNK     0      -2.066   2.796  -9.190  0.00  0.00    -0.375 N 
HETATM   19  C   UNK     0      -2.339   3.895  -9.937  0.00  0.00     0.088 A 
HETATM   20  HN  UNK     0      -2.730   2.022  -9.194  1.00  0.00     0.164 HD
HETATM   21  C   UNK     0      -1.440   4.977  -9.948  0.00  0.00     0.029 A 
ENDBRANCH  13  15
BRANCH  11  22
HETATM   22  N   UNK     0       1.603   8.806  -6.992  0.00  0.00    -0.327 N 
HETATM   23  C   UNK     0       2.265   8.626  -5.809  0.00  0.00     0.223 C 
HETATM   24  O   UNK     0       3.076   7.687  -5.627  0.00  0.00    -0.273 OA
HETATM   25  H   UNK     0       1.075   9.617  -7.066  0.00  0.00     0.169 HD
BRANCH  23  26
HETATM   26  C   UNK     0       2.062   9.588  -4.705  0.00  0.00     0.118 C 
BRANCH  26  27
HETATM   27  C   UNK     0       0.921  10.588  -5.007  0.00  0.00     0.124 C 
HETATM   28 Cl   UNK     0       1.551  12.213  -5.263  0.00  0.00    -0.130 Cl
ENDBRANCH  26  27
ENDBRANCH  23  26
ENDBRANCH  11  22
TORSDOF 4
ENDMDL
MODEL 8
REMARK VINA RESULT:      -6.2     15.968     17.758
REMARK  4 active torsions:
REMARK  status: ('A' for Active; 'I' for Inactive)
REMARK    1  A    between atoms: C_11  and  N_14 
REMARK    2  A    between atoms: C_13  and  C_21 
REMARK       I    between atoms: N_14  and  C_15 
REMARK    3  A    between atoms: C_15  and  C_16 
REMARK    4  A    between atoms: C_16  and  C_17 
ROOT
HETATM    1  C   UNK     0      -6.108 -10.375  -0.012  0.00  0.00     0.016 A 
HETATM    2  C   UNK     0      -6.044 -11.698   0.477  0.00  0.00     0.001 A 
HETATM    3  C   UNK     0      -5.239 -12.663  -0.169  0.00  0.00     0.001 A 
HETATM    4  C   UNK     0      -4.479 -12.318  -1.307  0.00  0.00     0.013 A 
HETATM    5  C   UNK     0      -4.540 -10.992  -1.778  0.00  0.00    -0.011 A 
HETATM    6  C   UNK     0      -5.347 -10.041  -1.148  0.00  0.00     0.026 A 
HETATM    7  C   UNK     0      -3.907 -10.361  -2.850  0.00  0.00    -0.008 A 
HETATM    8  C   UNK     0      -4.349  -9.034  -2.914  0.00  0.00     0.037 A 
HETATM    9  C   UNK     0      -5.230  -8.831  -1.835  0.00  0.00     0.195 A 
HETATM   10  C   UNK     0      -2.961 -10.863  -3.757  0.00  0.00     0.043 A 
HETATM   11  C   UNK     0      -2.458 -10.018  -4.775  0.00  0.00     0.036 A 
HETATM   12  C   UNK     0      -2.930  -8.684  -4.846  0.00  0.00     0.043 A 
HETATM   13  C   UNK     0      -3.886  -8.165  -3.933  0.00  0.00    -0.009 A 
HETATM   14  O   UNK     0      -5.802  -7.767  -1.506  0.00  0.00    -0.287 OA
ENDROOT
BRANCH  13  15
HETATM   15  C   UNK     0      -4.352  -6.827  -4.071  0.00  0.00    -0.022 A 
HETATM   16  C   UNK     0      -5.359  -6.500  -5.011  0.00  0.00     0.029 A 
HETATM   17  C   UNK     0      -5.790  -5.167  -5.133  0.00  0.00     0.088 A 
HETATM   18  N   UNK     0      -5.230  -4.203  -4.359  0.00  0.00    -0.375 N 
HETATM   19  C   UNK     0      -4.260  -4.471  -3.448  0.00  0.00     0.088 A 
HETATM   20  HN  UNK     0      -5.550  -3.240  -4.466  1.00  0.00     0.164 HD
HETATM   21  C   UNK     0      -3.803  -5.791  -3.280  0.00  0.00     0.029 A 
ENDBRANCH  13  15
BRANCH  11  22
HETATM   22  N   UNK     0      -1.515 -10.405  -5.688  0.00  0.00    -0.327 N 
HETATM   23  C   UNK     0      -1.706 -11.077  -6.864  0.00  0.00     0.223 C 
HETATM   24  O   UNK     0      -2.847 -11.357  -7.302  0.00  0.00    -0.273 OA
HETATM   25  H   UNK     0      -0.601 -10.151  -5.487  0.00  0.00     0.169 HD
BRANCH  23  26
HETATM   26  C   UNK     0      -0.538 -11.461  -7.683  0.00  0.00     0.118 C 
BRANCH  26  27
HETATM   27  C   UNK     0      -0.665 -10.969  -9.145  0.00  0.00     0.124 C 
HETATM   28 Cl   UNK     0      -0.965  -9.235  -9.208  0.00  0.00    -0.130 Cl
ENDBRANCH  26  27
ENDBRANCH  23  26
ENDBRANCH  11  22
TORSDOF 4
ENDMDL
MODEL 9
REMARK VINA RESULT:      -6.1     14.869     15.819
REMARK  4 active torsions:
REMARK  status: ('A' for Active; 'I' for Inactive)
REMARK    1  A    between atoms: C_11  and  N_14 
REMARK    2  A    between atoms: C_13  and  C_21 
REMARK       I    between atoms: N_14  and  C_15 
REMARK    3  A    between atoms: C_15  and  C_16 
REMARK    4  A    between atoms: C_16  and  C_17 
ROOT
HETATM    1  C   UNK     0       4.059  10.665 -11.344  0.00  0.00     0.016 A 
HETATM    2  C   UNK     0       4.575  10.140 -12.548  0.00  0.00     0.001 A 
HETATM    3  C   UNK     0       4.423   8.770 -12.857  0.00  0.00     0.001 A 
HETATM    4  C   UNK     0       3.743   7.906 -11.971  0.00  0.00     0.013 A 
HETATM    5  C   UNK     0       3.221   8.444 -10.778  0.00  0.00    -0.011 A 
HETATM    6  C   UNK     0       3.384   9.796 -10.466  0.00  0.00     0.026 A 
HETATM    7  C   UNK     0       2.507   7.856  -9.733  0.00  0.00    -0.008 A 
HETATM    8  C   UNK     0       2.263   8.827  -8.754  0.00  0.00     0.037 A 
HETATM    9  C   UNK     0       2.791  10.043  -9.227  0.00  0.00     0.195 A 
HETATM   10  C   UNK     0       2.043   6.539  -9.590  0.00  0.00     0.043 A 
HETATM   11  C   UNK     0       1.333   6.175  -8.421  0.00  0.00     0.036 A 
HETATM   12  C   UNK     0       1.112   7.159  -7.426  0.00  0.00     0.043 A 
HETATM   13  C   UNK     0       1.575   8.495  -7.560  0.00  0.00    -0.009 A 
HETATM   14  O   UNK     0       2.734  11.165  -8.675  0.00  0.00    -0.287 OA
ENDROOT
BRANCH  13  15
HETATM   15  C   UNK     0       1.356   9.435  -6.514  0.00  0.00    -0.022 A 
HETATM   16  C   UNK     0       2.235   9.511  -5.407  0.00  0.00     0.029 A 
HETATM   17  C   UNK     0       1.984  10.441  -4.383  0.00  0.00     0.088 A 
HETATM   18  N   UNK     0       0.897  11.250  -4.456  0.00  0.00    -0.375 N 
HETATM   19  C   UNK     0       0.027  11.209  -5.497  0.00  0.00     0.088 A 
HETATM   20  HN  UNK     0       0.728  11.915  -3.701  1.00  0.00     0.164 HD
HETATM   21  C   UNK     0       0.239  10.304  -6.553  0.00  0.00     0.029 A 
ENDBRANCH  13  15
BRANCH  11  22
HETATM   22  N   UNK     0       0.818   4.926  -8.202  0.00  0.00    -0.327 N 
HETATM   23  C   UNK     0      -0.464   4.495  -8.404  0.00  0.00     0.223 C 
HETATM   24  O   UNK     0      -1.345   5.221  -8.923  0.00  0.00    -0.273 OA
HETATM   25  H   UNK     0       1.447   4.258  -7.886  0.00  0.00     0.169 HD
BRANCH  23  26
HETATM   26  C   UNK     0      -0.835   3.112  -8.041  0.00  0.00     0.118 C 
BRANCH  26  27
HETATM   27  C   UNK     0      -1.765   2.463  -9.094  0.00  0.00     0.124 C 
HETATM   28 Cl   UNK     0      -0.931   2.240 -10.628  0.00  0.00    -0.130 Cl
ENDBRANCH  26  27
ENDBRANCH  23  26
ENDBRANCH  11  22
TORSDOF 4
ENDMDL
