MODEL 1
REMARK VINA RESULT:      -6.9      0.000      0.000
REMARK  4 active torsions:
REMARK  status: ('A' for Active; 'I' for Inactive)
REMARK    1  A    between atoms: C_11  and  N_14 
REMARK    2  A    between atoms: C_13  and  C_21 
REMARK       I    between atoms: N_14  and  C_15 
REMARK    3  A    between atoms: C_15  and  C_16 
REMARK    4  A    between atoms: C_16  and  C_17 
ROOT
HETATM    1  C   UNK     0      -8.993   2.821   4.592  0.00  0.00     0.008 A 
HETATM    2  C   UNK     0      -8.526   2.063   3.498  0.00  0.00     0.001 A 
HETATM    3  C   UNK     0      -7.316   1.343   3.592  0.00  0.00     0.001 A 
HETATM    4  C   UNK     0      -6.553   1.384   4.775  0.00  0.00     0.013 A 
HETATM    5  C   UNK     0      -7.026   2.150   5.859  0.00  0.00    -0.019 A 
HETATM    6  C   UNK     0      -8.229   2.856   5.775  0.00  0.00    -0.043 A 
HETATM    7  C   UNK     0      -6.490   2.366   7.124  0.00  0.00    -0.016 A 
HETATM    8  C   UNK     0      -7.340   3.213   7.846  0.00  0.00    -0.032 A 
HETATM    9  C   UNK     0      -8.519   3.578   7.025  0.00  0.00     0.080 A 
HETATM   10  C   UNK     0      -5.313   1.851   7.692  0.00  0.00     0.042 A 
HETATM   11  C   UNK     0      -4.973   2.191   9.022  0.00  0.00     0.036 A 
HETATM   12  C   UNK     0      -5.839   3.042   9.753  0.00  0.00     0.042 A 
HETATM   13  C   UNK     0      -7.027   3.576   9.183  0.00  0.00    -0.016 A 
ENDROOT
BRANCH  13  14
HETATM   14  C   UNK     0      -7.864   4.435   9.946  0.00  0.00    -0.023 A 
HETATM   15  C   UNK     0      -7.675   5.839   9.933  0.00  0.00     0.029 A 
HETATM   16  C   UNK     0      -8.534   6.666  10.677  0.00  0.00     0.088 A 
HETATM   17  N   UNK     0      -9.527   6.118  11.421  0.00  0.00    -0.375 N 
HETATM   18  C   UNK     0      -9.731   4.777  11.484  0.00  0.00     0.088 A 
HETATM   19  HN  UNK     0     -10.143   6.734  11.952  1.00  0.00     0.164 HD
HETATM   20  C   UNK     0      -8.902   3.905  10.751  0.00  0.00     0.029 A 
ENDBRANCH  13  14
BRANCH  11  21
HETATM   21  N   UNK     0      -3.871   1.687   9.662  0.00  0.00    -0.327 N 
HETATM   22  C   UNK     0      -2.651   2.276   9.842  0.00  0.00     0.223 C 
HETATM   23  O   UNK     0      -2.438   3.481   9.562  0.00  0.00    -0.273 OA
HETATM   24  H   UNK     0      -3.972   0.802  10.048  0.00  0.00     0.169 HD
BRANCH  22  25
HETATM   25  C   UNK     0      -1.537   1.480  10.400  0.00  0.00     0.118 C 
BRANCH  25  26
HETATM   26  C   UNK     0      -1.191   1.926  11.842  0.00  0.00     0.124 C 
HETATM   27 Cl   UNK     0       0.518   1.688  12.190  0.00  0.00    -0.130 Cl
ENDBRANCH  25  26
ENDBRANCH  22  25
ENDBRANCH  11  21
TORSDOF 4
ENDMDL
MODEL 2
REMARK VINA RESULT:      -6.8     17.721     20.663
REMARK  4 active torsions:
REMARK  status: ('A' for Active; 'I' for Inactive)
REMARK    1  A    between atoms: C_11  and  N_14 
REMARK    2  A    between atoms: C_13  and  C_21 
REMARK       I    between atoms: N_14  and  C_15 
REMARK    3  A    between atoms: C_15  and  C_16 
REMARK    4  A    between atoms: C_16  and  C_17 
ROOT
HETATM    1  C   UNK     0      13.674   2.055  -0.506  0.00  0.00     0.008 A 
HETATM    2  C   UNK     0      14.093   2.581  -1.746  0.00  0.00     0.001 A 
HETATM    3  C   UNK     0      13.603   2.040  -2.954  0.00  0.00     0.001 A 
HETATM    4  C   UNK     0      12.699   0.960  -2.936  0.00  0.00     0.013 A 
HETATM    5  C   UNK     0      12.293   0.439  -1.692  0.00  0.00    -0.019 A 
HETATM    6  C   UNK     0      12.767   0.977  -0.493  0.00  0.00    -0.043 A 
HETATM    7  C   UNK     0      11.426  -0.603  -1.380  0.00  0.00    -0.016 A 
HETATM    8  C   UNK     0      11.351  -0.740   0.011  0.00  0.00    -0.032 A 
HETATM    9  C   UNK     0      12.204   0.275   0.673  0.00  0.00     0.080 A 
HETATM   10  C   UNK     0      10.682  -1.429  -2.239  0.00  0.00     0.042 A 
HETATM   11  C   UNK     0       9.836  -2.422  -1.693  0.00  0.00     0.036 A 
HETATM   12  C   UNK     0       9.754  -2.552  -0.284  0.00  0.00     0.042 A 
HETATM   13  C   UNK     0      10.512  -1.728   0.592  0.00  0.00    -0.016 A 
ENDROOT
BRANCH  13  14
HETATM   14  C   UNK     0      10.411  -1.897   2.001  0.00  0.00    -0.023 A 
HETATM   15  C   UNK     0      11.383  -2.636   2.718  0.00  0.00     0.029 A 
HETATM   16  C   UNK     0      11.272  -2.765   4.114  0.00  0.00     0.088 A 
HETATM   17  N   UNK     0      10.225  -2.201   4.766  0.00  0.00    -0.375 N 
HETATM   18  C   UNK     0       9.256  -1.505   4.117  0.00  0.00     0.088 A 
HETATM   19  HN  UNK     0      10.162  -2.303   5.779  1.00  0.00     0.164 HD
HETATM   20  C   UNK     0       9.326  -1.340   2.720  0.00  0.00     0.029 A 
ENDBRANCH  13  14
BRANCH  11  21
HETATM   21  N   UNK     0       9.040  -3.229  -2.463  0.00  0.00    -0.327 N 
HETATM   22  C   UNK     0       9.256  -4.526  -2.837  0.00  0.00     0.223 C 
HETATM   23  O   UNK     0      10.187  -5.217  -2.358  0.00  0.00    -0.273 OA
HETATM   24  H   UNK     0       8.209  -2.834  -2.774  0.00  0.00     0.169 HD
BRANCH  22  25
HETATM   25  C   UNK     0       8.357  -5.153  -3.830  0.00  0.00     0.118 C 
BRANCH  25  26
HETATM   26  C   UNK     0       7.627  -6.382  -3.233  0.00  0.00     0.124 C 
HETATM   27 Cl   UNK     0       5.892  -6.288  -3.509  0.00  0.00    -0.130 Cl
ENDBRANCH  25  26
ENDBRANCH  22  25
ENDBRANCH  11  21
TORSDOF 4
ENDMDL
MODEL 3
REMARK VINA RESULT:      -6.7     18.999     21.774
REMARK  4 active torsions:
REMARK  status: ('A' for Active; 'I' for Inactive)
REMARK    1  A    between atoms: C_11  and  N_14 
REMARK    2  A    between atoms: C_13  and  C_21 
REMARK       I    between atoms: N_14  and  C_15 
REMARK    3  A    between atoms: C_15  and  C_16 
REMARK    4  A    between atoms: C_16  and  C_17 
ROOT
HETATM    1  C   UNK     0      13.266  -6.330   0.305  0.00  0.00     0.008 A 
HETATM    2  C   UNK     0      13.550  -7.694   0.086  0.00  0.00     0.001 A 
HETATM    3  C   UNK     0      12.844  -8.423  -0.895  0.00  0.00     0.001 A 
HETATM    4  C   UNK     0      11.838  -7.798  -1.660  0.00  0.00     0.013 A 
HETATM    5  C   UNK     0      11.560  -6.437  -1.427  0.00  0.00    -0.019 A 
HETATM    6  C   UNK     0      12.263  -5.709  -0.464  0.00  0.00    -0.043 A 
HETATM    7  C   UNK     0      10.639  -5.582  -2.023  0.00  0.00    -0.016 A 
HETATM    8  C   UNK     0      10.744  -4.314  -1.440  0.00  0.00    -0.032 A 
HETATM    9  C   UNK     0      11.802  -4.311  -0.402  0.00  0.00     0.080 A 
HETATM   10  C   UNK     0       9.727  -5.839  -3.060  0.00  0.00     0.042 A 
HETATM   11  C   UNK     0       8.893  -4.797  -3.530  0.00  0.00     0.036 A 
HETATM   12  C   UNK     0       9.007  -3.512  -2.944  0.00  0.00     0.042 A 
HETATM   13  C   UNK     0       9.920  -3.246  -1.886  0.00  0.00    -0.016 A 
ENDROOT
BRANCH  13  14
HETATM   14  C   UNK     0       9.997  -1.945  -1.317  0.00  0.00    -0.023 A 
HETATM   15  C   UNK     0      10.473  -0.846  -2.073  0.00  0.00     0.029 A 
HETATM   16  C   UNK     0      10.514   0.434  -1.493  0.00  0.00     0.088 A 
HETATM   17  N   UNK     0      10.118   0.610  -0.208  0.00  0.00    -0.375 N 
HETATM   18  C   UNK     0       9.678  -0.419   0.562  0.00  0.00     0.088 A 
HETATM   19  HN  UNK     0      10.152   1.546   0.195  1.00  0.00     0.164 HD
HETATM   20  C   UNK     0       9.610  -1.719   0.026  0.00  0.00     0.029 A 
ENDBRANCH  13  14
BRANCH  11  21
HETATM   21  N   UNK     0       8.017  -4.957  -4.572  0.00  0.00    -0.327 N 
HETATM   22  C   UNK     0       6.824  -5.624  -4.582  0.00  0.00     0.223 C 
HETATM   23  O   UNK     0       6.287  -6.058  -3.535  0.00  0.00    -0.273 OA
HETATM   24  H   UNK     0       8.269  -4.531  -5.408  0.00  0.00     0.169 HD
BRANCH  22  25
HETATM   25  C   UNK     0       6.122  -5.834  -5.868  0.00  0.00     0.118 C 
BRANCH  25  26
HETATM   26  C   UNK     0       6.935  -6.755  -6.810  0.00  0.00     0.124 C 
HETATM   27 Cl   UNK     0       7.261  -8.311  -6.054  0.00  0.00    -0.130 Cl
ENDBRANCH  25  26
ENDBRANCH  22  25
ENDBRANCH  11  21
TORSDOF 4
ENDMDL
MODEL 4
REMARK VINA RESULT:      -6.6      1.863      5.131
REMARK  4 active torsions:
REMARK  status: ('A' for Active; 'I' for Inactive)
REMARK    1  A    between atoms: C_11  and  N_14 
REMARK    2  A    between atoms: C_13  and  C_21 
REMARK       I    between atoms: N_14  and  C_15 
REMARK    3  A    between atoms: C_15  and  C_16 
REMARK    4  A    between atoms: C_16  and  C_17 
ROOT
HETATM    1  C   UNK     0      -9.894   6.558   8.855  0.00  0.00     0.008 A 
HETATM    2  C   UNK     0      -9.814   7.235  10.090  0.00  0.00     0.001 A 
HETATM    3  C   UNK     0      -8.799   6.914  11.017  0.00  0.00     0.001 A 
HETATM    4  C   UNK     0      -7.861   5.904  10.725  0.00  0.00     0.013 A 
HETATM    5  C   UNK     0      -7.956   5.231   9.491  0.00  0.00    -0.019 A 
HETATM    6  C   UNK     0      -8.952   5.551   8.566  0.00  0.00    -0.043 A 
HETATM    7  C   UNK     0      -7.180   4.212   8.948  0.00  0.00    -0.016 A 
HETATM    8  C   UNK     0      -7.680   3.874   7.685  0.00  0.00    -0.032 A 
HETATM    9  C   UNK     0      -8.851   4.721   7.354  0.00  0.00     0.080 A 
HETATM   10  C   UNK     0      -6.048   3.574   9.483  0.00  0.00     0.042 A 
HETATM   11  C   UNK     0      -5.395   2.567   8.734  0.00  0.00     0.036 A 
HETATM   12  C   UNK     0      -5.898   2.234   7.451  0.00  0.00     0.042 A 
HETATM   13  C   UNK     0      -7.049   2.866   6.908  0.00  0.00    -0.016 A 
ENDROOT
BRANCH  13  14
HETATM   14  C   UNK     0      -7.530   2.496   5.621  0.00  0.00    -0.023 A 
HETATM   15  C   UNK     0      -8.864   2.771   5.234  0.00  0.00     0.029 A 
HETATM   16  C   UNK     0      -9.305   2.417   3.947  0.00  0.00     0.088 A 
HETATM   17  N   UNK     0      -8.459   1.795   3.088  0.00  0.00    -0.375 N 
HETATM   18  C   UNK     0      -7.179   1.489   3.424  0.00  0.00     0.088 A 
HETATM   19  HN  UNK     0      -8.796   1.548   2.157  1.00  0.00     0.164 HD
HETATM   20  C   UNK     0      -6.687   1.829   4.699  0.00  0.00     0.029 A 
ENDBRANCH  13  14
BRANCH  11  21
HETATM   21  N   UNK     0      -4.256   1.938   9.165  0.00  0.00    -0.327 N 
HETATM   22  C   UNK     0      -3.075   2.499   9.560  0.00  0.00     0.223 C 
HETATM   23  O   UNK     0      -2.942   3.734   9.734  0.00  0.00    -0.273 OA
HETATM   24  H   UNK     0      -4.297   0.968   9.206  0.00  0.00     0.169 HD
BRANCH  22  25
HETATM   25  C   UNK     0      -1.906   1.627   9.811  0.00  0.00     0.118 C 
BRANCH  25  26
HETATM   26  C   UNK     0      -1.565   1.560  11.320  0.00  0.00     0.124 C 
HETATM   27 Cl   UNK     0       0.003   0.807  11.585  0.00  0.00    -0.130 Cl
ENDBRANCH  25  26
ENDBRANCH  22  25
ENDBRANCH  11  21
TORSDOF 4
ENDMDL
MODEL 5
REMARK VINA RESULT:      -6.5      2.565      5.448
REMARK  4 active torsions:
REMARK  status: ('A' for Active; 'I' for Inactive)
REMARK    1  A    between atoms: C_11  and  N_14 
REMARK    2  A    between atoms: C_13  and  C_21 
REMARK       I    between atoms: N_14  and  C_15 
REMARK    3  A    between atoms: C_15  and  C_16 
REMARK    4  A    between atoms: C_16  and  C_17 
ROOT
HETATM    1  C   UNK     0      -6.859   1.549   4.464  0.00  0.00     0.008 A 
HETATM    2  C   UNK     0      -7.933   1.759   3.574  0.00  0.00     0.001 A 
HETATM    3  C   UNK     0      -9.043   2.539   3.965  0.00  0.00     0.001 A 
HETATM    4  C   UNK     0      -9.096   3.107   5.254  0.00  0.00     0.013 A 
HETATM    5  C   UNK     0      -8.019   2.884   6.135  0.00  0.00    -0.019 A 
HETATM    6  C   UNK     0      -6.914   2.121   5.750  0.00  0.00    -0.043 A 
HETATM    7  C   UNK     0      -7.808   3.315   7.441  0.00  0.00    -0.016 A 
HETATM    8  C   UNK     0      -6.578   2.824   7.894  0.00  0.00    -0.032 A 
HETATM    9  C   UNK     0      -5.919   2.029   6.831  0.00  0.00     0.080 A 
HETATM   10  C   UNK     0      -8.617   4.128   8.252  0.00  0.00     0.042 A 
HETATM   11  C   UNK     0      -8.184   4.463   9.557  0.00  0.00     0.036 A 
HETATM   12  C   UNK     0      -6.934   3.971  10.010  0.00  0.00     0.042 A 
HETATM   13  C   UNK     0      -6.115   3.139   9.200  0.00  0.00    -0.016 A 
ENDROOT
BRANCH  13  14
HETATM   14  C   UNK     0      -4.872   2.658   9.695  0.00  0.00    -0.023 A 
HETATM   15  C   UNK     0      -4.822   1.607  10.644  0.00  0.00     0.029 A 
HETATM   16  C   UNK     0      -3.579   1.133  11.097  0.00  0.00     0.088 A 
HETATM   17  N   UNK     0      -2.432   1.696  10.642  0.00  0.00    -0.375 N 
HETATM   18  C   UNK     0      -2.431   2.722   9.751  0.00  0.00     0.088 A 
HETATM   19  HN  UNK     0      -1.539   1.338  10.980  1.00  0.00     0.164 HD
HETATM   20  C   UNK     0      -3.650   3.227   9.261  0.00  0.00     0.029 A 
ENDBRANCH  13  14
BRANCH  11  21
HETATM   21  N   UNK     0      -8.892   5.293  10.387  0.00  0.00    -0.327 N 
HETATM   22  C   UNK     0      -8.743   6.639  10.567  0.00  0.00     0.223 C 
HETATM   23  O   UNK     0      -8.003   7.338   9.834  0.00  0.00    -0.273 OA
HETATM   24  H   UNK     0      -9.598   4.873  10.904  0.00  0.00     0.169 HD
BRANCH  22  25
HETATM   25  C   UNK     0      -9.489   7.311  11.653  0.00  0.00     0.118 C 
BRANCH  25  26
HETATM   26  C   UNK     0      -9.017   6.826  13.046  0.00  0.00     0.124 C 
HETATM   27 Cl   UNK     0      -7.260   6.760  13.136  0.00  0.00    -0.130 Cl
ENDBRANCH  25  26
ENDBRANCH  22  25
ENDBRANCH  11  21
TORSDOF 4
ENDMDL
MODEL 6
REMARK VINA RESULT:      -6.1     19.337     22.252
REMARK  4 active torsions:
REMARK  status: ('A' for Active; 'I' for Inactive)
REMARK    1  A    between atoms: C_11  and  N_14 
REMARK    2  A    between atoms: C_13  and  C_21 
REMARK       I    between atoms: N_14  and  C_15 
REMARK    3  A    between atoms: C_15  and  C_16 
REMARK    4  A    between atoms: C_16  and  C_17 
ROOT
HETATM    1  C   UNK     0      15.058  -2.999  -4.411  0.00  0.00     0.008 A 
HETATM    2  C   UNK     0      15.667  -3.967  -5.238  0.00  0.00     0.001 A 
HETATM    3  C   UNK     0      14.962  -5.131  -5.613  0.00  0.00     0.001 A 
HETATM    4  C   UNK     0      13.647  -5.346  -5.156  0.00  0.00     0.013 A 
HETATM    5  C   UNK     0      13.053  -4.375  -4.325  0.00  0.00    -0.019 A 
HETATM    6  C   UNK     0      13.743  -3.216  -3.959  0.00  0.00    -0.043 A 
HETATM    7  C   UNK     0      11.792  -4.326  -3.739  0.00  0.00    -0.016 A 
HETATM    8  C   UNK     0      11.676  -3.147  -2.994  0.00  0.00    -0.032 A 
HETATM    9  C   UNK     0      12.923  -2.351  -3.093  0.00  0.00     0.080 A 
HETATM   10  C   UNK     0      10.731  -5.241  -3.834  0.00  0.00     0.042 A 
HETATM   11  C   UNK     0       9.514  -4.971  -3.164  0.00  0.00     0.036 A 
HETATM   12  C   UNK     0       9.396  -3.772  -2.418  0.00  0.00     0.042 A 
HETATM   13  C   UNK     0      10.469  -2.846  -2.307  0.00  0.00    -0.016 A 
ENDROOT
BRANCH  13  14
HETATM   14  C   UNK     0      10.315  -1.659  -1.540  0.00  0.00    -0.023 A 
HETATM   15  C   UNK     0      10.576  -0.386  -2.104  0.00  0.00     0.029 A 
HETATM   16  C   UNK     0      10.390   0.772  -1.330  0.00  0.00     0.088 A 
HETATM   17  N   UNK     0       9.981   0.668  -0.040  0.00  0.00    -0.375 N 
HETATM   18  C   UNK     0       9.743  -0.532   0.550  0.00  0.00     0.088 A 
HETATM   19  HN  UNK     0       9.849   1.519   0.505  1.00  0.00     0.164 HD
HETATM   20  C   UNK     0       9.907  -1.722  -0.185  0.00  0.00     0.029 A 
ENDBRANCH  13  14
BRANCH  11  21
HETATM   21  N   UNK     0       8.418  -5.788  -3.252  0.00  0.00    -0.327 N 
HETATM   22  C   UNK     0       7.293  -5.620  -4.010  0.00  0.00     0.223 C 
HETATM   23  O   UNK     0       7.199  -4.724  -4.884  0.00  0.00    -0.273 OA
HETATM   24  H   UNK     0       8.448  -6.598  -2.716  0.00  0.00     0.169 HD
BRANCH  22  25
HETATM   25  C   UNK     0       6.144  -6.530  -3.814  0.00  0.00     0.118 C 
BRANCH  25  26
HETATM   26  C   UNK     0       6.613  -7.984  -3.560  0.00  0.00     0.124 C 
HETATM   27 Cl   UNK     0       6.405  -8.435  -1.872  0.00  0.00    -0.130 Cl
ENDBRANCH  25  26
ENDBRANCH  22  25
ENDBRANCH  11  21
TORSDOF 4
ENDMDL
MODEL 7
REMARK VINA RESULT:      -6.1     17.498     20.053
REMARK  4 active torsions:
REMARK  status: ('A' for Active; 'I' for Inactive)
REMARK    1  A    between atoms: C_11  and  N_14 
REMARK    2  A    between atoms: C_13  and  C_21 
REMARK       I    between atoms: N_14  and  C_15 
REMARK    3  A    between atoms: C_15  and  C_16 
REMARK    4  A    between atoms: C_16  and  C_17 
ROOT
HETATM    1  C   UNK     0       4.365   9.676 -11.227  0.00  0.00     0.008 A 
HETATM    2  C   UNK     0       4.806   9.065 -12.420  0.00  0.00     0.001 A 
HETATM    3  C   UNK     0       4.235   7.850 -12.854  0.00  0.00     0.001 A 
HETATM    4  C   UNK     0       3.225   7.226 -12.094  0.00  0.00     0.013 A 
HETATM    5  C   UNK     0       2.798   7.843 -10.902  0.00  0.00    -0.019 A 
HETATM    6  C   UNK     0       3.353   9.051 -10.473  0.00  0.00    -0.043 A 
HETATM    7  C   UNK     0       1.837   7.459  -9.973  0.00  0.00    -0.016 A 
HETATM    8  C   UNK     0       1.781   8.411  -8.948  0.00  0.00    -0.032 A 
HETATM    9  C   UNK     0       2.750   9.503  -9.208  0.00  0.00     0.080 A 
HETATM   10  C   UNK     0       0.991   6.337  -9.978  0.00  0.00     0.042 A 
HETATM   11  C   UNK     0       0.061   6.160  -8.927  0.00  0.00     0.036 A 
HETATM   12  C   UNK     0       0.001   7.130  -7.895  0.00  0.00     0.042 A 
HETATM   13  C   UNK     0       0.860   8.262  -7.877  0.00  0.00    -0.016 A 
ENDROOT
BRANCH  13  14
HETATM   14  C   UNK     0       0.775   9.208  -6.818  0.00  0.00    -0.023 A 
HETATM   15  C   UNK     0      -0.123  10.300  -6.886  0.00  0.00     0.029 A 
HETATM   16  C   UNK     0      -0.205  11.205  -5.813  0.00  0.00     0.088 A 
HETATM   17  N   UNK     0       0.591  11.043  -4.727  0.00  0.00    -0.375 N 
HETATM   18  C   UNK     0       1.485  10.025  -4.628  0.00  0.00     0.088 A 
HETATM   19  HN  UNK     0       0.516  11.707  -3.957  1.00  0.00     0.164 HD
HETATM   20  C   UNK     0       1.599   9.087  -5.673  0.00  0.00     0.029 A 
ENDBRANCH  13  14
BRANCH  11  21
HETATM   21  N   UNK     0      -0.832   5.120  -8.890  0.00  0.00    -0.327 N 
HETATM   22  C   UNK     0      -0.655   3.868  -8.371  0.00  0.00     0.223 C 
HETATM   23  O   UNK     0       0.351   3.560  -7.688  0.00  0.00    -0.273 OA
HETATM   24  H   UNK     0      -1.708   5.299  -9.270  0.00  0.00     0.169 HD
BRANCH  22  25
HETATM   25  C   UNK     0      -1.687   2.835  -8.603  0.00  0.00     0.118 C 
BRANCH  25  26
HETATM   26  C   UNK     0      -1.405   2.037  -9.899  0.00  0.00     0.124 C 
HETATM   27 Cl   UNK     0      -2.034   2.875 -11.313  0.00  0.00    -0.130 Cl
ENDBRANCH  25  26
ENDBRANCH  22  25
ENDBRANCH  11  21
TORSDOF 4
ENDMDL
MODEL 8
REMARK VINA RESULT:      -6.0     15.361     18.621
REMARK  4 active torsions:
REMARK  status: ('A' for Active; 'I' for Inactive)
REMARK    1  A    between atoms: C_11  and  N_14 
REMARK    2  A    between atoms: C_13  and  C_21 
REMARK       I    between atoms: N_14  and  C_15 
REMARK    3  A    between atoms: C_15  and  C_16 
REMARK    4  A    between atoms: C_16  and  C_17 
ROOT
HETATM    1  C   UNK     0      -3.930  -4.965  -6.186  0.00  0.00     0.008 A 
HETATM    2  C   UNK     0      -4.386  -3.865  -5.429  0.00  0.00     0.001 A 
HETATM    3  C   UNK     0      -4.741  -4.030  -4.073  0.00  0.00     0.001 A 
HETATM    4  C   UNK     0      -4.656  -5.297  -3.463  0.00  0.00     0.013 A 
HETATM    5  C   UNK     0      -4.205  -6.388  -4.232  0.00  0.00    -0.019 A 
HETATM    6  C   UNK     0      -3.843  -6.229  -5.572  0.00  0.00    -0.043 A 
HETATM    7  C   UNK     0      -4.025  -7.726  -3.896  0.00  0.00    -0.016 A 
HETATM    8  C   UNK     0      -3.558  -8.423  -5.017  0.00  0.00    -0.032 A 
HETATM    9  C   UNK     0      -3.403  -7.502  -6.167  0.00  0.00     0.080 A 
HETATM   10  C   UNK     0      -4.226  -8.369  -2.663  0.00  0.00     0.042 A 
HETATM   11  C   UNK     0      -3.951  -9.752  -2.544  0.00  0.00     0.036 A 
HETATM   12  C   UNK     0      -3.469 -10.453  -3.678  0.00  0.00     0.042 A 
HETATM   13  C   UNK     0      -3.274  -9.813  -4.932  0.00  0.00    -0.016 A 
ENDROOT
BRANCH  13  14
HETATM   14  C   UNK     0      -2.799 -10.555  -6.048  0.00  0.00    -0.023 A 
HETATM   15  C   UNK     0      -1.413 -10.657  -6.320  0.00  0.00     0.029 A 
HETATM   16  C   UNK     0      -0.970 -11.418  -7.415  0.00  0.00     0.088 A 
HETATM   17  N   UNK     0      -1.870 -12.035  -8.221  0.00  0.00    -0.375 N 
HETATM   18  C   UNK     0      -3.210 -11.945  -8.014  0.00  0.00     0.088 A 
HETATM   19  HN  UNK     0      -1.530 -12.585  -9.009  1.00  0.00     0.164 HD
HETATM   20  C   UNK     0      -3.704 -11.200  -6.926  0.00  0.00     0.029 A 
ENDBRANCH  13  14
BRANCH  11  21
HETATM   21  N   UNK     0      -4.071 -10.436  -1.363  0.00  0.00    -0.327 N 
HETATM   22  C   UNK     0      -4.885 -10.159  -0.301  0.00  0.00     0.223 C 
HETATM   23  O   UNK     0      -5.784  -9.285  -0.353  0.00  0.00    -0.273 OA
HETATM   24  H   UNK     0      -3.515 -11.228  -1.273  0.00  0.00     0.169 HD
BRANCH  22  25
HETATM   25  C   UNK     0      -4.722 -10.921   0.955  0.00  0.00     0.118 C 
BRANCH  25  26
HETATM   26  C   UNK     0      -5.039 -12.423   0.749  0.00  0.00     0.124 C 
HETATM   27 Cl   UNK     0      -4.357 -13.401   2.044  0.00  0.00    -0.130 Cl
ENDBRANCH  25  26
ENDBRANCH  22  25
ENDBRANCH  11  21
TORSDOF 4
ENDMDL
MODEL 9
REMARK VINA RESULT:      -6.0     16.012     19.617
REMARK  4 active torsions:
REMARK  status: ('A' for Active; 'I' for Inactive)
REMARK    1  A    between atoms: C_11  and  N_14 
REMARK    2  A    between atoms: C_13  and  C_21 
REMARK       I    between atoms: N_14  and  C_15 
REMARK    3  A    between atoms: C_15  and  C_16 
REMARK    4  A    between atoms: C_16  and  C_17 
ROOT
HETATM    1  C   UNK     0      -3.938 -11.627  -2.637  0.00  0.00     0.008 A 
HETATM    2  C   UNK     0      -3.587 -12.982  -2.812  0.00  0.00     0.001 A 
HETATM    3  C   UNK     0      -2.837 -13.387  -3.936  0.00  0.00     0.001 A 
HETATM    4  C   UNK     0      -2.439 -12.443  -4.904  0.00  0.00     0.013 A 
HETATM    5  C   UNK     0      -2.801 -11.094  -4.722  0.00  0.00    -0.019 A 
HETATM    6  C   UNK     0      -3.535 -10.687  -3.605  0.00  0.00    -0.043 A 
HETATM    7  C   UNK     0      -2.548  -9.970  -5.501  0.00  0.00    -0.016 A 
HETATM    8  C   UNK     0      -3.124  -8.849  -4.893  0.00  0.00    -0.032 A 
HETATM    9  C   UNK     0      -3.791  -9.237  -3.628  0.00  0.00     0.080 A 
HETATM   10  C   UNK     0      -1.826  -9.864  -6.702  0.00  0.00     0.042 A 
HETATM   11  C   UNK     0      -1.674  -8.598  -7.315  0.00  0.00     0.036 A 
HETATM   12  C   UNK     0      -2.251  -7.463  -6.692  0.00  0.00     0.042 A 
HETATM   13  C   UNK     0      -2.992  -7.563  -5.483  0.00  0.00    -0.016 A 
ENDROOT
BRANCH  13  14
HETATM   14  C   UNK     0      -3.564  -6.402  -4.896  0.00  0.00    -0.023 A 
HETATM   15  C   UNK     0      -3.561  -6.217  -3.491  0.00  0.00     0.029 A 
HETATM   16  C   UNK     0      -4.110  -5.047  -2.939  0.00  0.00     0.088 A 
HETATM   17  N   UNK     0      -4.661  -4.109  -3.749  0.00  0.00    -0.375 N 
HETATM   18  C   UNK     0      -4.709  -4.254  -5.099  0.00  0.00     0.088 A 
HETATM   19  HN  UNK     0      -5.052  -3.265  -3.331  1.00  0.00     0.164 HD
HETATM   20  C   UNK     0      -4.165  -5.404  -5.702  0.00  0.00     0.029 A 
ENDBRANCH  13  14
BRANCH  11  21
HETATM   21  N   UNK     0      -0.940  -8.406  -8.456  0.00  0.00    -0.327 N 
HETATM   22  C   UNK     0      -1.360  -8.472  -9.755  0.00  0.00     0.223 C 
HETATM   23  O   UNK     0      -2.572  -8.566 -10.066  0.00  0.00    -0.273 OA
HETATM   24  H   UNK     0      -0.004  -8.182  -8.327  0.00  0.00     0.169 HD
BRANCH  22  25
HETATM   25  C   UNK     0      -0.360  -8.416 -10.844  0.00  0.00     0.118 C 
BRANCH  25  26
HETATM   26  C   UNK     0      -0.526  -7.134 -11.697  0.00  0.00     0.124 C 
HETATM   27 Cl   UNK     0      -0.565  -5.696 -10.684  0.00  0.00    -0.130 Cl
ENDBRANCH  25  26
ENDBRANCH  22  25
ENDBRANCH  11  21
TORSDOF 4
ENDMDL
