MODEL 1
REMARK VINA RESULT:      -6.3      0.000      0.000
REMARK  4 active torsions:
REMARK  status: ('A' for Active; 'I' for Inactive)
REMARK    1  A    between atoms: C_11  and  N_19 
REMARK    2  A    between atoms: C_13  and  C_14 
REMARK       I    between atoms: N_19  and  C_21 
REMARK    3  A    between atoms: C_21  and  C_22 
REMARK    4  A    between atoms: C_22  and  C_23 
ROOT
HETATM    1  C   UNK     0      -7.368  -9.079  -3.882  0.00  0.00     0.008 A 
HETATM    2  C   UNK     0      -6.840 -10.049  -4.759  0.00  0.00     0.001 A 
HETATM    3  C   UNK     0      -6.944  -9.878  -6.157  0.00  0.00     0.001 A 
HETATM    4  C   UNK     0      -7.571  -8.734  -6.692  0.00  0.00     0.013 A 
HETATM    5  C   UNK     0      -8.085  -7.768  -5.804  0.00  0.00    -0.019 A 
HETATM    6  C   UNK     0      -7.997  -7.943  -4.423  0.00  0.00    -0.043 A 
HETATM    7  C   UNK     0      -8.714  -6.553  -6.043  0.00  0.00    -0.016 A 
HETATM    8  C   UNK     0      -9.048  -5.958  -4.817  0.00  0.00    -0.031 A 
HETATM    9  C   UNK     0      -8.628  -6.833  -3.699  0.00  0.00     0.080 A 
HETATM   10  C   UNK     0      -8.988  -5.926  -7.268  0.00  0.00     0.042 A 
HETATM   11  C   UNK     0      -9.622  -4.662  -7.269  0.00  0.00     0.036 A 
HETATM   12  C   UNK     0      -9.931  -4.054  -6.028  0.00  0.00     0.043 A 
HETATM   13  C   UNK     0      -9.664  -4.680  -4.779  0.00  0.00    -0.009 A 
ENDROOT
BRANCH  13  14
HETATM   14  C   UNK     0     -10.010  -4.007  -3.569  0.00  0.00     0.015 A 
HETATM   15  C   UNK     0      -9.371  -2.925  -2.938  0.00  0.00     0.020 A 
HETATM   16  C   UNK     0      -9.939  -2.477  -1.734  0.00  0.00     0.008 A 
HETATM   17  C   UNK     0     -11.062  -3.187  -1.311  0.00  0.00     0.050 A 
HETATM   18  S   UNK     0     -11.358  -4.421  -2.517  0.00  0.00    -0.101 SA
ENDBRANCH  13  14
BRANCH  11  19
HETATM   19  N   UNK     0      -9.947  -3.958  -8.397  0.00  0.00    -0.327 N 
HETATM   20  C   UNK     0     -11.116  -3.966  -9.104  0.00  0.00     0.223 C 
HETATM   21  O   UNK     0     -12.114  -4.644  -8.762  0.00  0.00    -0.273 OA
HETATM   22  H   UNK     0      -9.270  -3.341  -8.716  0.00  0.00     0.169 HD
BRANCH  20  23
HETATM   23  C   UNK     0     -11.245  -3.106 -10.299  0.00  0.00     0.118 C 
BRANCH  23  24
HETATM   24  C   UNK     0     -10.690  -1.686 -10.050  0.00  0.00     0.124 C 
HETATM   25 Cl   UNK     0     -10.046  -1.001 -11.540  0.00  0.00    -0.130 Cl
ENDBRANCH  23  24
ENDBRANCH  20  23
ENDBRANCH  11  19
TORSDOF 4
ENDMDL
MODEL 2
REMARK VINA RESULT:      -6.3     12.967     14.414
REMARK  4 active torsions:
REMARK  status: ('A' for Active; 'I' for Inactive)
REMARK    1  A    between atoms: C_11  and  N_19 
REMARK    2  A    between atoms: C_13  and  C_14 
REMARK       I    between atoms: N_19  and  C_21 
REMARK    3  A    between atoms: C_21  and  C_22 
REMARK    4  A    between atoms: C_22  and  C_23 
ROOT
HETATM    1  C   UNK     0       5.304  -7.732 -10.730  0.00  0.00     0.008 A 
HETATM    2  C   UNK     0       5.884  -7.713  -9.445  0.00  0.00     0.001 A 
HETATM    3  C   UNK     0       5.776  -6.565  -8.631  0.00  0.00     0.001 A 
HETATM    4  C   UNK     0       5.081  -5.426  -9.090  0.00  0.00     0.013 A 
HETATM    5  C   UNK     0       4.497  -5.463 -10.372  0.00  0.00    -0.019 A 
HETATM    6  C   UNK     0       4.617  -6.591 -11.184  0.00  0.00    -0.043 A 
HETATM    7  C   UNK     0       3.744  -4.519 -11.058  0.00  0.00    -0.016 A 
HETATM    8  C   UNK     0       3.397  -5.032 -12.317  0.00  0.00    -0.031 A 
HETATM    9  C   UNK     0       3.963  -6.391 -12.482  0.00  0.00     0.080 A 
HETATM   10  C   UNK     0       3.323  -3.248 -10.636  0.00  0.00     0.042 A 
HETATM   11  C   UNK     0       2.531  -2.462 -11.503  0.00  0.00     0.036 A 
HETATM   12  C   UNK     0       2.161  -2.997 -12.761  0.00  0.00     0.043 A 
HETATM   13  C   UNK     0       2.585  -4.279 -13.205  0.00  0.00    -0.009 A 
ENDROOT
BRANCH  13  14
HETATM   14  C   UNK     0       2.177  -4.748 -14.489  0.00  0.00     0.015 A 
HETATM   15  C   UNK     0       2.679  -4.413 -15.759  0.00  0.00     0.020 A 
HETATM   16  C   UNK     0       2.062  -5.032 -16.860  0.00  0.00     0.008 A 
HETATM   17  C   UNK     0       1.010  -5.888 -16.542  0.00  0.00     0.050 A 
HETATM   18  S   UNK     0       0.863  -5.877 -14.797  0.00  0.00    -0.101 SA
ENDBRANCH  13  14
BRANCH  11  19
HETATM   19  N   UNK     0       2.069  -1.207 -11.207  0.00  0.00    -0.327 N 
HETATM   20  C   UNK     0       0.876  -0.843 -10.650  0.00  0.00     0.223 C 
HETATM   21  O   UNK     0       0.012  -1.676 -10.286  0.00  0.00    -0.273 OA
HETATM   22  H   UNK     0       2.688  -0.481 -11.382  0.00  0.00     0.169 HD
BRANCH  20  23
HETATM   23  C   UNK     0       0.595   0.588 -10.411  0.00  0.00     0.118 C 
BRANCH  23  24
HETATM   24  C   UNK     0      -0.717   1.039 -11.090  0.00  0.00     0.124 C 
HETATM   25 Cl   UNK     0      -2.031   1.105  -9.919  0.00  0.00    -0.130 Cl
ENDBRANCH  23  24
ENDBRANCH  20  23
ENDBRANCH  11  19
TORSDOF 4
ENDMDL
MODEL 3
REMARK VINA RESULT:      -6.2     12.377     13.568
REMARK  4 active torsions:
REMARK  status: ('A' for Active; 'I' for Inactive)
REMARK    1  A    between atoms: C_11  and  N_19 
REMARK    2  A    between atoms: C_13  and  C_14 
REMARK       I    between atoms: N_19  and  C_21 
REMARK    3  A    between atoms: C_21  and  C_22 
REMARK    4  A    between atoms: C_22  and  C_23 
ROOT
HETATM    1  C   UNK     0      -2.088  -3.095 -15.891  0.00  0.00     0.008 A 
HETATM    2  C   UNK     0      -1.999  -4.289 -16.636  0.00  0.00     0.001 A 
HETATM    3  C   UNK     0      -1.126  -5.320 -16.227  0.00  0.00     0.001 A 
HETATM    4  C   UNK     0      -0.340  -5.173 -15.065  0.00  0.00     0.013 A 
HETATM    5  C   UNK     0      -0.447  -3.979 -14.325  0.00  0.00    -0.019 A 
HETATM    6  C   UNK     0      -1.297  -2.952 -14.737  0.00  0.00    -0.043 A 
HETATM    7  C   UNK     0       0.171  -3.578 -13.148  0.00  0.00    -0.016 A 
HETATM    8  C   UNK     0      -0.265  -2.287 -12.815  0.00  0.00    -0.031 A 
HETATM    9  C   UNK     0      -1.219  -1.796 -13.836  0.00  0.00     0.080 A 
HETATM   10  C   UNK     0       1.073  -4.285 -12.337  0.00  0.00     0.042 A 
HETATM   11  C   UNK     0       1.559  -3.681 -11.156  0.00  0.00     0.036 A 
HETATM   12  C   UNK     0       1.093  -2.388 -10.811  0.00  0.00     0.043 A 
HETATM   13  C   UNK     0       0.184  -1.657 -11.624  0.00  0.00    -0.009 A 
ENDROOT
BRANCH  13  14
HETATM   14  C   UNK     0      -0.235  -0.356 -11.214  0.00  0.00     0.015 A 
HETATM   15  C   UNK     0       0.514   0.830 -11.116  0.00  0.00     0.020 A 
HETATM   16  C   UNK     0      -0.173   1.969 -10.663  0.00  0.00     0.008 A 
HETATM   17  C   UNK     0      -1.515   1.762 -10.349  0.00  0.00     0.050 A 
HETATM   18  S   UNK     0      -1.852   0.075 -10.672  0.00  0.00    -0.101 SA
ENDBRANCH  13  14
BRANCH  11  19
HETATM   19  N   UNK     0       2.446  -4.266 -10.293  0.00  0.00    -0.327 N 
HETATM   20  C   UNK     0       3.808  -4.169 -10.268  0.00  0.00     0.223 C 
HETATM   21  O   UNK     0       4.454  -3.454 -11.071  0.00  0.00    -0.273 OA
HETATM   22  H   UNK     0       2.051  -4.791  -9.578  0.00  0.00     0.169 HD
BRANCH  20  23
HETATM   23  C   UNK     0       4.566  -4.890  -9.224  0.00  0.00     0.118 C 
BRANCH  23  24
HETATM   24  C   UNK     0       4.644  -6.406  -9.511  0.00  0.00     0.124 C 
HETATM   25 Cl   UNK     0       4.470  -7.330  -8.022  0.00  0.00    -0.130 Cl
ENDBRANCH  23  24
ENDBRANCH  20  23
ENDBRANCH  11  19
TORSDOF 4
ENDMDL
MODEL 4
REMARK VINA RESULT:      -6.1     14.015     16.244
REMARK  4 active torsions:
REMARK  status: ('A' for Active; 'I' for Inactive)
REMARK    1  A    between atoms: C_11  and  N_19 
REMARK    2  A    between atoms: C_13  and  C_14 
REMARK       I    between atoms: N_19  and  C_21 
REMARK    3  A    between atoms: C_21  and  C_22 
REMARK    4  A    between atoms: C_22  and  C_23 
ROOT
HETATM    1  C   UNK     0       0.870  -1.458 -12.883  0.00  0.00     0.008 A 
HETATM    2  C   UNK     0       0.665  -0.460 -11.908  0.00  0.00     0.001 A 
HETATM    3  C   UNK     0       1.286  -0.560 -10.644  0.00  0.00     0.001 A 
HETATM    4  C   UNK     0       2.124  -1.654 -10.344  0.00  0.00     0.013 A 
HETATM    5  C   UNK     0       2.329  -2.638 -11.331  0.00  0.00    -0.019 A 
HETATM    6  C   UNK     0       1.702  -2.549 -12.575  0.00  0.00    -0.043 A 
HETATM    7  C   UNK     0       3.109  -3.786 -11.326  0.00  0.00    -0.016 A 
HETATM    8  C   UNK     0       2.970  -4.445 -12.556  0.00  0.00    -0.031 A 
HETATM    9  C   UNK     0       2.032  -3.698 -13.426  0.00  0.00     0.080 A 
HETATM   10  C   UNK     0       3.954  -4.275 -10.317  0.00  0.00     0.042 A 
HETATM   11  C   UNK     0       4.682  -5.466 -10.544  0.00  0.00     0.036 A 
HETATM   12  C   UNK     0       4.558  -6.110 -11.799  0.00  0.00     0.043 A 
HETATM   13  C   UNK     0       3.702  -5.630 -12.828  0.00  0.00    -0.009 A 
ENDROOT
BRANCH  13  14
HETATM   14  C   UNK     0       3.625  -6.339 -14.065  0.00  0.00     0.015 A 
HETATM   15  C   UNK     0       4.380  -6.165 -15.238  0.00  0.00     0.020 A 
HETATM   16  C   UNK     0       4.068  -7.012 -16.315  0.00  0.00     0.008 A 
HETATM   17  C   UNK     0       3.025  -7.905 -16.080  0.00  0.00     0.050 A 
HETATM   18  S   UNK     0       2.486  -7.627 -14.437  0.00  0.00    -0.101 SA
ENDBRANCH  13  14
BRANCH  11  19
HETATM   19  N   UNK     0       5.528  -6.043  -9.636  0.00  0.00    -0.327 N 
HETATM   20  C   UNK     0       5.224  -6.689  -8.472  0.00  0.00     0.223 C 
HETATM   21  O   UNK     0       4.046  -6.872  -8.083  0.00  0.00    -0.273 OA
HETATM   22  H   UNK     0       6.470  -6.025  -9.871  0.00  0.00     0.169 HD
BRANCH  20  23
HETATM   23  C   UNK     0       6.316  -7.248  -7.648  0.00  0.00     0.118 C 
BRANCH  23  24
HETATM   24  C   UNK     0       7.126  -8.319  -8.413  0.00  0.00     0.124 C 
HETATM   25 Cl   UNK     0       8.710  -7.695  -8.863  0.00  0.00    -0.130 Cl
ENDBRANCH  23  24
ENDBRANCH  20  23
ENDBRANCH  11  19
TORSDOF 4
ENDMDL
MODEL 5
REMARK VINA RESULT:      -6.0     22.095     23.681
REMARK  4 active torsions:
REMARK  status: ('A' for Active; 'I' for Inactive)
REMARK    1  A    between atoms: C_11  and  N_19 
REMARK    2  A    between atoms: C_13  and  C_14 
REMARK       I    between atoms: N_19  and  C_21 
REMARK    3  A    between atoms: C_21  and  C_22 
REMARK    4  A    between atoms: C_22  and  C_23 
ROOT
HETATM    1  C   UNK     0      10.850   7.997  -2.062  0.00  0.00     0.008 A 
HETATM    2  C   UNK     0      11.112   8.705  -0.871  0.00  0.00     0.001 A 
HETATM    3  C   UNK     0      11.225   8.018   0.357  0.00  0.00     0.001 A 
HETATM    4  C   UNK     0      11.085   6.616   0.407  0.00  0.00     0.013 A 
HETATM    5  C   UNK     0      10.835   5.919  -0.792  0.00  0.00    -0.019 A 
HETATM    6  C   UNK     0      10.707   6.599  -2.004  0.00  0.00    -0.043 A 
HETATM    7  C   UNK     0      10.685   4.562  -1.044  0.00  0.00    -0.016 A 
HETATM    8  C   UNK     0      10.440   4.371  -2.412  0.00  0.00    -0.031 A 
HETATM    9  C   UNK     0      10.414   5.677  -3.108  0.00  0.00     0.080 A 
HETATM   10  C   UNK     0      10.775   3.482  -0.151  0.00  0.00     0.042 A 
HETATM   11  C   UNK     0      10.611   2.167  -0.641  0.00  0.00     0.036 A 
HETATM   12  C   UNK     0      10.392   1.979  -2.028  0.00  0.00     0.043 A 
HETATM   13  C   UNK     0      10.293   3.063  -2.943  0.00  0.00    -0.009 A 
ENDROOT
BRANCH  13  14
HETATM   14  C   UNK     0      10.064   2.794  -4.326  0.00  0.00     0.015 A 
HETATM   15  C   UNK     0       8.974   3.160  -5.135  0.00  0.00     0.020 A 
HETATM   16  C   UNK     0       9.019   2.739  -6.474  0.00  0.00     0.008 A 
HETATM   17  C   UNK     0      10.141   1.989  -6.820  0.00  0.00     0.050 A 
HETATM   18  S   UNK     0      11.126   1.866  -5.378  0.00  0.00    -0.101 SA
ENDBRANCH  13  14
BRANCH  11  19
HETATM   19  N   UNK     0      10.669   1.038   0.132  0.00  0.00    -0.327 N 
HETATM   20  C   UNK     0      11.752   0.267   0.443  0.00  0.00     0.223 C 
HETATM   21  O   UNK     0      12.914   0.539   0.056  0.00  0.00    -0.273 OA
HETATM   22  H   UNK     0       9.833   0.771   0.546  0.00  0.00     0.169 HD
BRANCH  20  23
HETATM   23  C   UNK     0      11.575  -0.914   1.314  0.00  0.00     0.118 C 
BRANCH  23  24
HETATM   24  C   UNK     0      12.638  -1.999   1.036  0.00  0.00     0.124 C 
HETATM   25 Cl   UNK     0      12.148  -3.541   1.732  0.00  0.00    -0.130 Cl
ENDBRANCH  23  24
ENDBRANCH  20  23
ENDBRANCH  11  19
TORSDOF 4
ENDMDL
MODEL 6
REMARK VINA RESULT:      -5.9     13.041     14.608
REMARK  4 active torsions:
REMARK  status: ('A' for Active; 'I' for Inactive)
REMARK    1  A    between atoms: C_11  and  N_19 
REMARK    2  A    between atoms: C_13  and  C_14 
REMARK       I    between atoms: N_19  and  C_21 
REMARK    3  A    between atoms: C_21  and  C_22 
REMARK    4  A    between atoms: C_22  and  C_23 
ROOT
HETATM    1  C   UNK     0      -1.109   1.264 -12.745  0.00  0.00     0.008 A 
HETATM    2  C   UNK     0      -0.830   2.294 -11.824  0.00  0.00     0.001 A 
HETATM    3  C   UNK     0      -0.022   2.042 -10.695  0.00  0.00     0.001 A 
HETATM    4  C   UNK     0       0.522   0.758 -10.478  0.00  0.00     0.013 A 
HETATM    5  C   UNK     0       0.244  -0.259 -11.412  0.00  0.00    -0.019 A 
HETATM    6  C   UNK     0      -0.568  -0.015 -12.519  0.00  0.00    -0.043 A 
HETATM    7  C   UNK     0       0.660  -1.583 -11.469  0.00  0.00    -0.016 A 
HETATM    8  C   UNK     0       0.100  -2.194 -12.600  0.00  0.00    -0.031 A 
HETATM    9  C   UNK     0      -0.748  -1.225 -13.332  0.00  0.00     0.080 A 
HETATM   10  C   UNK     0       1.519  -2.277 -10.603  0.00  0.00     0.042 A 
HETATM   11  C   UNK     0       1.827  -3.629 -10.875  0.00  0.00     0.036 A 
HETATM   12  C   UNK     0       1.281  -4.232 -12.035  0.00  0.00     0.043 A 
HETATM   13  C   UNK     0       0.404  -3.544 -12.918  0.00  0.00    -0.009 A 
ENDROOT
BRANCH  13  14
HETATM   14  C   UNK     0      -0.112  -4.221 -14.063  0.00  0.00     0.015 A 
HETATM   15  C   UNK     0      -1.269  -3.944 -14.814  0.00  0.00     0.020 A 
HETATM   16  C   UNK     0      -1.533  -4.801 -15.895  0.00  0.00     0.008 A 
HETATM   17  C   UNK     0      -0.615  -5.835 -16.067  0.00  0.00     0.050 A 
HETATM   18  S   UNK     0       0.592  -5.649 -14.812  0.00  0.00    -0.101 SA
ENDBRANCH  13  14
BRANCH  11  19
HETATM   19  N   UNK     0       2.644  -4.410 -10.102  0.00  0.00    -0.327 N 
HETATM   20  C   UNK     0       4.004  -4.527 -10.139  0.00  0.00     0.223 C 
HETATM   21  O   UNK     0       4.723  -3.861 -10.921  0.00  0.00    -0.273 OA
HETATM   22  H   UNK     0       2.199  -4.922  -9.407  0.00  0.00     0.169 HD
BRANCH  20  23
HETATM   23  C   UNK     0       4.679  -5.436  -9.189  0.00  0.00     0.118 C 
BRANCH  23  24
HETATM   24  C   UNK     0       5.042  -6.787  -9.843  0.00  0.00     0.124 C 
HETATM   25 Cl   UNK     0       5.686  -7.905  -8.644  0.00  0.00    -0.130 Cl
ENDBRANCH  23  24
ENDBRANCH  20  23
ENDBRANCH  11  19
TORSDOF 4
ENDMDL
MODEL 7
REMARK VINA RESULT:      -5.9      2.929      5.376
REMARK  4 active torsions:
REMARK  status: ('A' for Active; 'I' for Inactive)
REMARK    1  A    between atoms: C_11  and  N_19 
REMARK    2  A    between atoms: C_13  and  C_14 
REMARK       I    between atoms: N_19  and  C_21 
REMARK    3  A    between atoms: C_21  and  C_22 
REMARK    4  A    between atoms: C_22  and  C_23 
ROOT
HETATM    1  C   UNK     0      -7.752  -9.533  -8.025  0.00  0.00     0.008 A 
HETATM    2  C   UNK     0      -7.001 -10.373  -7.176  0.00  0.00     0.001 A 
HETATM    3  C   UNK     0      -6.712  -9.974  -5.854  0.00  0.00     0.001 A 
HETATM    4  C   UNK     0      -7.174  -8.735  -5.363  0.00  0.00     0.013 A 
HETATM    5  C   UNK     0      -7.932  -7.911  -6.219  0.00  0.00    -0.019 A 
HETATM    6  C   UNK     0      -8.206  -8.297  -7.531  0.00  0.00    -0.043 A 
HETATM    7  C   UNK     0      -8.531  -6.677  -6.001  0.00  0.00    -0.016 A 
HETATM    8  C   UNK     0      -9.172  -6.261  -7.178  0.00  0.00    -0.031 A 
HETATM    9  C   UNK     0      -8.977  -7.271  -8.244  0.00  0.00     0.080 A 
HETATM   10  C   UNK     0      -8.571  -5.908  -4.828  0.00  0.00     0.042 A 
HETATM   11  C   UNK     0      -9.270  -4.680  -4.831  0.00  0.00     0.036 A 
HETATM   12  C   UNK     0      -9.938  -4.280  -6.014  0.00  0.00     0.043 A 
HETATM   13  C   UNK     0      -9.903  -5.045  -7.212  0.00  0.00    -0.009 A 
ENDROOT
BRANCH  13  14
HETATM   14  C   UNK     0     -10.595  -4.573  -8.367  0.00  0.00     0.015 A 
HETATM   15  C   UNK     0     -11.288  -5.303  -9.349  0.00  0.00     0.020 A 
HETATM   16  C   UNK     0     -11.867  -4.558 -10.391  0.00  0.00     0.008 A 
HETATM   17  C   UNK     0     -11.656  -3.183 -10.321  0.00  0.00     0.050 A 
HETATM   18  S   UNK     0     -10.713  -2.893  -8.875  0.00  0.00    -0.101 SA
ENDBRANCH  13  14
BRANCH  11  19
HETATM   19  N   UNK     0      -9.372  -3.842  -3.753  0.00  0.00    -0.327 N 
HETATM   20  C   UNK     0     -10.399  -3.712  -2.862  0.00  0.00     0.223 C 
HETATM   21  O   UNK     0     -11.434  -4.418  -2.910  0.00  0.00    -0.273 OA
HETATM   22  H   UNK     0      -8.592  -3.293  -3.575  0.00  0.00     0.169 HD
BRANCH  20  23
HETATM   23  C   UNK     0     -10.281  -2.736  -1.758  0.00  0.00     0.118 C 
BRANCH  23  24
HETATM   24  C   UNK     0      -8.862  -2.132  -1.673  0.00  0.00     0.124 C 
HETATM   25 Cl   UNK     0      -8.850  -0.484  -2.294  0.00  0.00    -0.130 Cl
ENDBRANCH  23  24
ENDBRANCH  20  23
ENDBRANCH  11  19
TORSDOF 4
ENDMDL
MODEL 8
REMARK VINA RESULT:      -5.9      3.636      5.926
REMARK  4 active torsions:
REMARK  status: ('A' for Active; 'I' for Inactive)
REMARK    1  A    between atoms: C_11  and  N_19 
REMARK    2  A    between atoms: C_13  and  C_14 
REMARK       I    between atoms: N_19  and  C_21 
REMARK    3  A    between atoms: C_21  and  C_22 
REMARK    4  A    between atoms: C_22  and  C_23 
ROOT
HETATM    1  C   UNK     0      -7.477 -10.241  -8.931  0.00  0.00     0.008 A 
HETATM    2  C   UNK     0      -7.587  -9.462 -10.101  0.00  0.00     0.001 A 
HETATM    3  C   UNK     0      -7.872  -8.082 -10.014  0.00  0.00     0.001 A 
HETATM    4  C   UNK     0      -8.044  -7.465  -8.758  0.00  0.00     0.013 A 
HETATM    5  C   UNK     0      -7.921  -8.253  -7.597  0.00  0.00    -0.019 A 
HETATM    6  C   UNK     0      -7.654  -9.620  -7.681  0.00  0.00    -0.043 A 
HETATM    7  C   UNK     0      -8.007  -7.916  -6.252  0.00  0.00    -0.016 A 
HETATM    8  C   UNK     0      -7.818  -9.068  -5.474  0.00  0.00    -0.031 A 
HETATM    9  C   UNK     0      -7.605 -10.242  -6.352  0.00  0.00     0.080 A 
HETATM   10  C   UNK     0      -8.217  -6.657  -5.669  0.00  0.00     0.042 A 
HETATM   11  C   UNK     0      -8.243  -6.545  -4.260  0.00  0.00     0.036 A 
HETATM   12  C   UNK     0      -8.023  -7.707  -3.481  0.00  0.00     0.043 A 
HETATM   13  C   UNK     0      -7.814  -8.990  -4.057  0.00  0.00    -0.009 A 
ENDROOT
BRANCH  13  14
HETATM   14  C   UNK     0      -7.606 -10.117  -3.206  0.00  0.00     0.015 A 
HETATM   15  C   UNK     0      -6.565 -11.063  -3.221  0.00  0.00     0.020 A 
HETATM   16  C   UNK     0      -6.632 -12.082  -2.257  0.00  0.00     0.008 A 
HETATM   17  C   UNK     0      -7.745 -12.031  -1.419  0.00  0.00     0.050 A 
HETATM   18  S   UNK     0      -8.674 -10.629  -1.906  0.00  0.00    -0.101 SA
ENDBRANCH  13  14
BRANCH  11  19
HETATM   19  N   UNK     0      -8.447  -5.376  -3.578  0.00  0.00    -0.327 N 
HETATM   20  C   UNK     0      -9.616  -4.702  -3.363  0.00  0.00     0.223 C 
HETATM   21  O   UNK     0     -10.726  -5.121  -3.768  0.00  0.00    -0.273 OA
HETATM   22  H   UNK     0      -7.661  -4.994  -3.157  0.00  0.00     0.169 HD
BRANCH  20  23
HETATM   23  C   UNK     0      -9.596  -3.450  -2.579  0.00  0.00     0.118 C 
BRANCH  23  24
HETATM   24  C   UNK     0      -8.574  -2.435  -3.138  0.00  0.00     0.124 C 
HETATM   25 Cl   UNK     0      -8.813  -0.848  -2.413  0.00  0.00    -0.130 Cl
ENDBRANCH  23  24
ENDBRANCH  20  23
ENDBRANCH  11  19
TORSDOF 4
ENDMDL
MODEL 9
REMARK VINA RESULT:      -5.9      4.833      7.606
REMARK  4 active torsions:
REMARK  status: ('A' for Active; 'I' for Inactive)
REMARK    1  A    between atoms: C_11  and  N_19 
REMARK    2  A    between atoms: C_13  and  C_14 
REMARK       I    between atoms: N_19  and  C_21 
REMARK    3  A    between atoms: C_21  and  C_22 
REMARK    4  A    between atoms: C_22  and  C_23 
ROOT
HETATM    1  C   UNK     0      -8.180  -2.441  -3.790  0.00  0.00     0.008 A 
HETATM    2  C   UNK     0      -8.535  -1.488  -2.813  0.00  0.00     0.001 A 
HETATM    3  C   UNK     0      -9.556  -1.770  -1.880  0.00  0.00     0.001 A 
HETATM    4  C   UNK     0     -10.228  -3.010  -1.909  0.00  0.00     0.013 A 
HETATM    5  C   UNK     0      -9.856  -3.957  -2.883  0.00  0.00    -0.019 A 
HETATM    6  C   UNK     0      -8.858  -3.673  -3.816  0.00  0.00    -0.043 A 
HETATM    7  C   UNK     0     -10.314  -5.245  -3.125  0.00  0.00    -0.016 A 
HETATM    8  C   UNK     0      -9.627  -5.781  -4.224  0.00  0.00    -0.031 A 
HETATM    9  C   UNK     0      -8.664  -4.787  -4.752  0.00  0.00     0.080 A 
HETATM   10  C   UNK     0     -11.279  -5.986  -2.424  0.00  0.00     0.042 A 
HETATM   11  C   UNK     0     -11.571  -7.305  -2.838  0.00  0.00     0.036 A 
HETATM   12  C   UNK     0     -10.853  -7.850  -3.931  0.00  0.00     0.043 A 
HETATM   13  C   UNK     0      -9.877  -7.111  -4.654  0.00  0.00    -0.009 A 
ENDROOT
BRANCH  13  14
HETATM   14  C   UNK     0      -9.199  -7.726  -5.749  0.00  0.00     0.015 A 
HETATM   15  C   UNK     0      -8.188  -8.703  -5.734  0.00  0.00     0.020 A 
HETATM   16  C   UNK     0      -7.696  -9.114  -6.984  0.00  0.00     0.008 A 
HETATM   17  C   UNK     0      -8.269  -8.477  -8.082  0.00  0.00     0.050 A 
HETATM   18  S   UNK     0      -9.458  -7.358  -7.450  0.00  0.00    -0.101 SA
ENDBRANCH  13  14
BRANCH  11  19
HETATM   19  N   UNK     0     -12.495  -8.120  -2.241  0.00  0.00    -0.327 N 
HETATM   20  C   UNK     0     -13.848  -8.160  -2.426  0.00  0.00     0.223 C 
HETATM   21  O   UNK     0     -14.444  -7.423  -3.247  0.00  0.00    -0.273 OA
HETATM   22  H   UNK     0     -12.136  -8.785  -1.632  0.00  0.00     0.169 HD
BRANCH  20  23
HETATM   23  C   UNK     0     -14.653  -9.142  -1.670  0.00  0.00     0.118 C 
BRANCH  23  24
HETATM   24  C   UNK     0     -15.781  -8.462  -0.862  0.00  0.00     0.124 C 
HETATM   25 Cl   UNK     0     -15.834  -9.093   0.782  0.00  0.00    -0.130 Cl
ENDBRANCH  23  24
ENDBRANCH  20  23
ENDBRANCH  11  19
TORSDOF 4
ENDMDL
