MODEL 1
REMARK VINA RESULT:      -6.5      0.000      0.000
REMARK  2 active torsions:
REMARK  status: ('A' for Active; 'I' for Inactive)
REMARK    1  A    between atoms: C_10  and  C_17 
REMARK    2  A    between atoms: C_12  and  N_14 
ROOT
HETATM    1  C   UNK     0       8.946   4.000  -4.607  0.00  0.00     0.013 A 
HETATM    2  C   UNK     0       8.724   3.578  -5.935  0.00  0.00     0.001 A 
HETATM    3  C   UNK     0       9.234   2.341  -6.388  0.00  0.00     0.001 A 
HETATM    4  C   UNK     0       9.978   1.514  -5.522  0.00  0.00     0.008 A 
HETATM    5  C   UNK     0      10.196   1.943  -4.198  0.00  0.00    -0.043 A 
HETATM    6  C   UNK     0       9.688   3.167  -3.749  0.00  0.00    -0.019 A 
HETATM    7  C   UNK     0      10.931   1.245  -3.136  0.00  0.00     0.080 A 
HETATM    8  C   UNK     0      10.782   2.197  -2.012  0.00  0.00    -0.032 A 
HETATM    9  C   UNK     0      10.062   3.330  -2.416  0.00  0.00    -0.016 A 
HETATM   10  C   UNK     0      11.290   2.091  -0.693  0.00  0.00    -0.016 A 
HETATM   11  C   UNK     0      11.087   3.188   0.183  0.00  0.00     0.042 A 
HETATM   12  C   UNK     0      10.390   4.344  -0.238  0.00  0.00     0.027 A 
HETATM   13  C   UNK     0       9.852   4.411  -1.540  0.00  0.00     0.042 A 
ENDROOT
BRANCH  10  14
HETATM   14  C   UNK     0      12.016   0.947  -0.259  0.00  0.00    -0.023 A 
HETATM   15  C   UNK     0      13.299   0.673  -0.781  0.00  0.00     0.029 A 
HETATM   16  C   UNK     0      13.987  -0.487  -0.377  0.00  0.00     0.090 A 
HETATM   17  N   UNK     0      13.434  -1.362   0.520  0.00  0.00    -0.371 N 
HETATM   18  C   UNK     0      12.198  -1.104   1.052  0.00  0.00     0.090 A 
HETATM   19  C   UNK     0      14.165  -2.536   0.927  0.00  0.00     0.154 C 
HETATM   20  C   UNK     0      11.477   0.048   0.687  0.00  0.00     0.029 A 
ENDBRANCH  10  14
BRANCH  12  21
HETATM   21  N   UNK     0      10.255   5.394   0.598  0.00  0.00    -0.399 N 
HETATM   22  H   UNK     0       9.389   5.600   0.986  0.00  0.00     0.156 HD
HETATM   23  H   UNK     0      11.024   5.942   0.820  0.00  0.00     0.156 HD
ENDBRANCH  12  21
TORSDOF 2
ENDMDL
MODEL 2
REMARK VINA RESULT:      -6.4     12.938     15.441
REMARK  2 active torsions:
REMARK  status: ('A' for Active; 'I' for Inactive)
REMARK    1  A    between atoms: C_10  and  C_17 
REMARK    2  A    between atoms: C_12  and  N_14 
ROOT
HETATM    1  C   UNK     0       4.797  -5.118 -11.942  0.00  0.00     0.013 A 
HETATM    2  C   UNK     0       5.375  -5.802 -10.851  0.00  0.00     0.001 A 
HETATM    3  C   UNK     0       4.959  -5.525  -9.530  0.00  0.00     0.001 A 
HETATM    4  C   UNK     0       3.965  -4.555  -9.282  0.00  0.00     0.008 A 
HETATM    5  C   UNK     0       3.394  -3.876 -10.376  0.00  0.00    -0.043 A 
HETATM    6  C   UNK     0       3.804  -4.153 -11.685  0.00  0.00    -0.019 A 
HETATM    7  C   UNK     0       2.352  -2.843 -10.349  0.00  0.00     0.080 A 
HETATM    8  C   UNK     0       2.193  -2.559 -11.792  0.00  0.00    -0.032 A 
HETATM    9  C   UNK     0       3.082  -3.334 -12.550  0.00  0.00    -0.016 A 
HETATM   10  C   UNK     0       1.325  -1.628 -12.418  0.00  0.00    -0.016 A 
HETATM   11  C   UNK     0       1.425  -1.474 -13.825  0.00  0.00     0.042 A 
HETATM   12  C   UNK     0       2.346  -2.233 -14.582  0.00  0.00     0.027 A 
HETATM   13  C   UNK     0       3.169  -3.188 -13.947  0.00  0.00     0.042 A 
ENDROOT
BRANCH  10  14
HETATM   14  C   UNK     0       0.410  -0.837 -11.670  0.00  0.00    -0.023 A 
HETATM   15  C   UNK     0      -0.919  -1.271 -11.474  0.00  0.00     0.029 A 
HETATM   16  C   UNK     0      -1.827  -0.457 -10.771  0.00  0.00     0.090 A 
HETATM   17  N   UNK     0      -1.444   0.757 -10.266  0.00  0.00    -0.371 N 
HETATM   18  C   UNK     0      -0.154   1.188 -10.429  0.00  0.00     0.090 A 
HETATM   19  C   UNK     0      -2.390   1.566  -9.538  0.00  0.00     0.154 C 
HETATM   20  C   UNK     0       0.792   0.405 -11.115  0.00  0.00     0.029 A 
ENDBRANCH  10  14
BRANCH  12  21
HETATM   21  N   UNK     0       2.457  -2.032 -15.911  0.00  0.00    -0.399 N 
HETATM   22  H   UNK     0       2.397  -2.784 -16.524  0.00  0.00     0.156 HD
HETATM   23  H   UNK     0       2.590  -1.137 -16.259  0.00  0.00     0.156 HD
ENDBRANCH  12  21
TORSDOF 2
ENDMDL
MODEL 3
REMARK VINA RESULT:      -6.3     12.948     14.935
REMARK  2 active torsions:
REMARK  status: ('A' for Active; 'I' for Inactive)
REMARK    1  A    between atoms: C_10  and  C_17 
REMARK    2  A    between atoms: C_12  and  N_14 
ROOT
HETATM    1  C   UNK     0       6.609  -7.413 -10.302  0.00  0.00     0.013 A 
HETATM    2  C   UNK     0       6.656  -8.162  -9.107  0.00  0.00     0.001 A 
HETATM    3  C   UNK     0       5.706  -7.941  -8.086  0.00  0.00     0.001 A 
HETATM    4  C   UNK     0       4.701  -6.964  -8.244  0.00  0.00     0.008 A 
HETATM    5  C   UNK     0       4.661  -6.220  -9.440  0.00  0.00    -0.043 A 
HETATM    6  C   UNK     0       5.601  -6.442 -10.452  0.00  0.00    -0.019 A 
HETATM    7  C   UNK     0       3.709  -5.168  -9.813  0.00  0.00     0.080 A 
HETATM    8  C   UNK     0       4.193  -4.811 -11.165  0.00  0.00    -0.032 A 
HETATM    9  C   UNK     0       5.325  -5.566 -11.500  0.00  0.00    -0.016 A 
HETATM   10  C   UNK     0       3.682  -3.832 -12.055  0.00  0.00    -0.016 A 
HETATM   11  C   UNK     0       4.384  -3.612 -13.269  0.00  0.00     0.042 A 
HETATM   12  C   UNK     0       5.545  -4.352 -13.588  0.00  0.00     0.027 A 
HETATM   13  C   UNK     0       6.011  -5.354 -12.710  0.00  0.00     0.042 A 
ENDROOT
BRANCH  10  14
HETATM   14  C   UNK     0       2.531  -3.060 -11.739  0.00  0.00    -0.023 A 
HETATM   15  C   UNK     0       1.295  -3.325 -12.369  0.00  0.00     0.029 A 
HETATM   16  C   UNK     0       0.174  -2.523 -12.080  0.00  0.00     0.090 A 
HETATM   17  N   UNK     0       0.258  -1.484 -11.192  0.00  0.00    -0.371 N 
HETATM   18  C   UNK     0       1.442  -1.223 -10.556  0.00  0.00     0.090 A 
HETATM   19  C   UNK     0      -0.909  -0.686 -10.904  0.00  0.00     0.154 C 
HETATM   20  C   UNK     0       2.587  -2.003 -10.804  0.00  0.00     0.029 A 
ENDBRANCH  10  14
BRANCH  12  21
HETATM   21  N   UNK     0       6.223  -4.089 -14.724  0.00  0.00    -0.399 N 
HETATM   22  H   UNK     0       6.420  -3.171 -14.972  0.00  0.00     0.156 HD
HETATM   23  H   UNK     0       6.522  -4.816 -15.293  0.00  0.00     0.156 HD
ENDBRANCH  12  21
TORSDOF 2
ENDMDL
MODEL 4
REMARK VINA RESULT:      -6.2     21.294     22.555
REMARK  2 active torsions:
REMARK  status: ('A' for Active; 'I' for Inactive)
REMARK    1  A    between atoms: C_10  and  C_17 
REMARK    2  A    between atoms: C_12  and  N_14 
ROOT
HETATM    1  C   UNK     0      -9.741  -3.021  -3.642  0.00  0.00     0.013 A 
HETATM    2  C   UNK     0     -10.533  -2.414  -2.645  0.00  0.00     0.001 A 
HETATM    3  C   UNK     0     -11.187  -3.201  -1.671  0.00  0.00     0.001 A 
HETATM    4  C   UNK     0     -11.062  -4.606  -1.687  0.00  0.00     0.008 A 
HETATM    5  C   UNK     0     -10.271  -5.204  -2.687  0.00  0.00    -0.043 A 
HETATM    6  C   UNK     0      -9.621  -4.423  -3.649  0.00  0.00    -0.019 A 
HETATM    7  C   UNK     0     -10.002  -6.633  -2.887  0.00  0.00     0.080 A 
HETATM    8  C   UNK     0      -9.111  -6.595  -4.067  0.00  0.00    -0.032 A 
HETATM    9  C   UNK     0      -8.926  -5.276  -4.505  0.00  0.00    -0.016 A 
HETATM   10  C   UNK     0      -8.513  -7.680  -4.757  0.00  0.00    -0.016 A 
HETATM   11  C   UNK     0      -7.766  -7.388  -5.928  0.00  0.00     0.042 A 
HETATM   12  C   UNK     0      -7.609  -6.059  -6.385  0.00  0.00     0.027 A 
HETATM   13  C   UNK     0      -8.174  -4.989  -5.659  0.00  0.00     0.042 A 
ENDROOT
BRANCH  10  14
HETATM   14  C   UNK     0      -8.681  -9.025  -4.327  0.00  0.00    -0.023 A 
HETATM   15  C   UNK     0      -7.693  -9.654  -3.537  0.00  0.00     0.029 A 
HETATM   16  C   UNK     0      -7.851 -11.000  -3.157  0.00  0.00     0.090 A 
HETATM   17  N   UNK     0      -8.953 -11.718  -3.538  0.00  0.00    -0.371 N 
HETATM   18  C   UNK     0      -9.931 -11.121  -4.288  0.00  0.00     0.090 A 
HETATM   19  C   UNK     0      -9.097 -13.092  -3.124  0.00  0.00     0.154 C 
HETATM   20  C   UNK     0      -9.823  -9.775  -4.683  0.00  0.00     0.029 A 
ENDBRANCH  10  14
BRANCH  12  21
HETATM   21  N   UNK     0      -6.937  -5.812  -7.528  0.00  0.00    -0.399 N 
HETATM   22  H   UNK     0      -6.018  -5.500  -7.495  0.00  0.00     0.156 HD
HETATM   23  H   UNK     0      -7.368  -5.952  -8.386  0.00  0.00     0.156 HD
ENDBRANCH  12  21
TORSDOF 2
ENDMDL
MODEL 5
REMARK VINA RESULT:      -6.2     13.340     16.538
REMARK  2 active torsions:
REMARK  status: ('A' for Active; 'I' for Inactive)
REMARK    1  A    between atoms: C_10  and  C_17 
REMARK    2  A    between atoms: C_12  and  N_14 
ROOT
HETATM    1  C   UNK     0       1.962  -4.312 -12.207  0.00  0.00     0.013 A 
HETATM    2  C   UNK     0       3.070  -4.688 -11.418  0.00  0.00     0.001 A 
HETATM    3  C   UNK     0       3.461  -3.901 -10.312  0.00  0.00     0.001 A 
HETATM    4  C   UNK     0       2.754  -2.725  -9.986  0.00  0.00     0.008 A 
HETATM    5  C   UNK     0       1.650  -2.357 -10.779  0.00  0.00    -0.043 A 
HETATM    6  C   UNK     0       1.261  -3.138 -11.873  0.00  0.00    -0.019 A 
HETATM    7  C   UNK     0       0.777  -1.187 -10.619  0.00  0.00     0.080 A 
HETATM    8  C   UNK     0      -0.173  -1.384 -11.736  0.00  0.00    -0.032 A 
HETATM    9  C   UNK     0       0.157  -2.533 -12.469  0.00  0.00    -0.016 A 
HETATM   10  C   UNK     0      -1.265  -0.566 -12.120  0.00  0.00    -0.016 A 
HETATM   11  C   UNK     0      -1.978  -0.922 -13.294  0.00  0.00     0.042 A 
HETATM   12  C   UNK     0      -1.621  -2.063 -14.050  0.00  0.00     0.027 A 
HETATM   13  C   UNK     0      -0.560  -2.890 -13.626  0.00  0.00     0.042 A 
ENDROOT
BRANCH  10  14
HETATM   14  C   UNK     0      -1.622   0.600 -11.387  0.00  0.00    -0.023 A 
HETATM   15  C   UNK     0      -2.535   0.519 -10.313  0.00  0.00     0.029 A 
HETATM   16  C   UNK     0      -2.914   1.688  -9.625  0.00  0.00     0.090 A 
HETATM   17  N   UNK     0      -2.410   2.911  -9.978  0.00  0.00    -0.371 N 
HETATM   18  C   UNK     0      -1.508   3.008 -11.005  0.00  0.00     0.090 A 
HETATM   19  C   UNK     0      -2.804   4.091  -9.249  0.00  0.00     0.154 C 
HETATM   20  C   UNK     0      -1.091   1.867 -11.715  0.00  0.00     0.029 A 
ENDBRANCH  10  14
BRANCH  12  21
HETATM   21  N   UNK     0      -2.282  -2.351 -15.190  0.00  0.00    -0.399 N 
HETATM   22  H   UNK     0      -1.850  -2.878 -15.883  0.00  0.00     0.156 HD
HETATM   23  H   UNK     0      -3.192  -2.041 -15.318  0.00  0.00     0.156 HD
ENDBRANCH  12  21
TORSDOF 2
ENDMDL
MODEL 6
REMARK VINA RESULT:      -6.2     21.406     22.976
REMARK  2 active torsions:
REMARK  status: ('A' for Active; 'I' for Inactive)
REMARK    1  A    between atoms: C_10  and  C_17 
REMARK    2  A    between atoms: C_12  and  N_14 
ROOT
HETATM    1  C   UNK     0     -10.449  -3.343  -1.807  0.00  0.00     0.013 A 
HETATM    2  C   UNK     0      -9.786  -2.100  -1.737  0.00  0.00     0.001 A 
HETATM    3  C   UNK     0      -8.767  -1.779  -2.661  0.00  0.00     0.001 A 
HETATM    4  C   UNK     0      -8.393  -2.700  -3.662  0.00  0.00     0.008 A 
HETATM    5  C   UNK     0      -9.060  -3.940  -3.724  0.00  0.00    -0.043 A 
HETATM    6  C   UNK     0     -10.072  -4.255  -2.811  0.00  0.00    -0.019 A 
HETATM    7  C   UNK     0      -8.838  -5.033  -4.677  0.00  0.00     0.080 A 
HETATM    8  C   UNK     0      -9.845  -6.018  -4.223  0.00  0.00    -0.032 A 
HETATM    9  C   UNK     0     -10.539  -5.535  -3.104  0.00  0.00    -0.016 A 
HETATM   10  C   UNK     0     -10.118  -7.307  -4.747  0.00  0.00    -0.016 A 
HETATM   11  C   UNK     0     -11.079  -8.104  -4.073  0.00  0.00     0.042 A 
HETATM   12  C   UNK     0     -11.753  -7.627  -2.926  0.00  0.00     0.027 A 
HETATM   13  C   UNK     0     -11.500  -6.324  -2.446  0.00  0.00     0.042 A 
ENDROOT
BRANCH  10  14
HETATM   14  C   UNK     0      -9.432  -7.814  -5.885  0.00  0.00    -0.023 A 
HETATM   15  C   UNK     0      -9.815  -7.422  -7.186  0.00  0.00     0.029 A 
HETATM   16  C   UNK     0      -9.156  -7.967  -8.305  0.00  0.00     0.090 A 
HETATM   17  N   UNK     0      -8.142  -8.875  -8.156  0.00  0.00    -0.371 N 
HETATM   18  C   UNK     0      -7.743  -9.253  -6.901  0.00  0.00     0.090 A 
HETATM   19  C   UNK     0      -7.475  -9.408  -9.318  0.00  0.00     0.154 C 
HETATM   20  C   UNK     0      -8.363  -8.728  -5.753  0.00  0.00     0.029 A 
ENDBRANCH  10  14
BRANCH  12  21
HETATM   21  N   UNK     0     -12.624  -8.423  -2.273  0.00  0.00    -0.399 N 
HETATM   22  H   UNK     0     -12.413  -8.751  -1.383  0.00  0.00     0.156 HD
HETATM   23  H   UNK     0     -13.468  -8.665  -2.687  0.00  0.00     0.156 HD
ENDBRANCH  12  21
TORSDOF 2
ENDMDL
MODEL 7
REMARK VINA RESULT:      -6.1     20.354     22.273
REMARK  2 active torsions:
REMARK  status: ('A' for Active; 'I' for Inactive)
REMARK    1  A    between atoms: C_10  and  C_17 
REMARK    2  A    between atoms: C_12  and  N_14 
ROOT
HETATM    1  C   UNK     0      -7.896  -9.664  -7.481  0.00  0.00     0.013 A 
HETATM    2  C   UNK     0      -7.112 -10.689  -6.910  0.00  0.00     0.001 A 
HETATM    3  C   UNK     0      -6.527 -10.518  -5.636  0.00  0.00     0.001 A 
HETATM    4  C   UNK     0      -6.713  -9.317  -4.920  0.00  0.00     0.008 A 
HETATM    5  C   UNK     0      -7.496  -8.299  -5.498  0.00  0.00    -0.043 A 
HETATM    6  C   UNK     0      -8.077  -8.470  -6.758  0.00  0.00    -0.019 A 
HETATM    7  C   UNK     0      -7.820  -6.984  -4.932  0.00  0.00     0.080 A 
HETATM    8  C   UNK     0      -8.668  -6.413  -6.002  0.00  0.00    -0.032 A 
HETATM    9  C   UNK     0      -8.779  -7.309  -7.075  0.00  0.00    -0.016 A 
HETATM   10  C   UNK     0      -9.290  -5.140  -6.051  0.00  0.00    -0.016 A 
HETATM   11  C   UNK     0      -9.983  -4.788  -7.238  0.00  0.00     0.042 A 
HETATM   12  C   UNK     0     -10.065  -5.681  -8.331  0.00  0.00     0.027 A 
HETATM   13  C   UNK     0      -9.479  -6.961  -8.245  0.00  0.00     0.042 A 
ENDROOT
BRANCH  10  14
HETATM   14  C   UNK     0      -9.196  -4.219  -4.971  0.00  0.00    -0.023 A 
HETATM   15  C   UNK     0      -8.197  -3.221  -4.965  0.00  0.00     0.029 A 
HETATM   16  C   UNK     0      -8.087  -2.345  -3.869  0.00  0.00     0.090 A 
HETATM   17  N   UNK     0      -8.937  -2.440  -2.800  0.00  0.00    -0.371 N 
HETATM   18  C   UNK     0      -9.925  -3.389  -2.795  0.00  0.00     0.090 A 
HETATM   19  C   UNK     0      -8.812  -1.522  -1.694  0.00  0.00     0.154 C 
HETATM   20  C   UNK     0     -10.081  -4.279  -3.872  0.00  0.00     0.029 A 
ENDBRANCH  10  14
BRANCH  12  21
HETATM   21  N   UNK     0     -10.686  -5.303  -9.467  0.00  0.00    -0.399 N 
HETATM   22  H   UNK     0     -10.246  -5.420 -10.325  0.00  0.00     0.156 HD
HETATM   23  H   UNK     0     -11.577  -4.921  -9.432  0.00  0.00     0.156 HD
ENDBRANCH  12  21
TORSDOF 2
ENDMDL
MODEL 8
REMARK VINA RESULT:      -6.1     12.627     14.621
REMARK  2 active torsions:
REMARK  status: ('A' for Active; 'I' for Inactive)
REMARK    1  A    between atoms: C_10  and  C_17 
REMARK    2  A    between atoms: C_12  and  N_14 
ROOT
HETATM    1  C   UNK     0       7.710  -7.547 -12.445  0.00  0.00     0.013 A 
HETATM    2  C   UNK     0       8.352  -7.496 -13.701  0.00  0.00     0.001 A 
HETATM    3  C   UNK     0       7.927  -6.576 -14.685  0.00  0.00     0.001 A 
HETATM    4  C   UNK     0       6.851  -5.701 -14.429  0.00  0.00     0.008 A 
HETATM    5  C   UNK     0       6.216  -5.759 -13.173  0.00  0.00    -0.043 A 
HETATM    6  C   UNK     0       6.639  -6.669 -12.198  0.00  0.00    -0.019 A 
HETATM    7  C   UNK     0       5.090  -4.946 -12.696  0.00  0.00     0.080 A 
HETATM    8  C   UNK     0       4.915  -5.477 -11.326  0.00  0.00    -0.032 A 
HETATM    9  C   UNK     0       5.831  -6.508 -11.074  0.00  0.00    -0.016 A 
HETATM   10  C   UNK     0       3.962  -5.096 -10.347  0.00  0.00    -0.016 A 
HETATM   11  C   UNK     0       3.938  -5.824  -9.130  0.00  0.00     0.042 A 
HETATM   12  C   UNK     0       4.840  -6.886  -8.892  0.00  0.00     0.027 A 
HETATM   13  C   UNK     0       5.811  -7.220  -9.860  0.00  0.00     0.042 A 
ENDROOT
BRANCH  10  14
HETATM   14  C   UNK     0       3.029  -4.048 -10.578  0.00  0.00    -0.023 A 
HETATM   15  C   UNK     0       3.379  -2.705 -10.313  0.00  0.00     0.029 A 
HETATM   16  C   UNK     0       2.430  -1.683 -10.504  0.00  0.00     0.090 A 
HETATM   17  N   UNK     0       1.165  -1.965 -10.946  0.00  0.00    -0.371 N 
HETATM   18  C   UNK     0       0.812  -3.258 -11.227  0.00  0.00     0.090 A 
HETATM   19  C   UNK     0       0.216  -0.897 -11.145  0.00  0.00     0.154 C 
HETATM   20  C   UNK     0       1.729  -4.313 -11.063  0.00  0.00     0.029 A 
ENDBRANCH  10  14
BRANCH  12  21
HETATM   21  N   UNK     0       4.763  -7.596  -7.748  0.00  0.00    -0.399 N 
HETATM   22  H   UNK     0       3.932  -7.621  -7.245  0.00  0.00     0.156 HD
HETATM   23  H   UNK     0       5.534  -8.090  -7.428  0.00  0.00     0.156 HD
ENDBRANCH  12  21
TORSDOF 2
ENDMDL
MODEL 9
REMARK VINA RESULT:      -6.0     13.220     14.998
REMARK  2 active torsions:
REMARK  status: ('A' for Active; 'I' for Inactive)
REMARK    1  A    between atoms: C_10  and  C_17 
REMARK    2  A    between atoms: C_12  and  N_14 
ROOT
HETATM    1  C   UNK     0      -0.686   3.821 -13.591  0.00  0.00     0.013 A 
HETATM    2  C   UNK     0       0.061   4.506 -14.573  0.00  0.00     0.001 A 
HETATM    3  C   UNK     0       1.269   3.963 -15.061  0.00  0.00     0.001 A 
HETATM    4  C   UNK     0       1.750   2.731 -14.570  0.00  0.00     0.008 A 
HETATM    5  C   UNK     0       0.999   2.054 -13.589  0.00  0.00    -0.043 A 
HETATM    6  C   UNK     0      -0.199   2.591 -13.108  0.00  0.00    -0.019 A 
HETATM    7  C   UNK     0       1.308   0.771 -12.948  0.00  0.00     0.080 A 
HETATM    8  C   UNK     0       0.144   0.615 -12.047  0.00  0.00    -0.032 A 
HETATM    9  C   UNK     0      -0.713   1.719 -12.150  0.00  0.00    -0.016 A 
HETATM   10  C   UNK     0      -0.135  -0.440 -11.141  0.00  0.00    -0.016 A 
HETATM   11  C   UNK     0      -1.280  -0.314 -10.312  0.00  0.00     0.042 A 
HETATM   12  C   UNK     0      -2.124   0.817 -10.396  0.00  0.00     0.027 A 
HETATM   13  C   UNK     0      -1.855   1.834 -11.336  0.00  0.00     0.042 A 
ENDROOT
BRANCH  10  14
HETATM   14  C   UNK     0       0.716  -1.573 -11.025  0.00  0.00    -0.023 A 
HETATM   15  C   UNK     0       0.351  -2.807 -11.606  0.00  0.00     0.029 A 
HETATM   16  C   UNK     0       1.182  -3.932 -11.444  0.00  0.00     0.090 A 
HETATM   17  N   UNK     0       2.348  -3.853 -10.731  0.00  0.00    -0.371 N 
HETATM   18  C   UNK     0       2.730  -2.661 -10.175  0.00  0.00     0.090 A 
HETATM   19  C   UNK     0       3.187  -5.018 -10.591  0.00  0.00     0.154 C 
HETATM   20  C   UNK     0       1.938  -1.507 -10.319  0.00  0.00     0.029 A 
ENDBRANCH  10  14
BRANCH  12  21
HETATM   21  N   UNK     0      -3.178   0.938  -9.563  0.00  0.00    -0.399 N 
HETATM   22  H   UNK     0      -3.163   1.598  -8.850  0.00  0.00     0.156 HD
HETATM   23  H   UNK     0      -3.957   0.371  -9.677  0.00  0.00     0.156 HD
ENDBRANCH  12  21
TORSDOF 2
ENDMDL
