MODEL 1
REMARK VINA RESULT:      -6.7      0.000      0.000
REMARK  4 active torsions:
REMARK  status: ('A' for Active; 'I' for Inactive)
REMARK    1  A    between atoms: C_11  and  N_14 
REMARK    2  A    between atoms: C_13  and  C_21 
REMARK       I    between atoms: N_14  and  C_15 
REMARK    3  A    between atoms: C_15  and  C_16 
REMARK    4  A    between atoms: C_16  and  C_17 
ROOT
HETATM    1  C   UNK     0      -7.336  -9.083  -4.203  0.00  0.00     0.016 A 
HETATM    2  C   UNK     0      -6.890 -10.065  -5.113  0.00  0.00     0.001 A 
HETATM    3  C   UNK     0      -7.070  -9.887  -6.504  0.00  0.00     0.001 A 
HETATM    4  C   UNK     0      -7.689  -8.722  -7.004  0.00  0.00     0.013 A 
HETATM    5  C   UNK     0      -8.119  -7.743  -6.086  0.00  0.00    -0.011 A 
HETATM    6  C   UNK     0      -7.954  -7.925  -4.711  0.00  0.00     0.026 A 
HETATM    7  C   UNK     0      -8.740  -6.507  -6.275  0.00  0.00    -0.008 A 
HETATM    8  C   UNK     0      -9.000  -5.941  -5.021  0.00  0.00     0.037 A 
HETATM    9  C   UNK     0      -8.485  -6.817  -4.048  0.00  0.00     0.195 A 
HETATM   10  C   UNK     0      -9.075  -5.842  -7.463  0.00  0.00     0.043 A 
HETATM   11  C   UNK     0      -9.711  -4.579  -7.397  0.00  0.00     0.036 A 
HETATM   12  C   UNK     0      -9.991  -4.025  -6.124  0.00  0.00     0.043 A 
HETATM   13  C   UNK     0      -9.656  -4.689  -4.914  0.00  0.00    -0.009 A 
HETATM   14  O   UNK     0      -8.467  -6.654  -2.806  0.00  0.00    -0.287 OA
ENDROOT
BRANCH  13  15
HETATM   15  C   UNK     0      -9.991  -4.103  -3.661  0.00  0.00    -0.022 A 
HETATM   16  C   UNK     0     -11.132  -4.530  -2.940  0.00  0.00     0.029 A 
HETATM   17  C   UNK     0     -11.445  -3.922  -1.710  0.00  0.00     0.088 A 
HETATM   18  N   UNK     0     -10.659  -2.925  -1.231  0.00  0.00    -0.375 N 
HETATM   19  C   UNK     0      -9.559  -2.483  -1.890  0.00  0.00     0.088 A 
HETATM   20  HN  UNK     0     -10.905  -2.491  -0.341  1.00  0.00     0.164 HD
HETATM   21  C   UNK     0      -9.197  -3.065  -3.119  0.00  0.00     0.029 A 
ENDBRANCH  13  15
BRANCH  11  22
HETATM   22  N   UNK     0     -10.052  -3.841  -8.498  0.00  0.00    -0.327 N 
HETATM   23  C   UNK     0     -11.147  -3.986  -9.305  0.00  0.00     0.223 C 
HETATM   24  O   UNK     0     -12.059  -4.812  -9.061  0.00  0.00    -0.273 OA
HETATM   25  H   UNK     0      -9.455  -3.109  -8.719  0.00  0.00     0.169 HD
BRANCH  23  26
HETATM   26  C   UNK     0     -11.299  -3.119 -10.492  0.00  0.00     0.118 C 
BRANCH  26  27
HETATM   27  C   UNK     0     -10.723  -1.702 -10.256  0.00  0.00     0.124 C 
HETATM   28 Cl   UNK     0      -9.976  -1.068 -11.718  0.00  0.00    -0.130 Cl
ENDBRANCH  26  27
ENDBRANCH  23  26
ENDBRANCH  11  22
TORSDOF 4
ENDMDL
MODEL 2
REMARK VINA RESULT:      -6.5     12.846     14.621
REMARK  4 active torsions:
REMARK  status: ('A' for Active; 'I' for Inactive)
REMARK    1  A    between atoms: C_11  and  N_14 
REMARK    2  A    between atoms: C_13  and  C_21 
REMARK       I    between atoms: N_14  and  C_15 
REMARK    3  A    between atoms: C_15  and  C_16 
REMARK    4  A    between atoms: C_16  and  C_17 
ROOT
HETATM    1  C   UNK     0       5.302  -7.780 -10.619  0.00  0.00     0.016 A 
HETATM    2  C   UNK     0       5.971  -7.707  -9.379  0.00  0.00     0.001 A 
HETATM    3  C   UNK     0       5.930  -6.522  -8.611  0.00  0.00     0.001 A 
HETATM    4  C   UNK     0       5.212  -5.395  -9.068  0.00  0.00     0.013 A 
HETATM    5  C   UNK     0       4.537  -5.485 -10.302  0.00  0.00    -0.011 A 
HETATM    6  C   UNK     0       4.590  -6.652 -11.067  0.00  0.00     0.026 A 
HETATM    7  C   UNK     0       3.752  -4.563 -10.996  0.00  0.00    -0.008 A 
HETATM    8  C   UNK     0       3.352  -5.137 -12.208  0.00  0.00     0.037 A 
HETATM    9  C   UNK     0       3.857  -6.451 -12.238  0.00  0.00     0.195 A 
HETATM   10  C   UNK     0       3.352  -3.268 -10.631  0.00  0.00     0.043 A 
HETATM   11  C   UNK     0       2.545  -2.515 -11.517  0.00  0.00     0.036 A 
HETATM   12  C   UNK     0       2.165  -3.096 -12.751  0.00  0.00     0.043 A 
HETATM   13  C   UNK     0       2.563  -4.406 -13.131  0.00  0.00    -0.009 A 
HETATM   14  O   UNK     0       3.679  -7.317 -13.125  0.00  0.00    -0.287 OA
ENDROOT
BRANCH  13  15
HETATM   15  C   UNK     0       2.182  -4.929 -14.398  0.00  0.00    -0.022 A 
HETATM   16  C   UNK     0       3.012  -4.764 -15.533  0.00  0.00     0.029 A 
HETATM   17  C   UNK     0       2.602  -5.280 -16.775  0.00  0.00     0.088 A 
HETATM   18  N   UNK     0       1.411  -5.922 -16.880  0.00  0.00    -0.375 N 
HETATM   19  C   UNK     0       0.584  -6.101 -15.819  0.00  0.00     0.088 A 
HETATM   20  HN  UNK     0       1.127  -6.285 -17.790  1.00  0.00     0.164 HD
HETATM   21  C   UNK     0       0.953  -5.612 -14.552  0.00  0.00     0.029 A 
ENDBRANCH  13  15
BRANCH  11  22
HETATM   22  N   UNK     0       2.082  -1.257 -11.240  0.00  0.00    -0.327 N 
HETATM   23  C   UNK     0       0.882  -0.903 -10.687  0.00  0.00     0.223 C 
HETATM   24  O   UNK     0       0.056  -1.750 -10.271  0.00  0.00    -0.273 OA
HETATM   25  H   UNK     0       2.691  -0.528 -11.439  0.00  0.00     0.169 HD
BRANCH  23  26
HETATM   26  C   UNK     0       0.545   0.527 -10.529  0.00  0.00     0.118 C 
BRANCH  26  27
HETATM   27  C   UNK     0      -0.831   0.873 -11.147  0.00  0.00     0.124 C 
HETATM   28 Cl   UNK     0      -2.026   1.199  -9.896  0.00  0.00    -0.130 Cl
ENDBRANCH  26  27
ENDBRANCH  23  26
ENDBRANCH  11  22
TORSDOF 4
ENDMDL
MODEL 3
REMARK VINA RESULT:      -6.5     11.689     13.541
REMARK  4 active torsions:
REMARK  status: ('A' for Active; 'I' for Inactive)
REMARK    1  A    between atoms: C_11  and  N_14 
REMARK    2  A    between atoms: C_13  and  C_21 
REMARK       I    between atoms: N_14  and  C_15 
REMARK    3  A    between atoms: C_15  and  C_16 
REMARK    4  A    between atoms: C_16  and  C_17 
ROOT
HETATM    1  C   UNK     0      -2.039  -3.169 -15.903  0.00  0.00     0.016 A 
HETATM    2  C   UNK     0      -1.846  -4.306 -16.717  0.00  0.00     0.001 A 
HETATM    3  C   UNK     0      -0.902  -5.294 -16.357  0.00  0.00     0.001 A 
HETATM    4  C   UNK     0      -0.144  -5.164 -15.173  0.00  0.00     0.013 A 
HETATM    5  C   UNK     0      -0.354  -4.032 -14.362  0.00  0.00    -0.011 A 
HETATM    6  C   UNK     0      -1.278  -3.048 -14.725  0.00  0.00     0.026 A 
HETATM    7  C   UNK     0       0.223  -3.639 -13.153  0.00  0.00    -0.008 A 
HETATM    8  C   UNK     0      -0.307  -2.396 -12.786  0.00  0.00     0.037 A 
HETATM    9  C   UNK     0      -1.262  -2.042 -13.757  0.00  0.00     0.195 A 
HETATM   10  C   UNK     0       1.162  -4.302 -12.349  0.00  0.00     0.043 A 
HETATM   11  C   UNK     0       1.604  -3.692 -11.150  0.00  0.00     0.036 A 
HETATM   12  C   UNK     0       1.079  -2.424 -10.799  0.00  0.00     0.043 A 
HETATM   13  C   UNK     0       0.127  -1.744 -11.605  0.00  0.00    -0.009 A 
HETATM   14  O   UNK     0      -1.999  -1.030 -13.770  0.00  0.00    -0.287 OA
ENDROOT
BRANCH  13  15
HETATM   15  C   UNK     0      -0.341  -0.456 -11.224  0.00  0.00    -0.022 A 
HETATM   16  C   UNK     0       0.456   0.697 -11.423  0.00  0.00     0.029 A 
HETATM   17  C   UNK     0      -0.029   1.955 -11.023  0.00  0.00     0.088 A 
HETATM   18  N   UNK     0      -1.251   2.054 -10.439  0.00  0.00    -0.375 N 
HETATM   19  C   UNK     0      -2.046   0.975 -10.227  0.00  0.00     0.088 A 
HETATM   20  HN  UNK     0      -1.583   2.974 -10.150  1.00  0.00     0.164 HD
HETATM   21  C   UNK     0      -1.611  -0.304 -10.618  0.00  0.00     0.029 A 
ENDBRANCH  13  15
BRANCH  11  22
HETATM   22  N   UNK     0       2.495  -4.270 -10.287  0.00  0.00    -0.327 N 
HETATM   23  C   UNK     0       3.856  -4.139 -10.267  0.00  0.00     0.223 C 
HETATM   24  O   UNK     0       4.469  -3.360 -11.036  0.00  0.00    -0.273 OA
HETATM   25  H   UNK     0       2.110  -4.822  -9.588  0.00  0.00     0.169 HD
BRANCH  23  26
HETATM   26  C   UNK     0       4.649  -4.905  -9.283  0.00  0.00     0.118 C 
BRANCH  26  27
HETATM   27  C   UNK     0       4.571  -6.430  -9.534  0.00  0.00     0.124 C 
HETATM   28 Cl   UNK     0       4.601  -7.326  -8.018  0.00  0.00    -0.130 Cl
ENDBRANCH  26  27
ENDBRANCH  23  26
ENDBRANCH  11  22
TORSDOF 4
ENDMDL
MODEL 4
REMARK VINA RESULT:      -6.4      4.195      7.405
REMARK  4 active torsions:
REMARK  status: ('A' for Active; 'I' for Inactive)
REMARK    1  A    between atoms: C_11  and  N_14 
REMARK    2  A    between atoms: C_13  and  C_21 
REMARK       I    between atoms: N_14  and  C_15 
REMARK    3  A    between atoms: C_15  and  C_16 
REMARK    4  A    between atoms: C_16  and  C_17 
ROOT
HETATM    1  C   UNK     0      -8.173  -2.450  -3.776  0.00  0.00     0.016 A 
HETATM    2  C   UNK     0      -8.524  -1.473  -2.821  0.00  0.00     0.001 A 
HETATM    3  C   UNK     0      -9.563  -1.716  -1.895  0.00  0.00     0.001 A 
HETATM    4  C   UNK     0     -10.260  -2.943  -1.904  0.00  0.00     0.013 A 
HETATM    5  C   UNK     0      -9.893  -3.916  -2.854  0.00  0.00    -0.011 A 
HETATM    6  C   UNK     0      -8.875  -3.670  -3.779  0.00  0.00     0.026 A 
HETATM    7  C   UNK     0     -10.379  -5.202  -3.097  0.00  0.00    -0.008 A 
HETATM    8  C   UNK     0      -9.697  -5.739  -4.196  0.00  0.00     0.037 A 
HETATM    9  C   UNK     0      -8.741  -4.789  -4.603  0.00  0.00     0.195 A 
HETATM   10  C   UNK     0     -11.361  -5.935  -2.414  0.00  0.00     0.043 A 
HETATM   11  C   UNK     0     -11.688  -7.239  -2.857  0.00  0.00     0.036 A 
HETATM   12  C   UNK     0     -11.009  -7.765  -3.984  0.00  0.00     0.043 A 
HETATM   13  C   UNK     0     -10.013  -7.032  -4.683  0.00  0.00    -0.009 A 
HETATM   14  O   UNK     0      -7.894  -4.903  -5.518  0.00  0.00    -0.287 OA
ENDROOT
BRANCH  13  15
HETATM   15  C   UNK     0      -9.386  -7.593  -5.830  0.00  0.00    -0.022 A 
HETATM   16  C   UNK     0      -9.852  -7.296  -7.133  0.00  0.00     0.029 A 
HETATM   17  C   UNK     0      -9.221  -7.878  -8.247  0.00  0.00     0.088 A 
HETATM   18  N   UNK     0      -8.178  -8.727  -8.065  0.00  0.00    -0.375 N 
HETATM   19  C   UNK     0      -7.700  -9.042  -6.835  0.00  0.00     0.088 A 
HETATM   20  HN  UNK     0      -7.736  -9.144  -8.885  1.00  0.00     0.164 HD
HETATM   21  C   UNK     0      -8.291  -8.478  -5.689  0.00  0.00     0.029 A 
ENDBRANCH  13  15
BRANCH  11  22
HETATM   22  N   UNK     0     -12.610  -8.042  -2.242  0.00  0.00    -0.327 N 
HETATM   23  C   UNK     0     -13.970  -8.029  -2.387  0.00  0.00     0.223 C 
HETATM   24  O   UNK     0     -14.552  -7.287  -3.213  0.00  0.00    -0.273 OA
HETATM   25  H   UNK     0     -12.251  -8.721  -1.648  0.00  0.00     0.169 HD
BRANCH  23  26
HETATM   26  C   UNK     0     -14.799  -8.945  -1.576  0.00  0.00     0.118 C 
BRANCH  26  27
HETATM   27  C   UNK     0     -16.302  -8.583  -1.644  0.00  0.00     0.124 C 
HETATM   28 Cl   UNK     0     -16.702  -7.311  -0.493  0.00  0.00    -0.130 Cl
ENDBRANCH  26  27
ENDBRANCH  23  26
ENDBRANCH  11  22
TORSDOF 4
ENDMDL
MODEL 5
REMARK VINA RESULT:      -6.3     13.786     16.158
REMARK  4 active torsions:
REMARK  status: ('A' for Active; 'I' for Inactive)
REMARK    1  A    between atoms: C_11  and  N_14 
REMARK    2  A    between atoms: C_13  and  C_21 
REMARK       I    between atoms: N_14  and  C_15 
REMARK    3  A    between atoms: C_15  and  C_16 
REMARK    4  A    between atoms: C_16  and  C_17 
ROOT
HETATM    1  C   UNK     0       0.734  -1.178 -12.863  0.00  0.00     0.016 A 
HETATM    2  C   UNK     0       0.517  -0.198 -11.871  0.00  0.00     0.001 A 
HETATM    3  C   UNK     0       1.132  -0.312 -10.603  0.00  0.00     0.001 A 
HETATM    4  C   UNK     0       1.981  -1.401 -10.313  0.00  0.00     0.013 A 
HETATM    5  C   UNK     0       2.201  -2.366 -11.315  0.00  0.00    -0.011 A 
HETATM    6  C   UNK     0       1.581  -2.262 -12.563  0.00  0.00     0.026 A 
HETATM    7  C   UNK     0       2.980  -3.524 -11.330  0.00  0.00    -0.008 A 
HETATM    8  C   UNK     0       2.814  -4.162 -12.566  0.00  0.00     0.037 A 
HETATM    9  C   UNK     0       1.959  -3.357 -13.342  0.00  0.00     0.195 A 
HETATM   10  C   UNK     0       3.834  -4.045 -10.346  0.00  0.00     0.043 A 
HETATM   11  C   UNK     0       4.526  -5.254 -10.596  0.00  0.00     0.036 A 
HETATM   12  C   UNK     0       4.334  -5.904 -11.840  0.00  0.00     0.043 A 
HETATM   13  C   UNK     0       3.473  -5.385 -12.844  0.00  0.00    -0.009 A 
HETATM   14  O   UNK     0       1.602  -3.546 -14.528  0.00  0.00    -0.287 OA
ENDROOT
BRANCH  13  15
HETATM   15  C   UNK     0       3.288  -6.095 -14.063  0.00  0.00    -0.022 A 
HETATM   16  C   UNK     0       2.228  -7.021 -14.213  0.00  0.00     0.029 A 
HETATM   17  C   UNK     0       2.080  -7.719 -15.425  0.00  0.00     0.088 A 
HETATM   18  N   UNK     0       2.959  -7.508 -16.438  0.00  0.00    -0.375 N 
HETATM   19  C   UNK     0       3.990  -6.632 -16.336  0.00  0.00     0.088 A 
HETATM   20  HN  UNK     0       2.839  -8.027 -17.308  1.00  0.00     0.164 HD
HETATM   21  C   UNK     0       4.176  -5.902 -15.148  0.00  0.00     0.029 A 
ENDBRANCH  13  15
BRANCH  11  22
HETATM   22  N   UNK     0       5.400  -5.827  -9.712  0.00  0.00    -0.327 N 
HETATM   23  C   UNK     0       5.114  -6.461  -8.535  0.00  0.00     0.223 C 
HETATM   24  O   UNK     0       3.939  -6.675  -8.153  0.00  0.00    -0.273 OA
HETATM   25  H   UNK     0       6.337  -5.799  -9.964  0.00  0.00     0.169 HD
BRANCH  23  26
HETATM   26  C   UNK     0       6.218  -6.958  -7.686  0.00  0.00     0.118 C 
BRANCH  26  27
HETATM   27  C   UNK     0       6.564  -8.436  -7.988  0.00  0.00     0.124 C 
HETATM   28 Cl   UNK     0       7.315  -9.210  -6.597  0.00  0.00    -0.130 Cl
ENDBRANCH  26  27
ENDBRANCH  23  26
ENDBRANCH  11  22
TORSDOF 4
ENDMDL
MODEL 6
REMARK VINA RESULT:      -6.3     13.842     15.518
REMARK  4 active torsions:
REMARK  status: ('A' for Active; 'I' for Inactive)
REMARK    1  A    between atoms: C_11  and  N_14 
REMARK    2  A    between atoms: C_13  and  C_21 
REMARK       I    between atoms: N_14  and  C_15 
REMARK    3  A    between atoms: C_15  and  C_16 
REMARK    4  A    between atoms: C_16  and  C_17 
ROOT
HETATM    1  C   UNK     0       6.634  -7.451  -9.913  0.00  0.00     0.016 A 
HETATM    2  C   UNK     0       6.324  -7.966  -8.636  0.00  0.00     0.001 A 
HETATM    3  C   UNK     0       5.157  -7.546  -7.958  0.00  0.00     0.001 A 
HETATM    4  C   UNK     0       4.279  -6.613  -8.551  0.00  0.00     0.013 A 
HETATM    5  C   UNK     0       4.593  -6.115  -9.831  0.00  0.00    -0.011 A 
HETATM    6  C   UNK     0       5.754  -6.520 -10.495  0.00  0.00     0.026 A 
HETATM    7  C   UNK     0       3.929  -5.211 -10.660  0.00  0.00    -0.008 A 
HETATM    8  C   UNK     0       4.693  -5.019 -11.818  0.00  0.00     0.037 A 
HETATM    9  C   UNK     0       5.819  -5.857 -11.722  0.00  0.00     0.195 A 
HETATM   10  C   UNK     0       2.698  -4.561 -10.479  0.00  0.00     0.043 A 
HETATM   11  C   UNK     0       2.227  -3.674 -11.476  0.00  0.00     0.036 A 
HETATM   12  C   UNK     0       3.019  -3.469 -12.633  0.00  0.00     0.043 A 
HETATM   13  C   UNK     0       4.265  -4.122 -12.828  0.00  0.00    -0.009 A 
HETATM   14  O   UNK     0       6.723  -6.022 -12.574  0.00  0.00    -0.287 OA
ENDROOT
BRANCH  13  15
HETATM   15  C   UNK     0       5.037  -3.853 -13.993  0.00  0.00    -0.022 A 
HETATM   16  C   UNK     0       6.025  -2.839 -13.994  0.00  0.00     0.029 A 
HETATM   17  C   UNK     0       6.762  -2.588 -15.165  0.00  0.00     0.088 A 
HETATM   18  N   UNK     0       6.514  -3.310 -16.287  0.00  0.00    -0.375 N 
HETATM   19  C   UNK     0       5.575  -4.289 -16.331  0.00  0.00     0.088 A 
HETATM   20  HN  UNK     0       7.055  -3.110 -17.129  1.00  0.00     0.164 HD
HETATM   21  C   UNK     0       4.818  -4.586 -15.183  0.00  0.00     0.029 A 
ENDBRANCH  13  15
BRANCH  11  22
HETATM   22  N   UNK     0       1.029  -3.016 -11.403  0.00  0.00    -0.327 N 
HETATM   23  C   UNK     0       0.750  -1.843 -10.758  0.00  0.00     0.223 C 
HETATM   24  O   UNK     0       1.635  -1.155 -10.196  0.00  0.00    -0.273 OA
HETATM   25  H   UNK     0       0.294  -3.420 -11.890  0.00  0.00     0.169 HD
BRANCH  23  26
HETATM   26  C   UNK     0      -0.636  -1.328 -10.747  0.00  0.00     0.118 C 
BRANCH  26  27
HETATM   27  C   UNK     0      -0.683   0.217 -10.824  0.00  0.00     0.124 C 
HETATM   28 Cl   UNK     0      -2.122   0.849 -10.031  0.00  0.00    -0.130 Cl
ENDBRANCH  26  27
ENDBRANCH  23  26
ENDBRANCH  11  22
TORSDOF 4
ENDMDL
MODEL 7
REMARK VINA RESULT:      -6.2     11.286     13.192
REMARK  4 active torsions:
REMARK  status: ('A' for Active; 'I' for Inactive)
REMARK    1  A    between atoms: C_11  and  N_14 
REMARK    2  A    between atoms: C_13  and  C_21 
REMARK       I    between atoms: N_14  and  C_15 
REMARK    3  A    between atoms: C_15  and  C_16 
REMARK    4  A    between atoms: C_16  and  C_17 
ROOT
HETATM    1  C   UNK     0      -8.094   5.248  -8.237  0.00  0.00     0.016 A 
HETATM    2  C   UNK     0      -8.951   4.499  -9.072  0.00  0.00     0.001 A 
HETATM    3  C   UNK     0      -8.422   3.700 -10.110  0.00  0.00     0.001 A 
HETATM    4  C   UNK     0      -7.028   3.630 -10.324  0.00  0.00     0.013 A 
HETATM    5  C   UNK     0      -6.182   4.372  -9.476  0.00  0.00    -0.011 A 
HETATM    6  C   UNK     0      -6.705   5.173  -8.459  0.00  0.00     0.026 A 
HETATM    7  C   UNK     0      -4.792   4.494  -9.433  0.00  0.00    -0.008 A 
HETATM    8  C   UNK     0      -4.453   5.400  -8.421  0.00  0.00     0.037 A 
HETATM    9  C   UNK     0      -5.649   5.803  -7.798  0.00  0.00     0.195 A 
HETATM   10  C   UNK     0      -3.810   3.855 -10.204  0.00  0.00     0.043 A 
HETATM   11  C   UNK     0      -2.444   4.149  -9.972  0.00  0.00     0.036 A 
HETATM   12  C   UNK     0      -2.112   5.085  -8.962  0.00  0.00     0.043 A 
HETATM   13  C   UNK     0      -3.098   5.737  -8.174  0.00  0.00    -0.009 A 
HETATM   14  O   UNK     0      -5.777   6.566  -6.814  0.00  0.00    -0.287 OA
ENDROOT
BRANCH  13  15
HETATM   15  C   UNK     0      -2.712   6.694  -7.196  0.00  0.00    -0.022 A 
HETATM   16  C   UNK     0      -2.524   8.054  -7.542  0.00  0.00     0.029 A 
HETATM   17  C   UNK     0      -2.128   8.975  -6.556  0.00  0.00     0.088 A 
HETATM   18  N   UNK     0      -1.919   8.553  -5.283  0.00  0.00    -0.375 N 
HETATM   19  C   UNK     0      -2.084   7.259  -4.908  0.00  0.00     0.088 A 
HETATM   20  HN  UNK     0      -1.626   9.233  -4.582  1.00  0.00     0.164 HD
HETATM   21  C   UNK     0      -2.489   6.301  -5.855  0.00  0.00     0.029 A 
ENDBRANCH  13  15
BRANCH  11  22
HETATM   22  N   UNK     0      -1.414   3.558 -10.652  0.00  0.00    -0.327 N 
HETATM   23  C   UNK     0      -0.871   2.320 -10.451  0.00  0.00     0.223 C 
HETATM   24  O   UNK     0      -1.341   1.505  -9.623  0.00  0.00    -0.273 OA
HETATM   25  H   UNK     0      -1.038   4.075 -11.383  0.00  0.00     0.169 HD
BRANCH  23  26
HETATM   26  C   UNK     0       0.291   1.892 -11.258  0.00  0.00     0.118 C 
BRANCH  26  27
HETATM   27  C   UNK     0       0.223   0.390 -11.625  0.00  0.00     0.124 C 
HETATM   28 Cl   UNK     0       1.461  -0.529 -10.773  0.00  0.00    -0.130 Cl
ENDBRANCH  26  27
ENDBRANCH  23  26
ENDBRANCH  11  22
TORSDOF 4
ENDMDL
MODEL 8
REMARK VINA RESULT:      -6.2      3.711      6.326
REMARK  4 active torsions:
REMARK  status: ('A' for Active; 'I' for Inactive)
REMARK    1  A    between atoms: C_11  and  N_14 
REMARK    2  A    between atoms: C_13  and  C_21 
REMARK       I    between atoms: N_14  and  C_15 
REMARK    3  A    between atoms: C_15  and  C_16 
REMARK    4  A    between atoms: C_16  and  C_17 
ROOT
HETATM    1  C   UNK     0     -11.069  -5.029  -8.766  0.00  0.00     0.016 A 
HETATM    2  C   UNK     0     -10.910  -5.762  -9.962  0.00  0.00     0.001 A 
HETATM    3  C   UNK     0     -10.133  -6.942  -9.981  0.00  0.00     0.001 A 
HETATM    4  C   UNK     0      -9.511  -7.412  -8.804  0.00  0.00     0.013 A 
HETATM    5  C   UNK     0      -9.688  -6.679  -7.614  0.00  0.00    -0.011 A 
HETATM    6  C   UNK     0     -10.444  -5.504  -7.598  0.00  0.00     0.026 A 
HETATM    7  C   UNK     0      -9.218  -6.893  -6.317  0.00  0.00    -0.008 A 
HETATM    8  C   UNK     0      -9.644  -5.835  -5.505  0.00  0.00     0.037 A 
HETATM    9  C   UNK     0     -10.431  -4.983  -6.303  0.00  0.00     0.195 A 
HETATM   10  C   UNK     0      -8.462  -7.956  -5.799  0.00  0.00     0.043 A 
HETATM   11  C   UNK     0      -8.101  -7.949  -4.431  0.00  0.00     0.036 A 
HETATM   12  C   UNK     0      -8.517  -6.862  -3.623  0.00  0.00     0.043 A 
HETATM   13  C   UNK     0      -9.283  -5.781  -4.136  0.00  0.00    -0.009 A 
HETATM   14  O   UNK     0     -11.041  -3.950  -5.944  0.00  0.00    -0.287 OA
ENDROOT
BRANCH  13  15
HETATM   15  C   UNK     0      -9.645  -4.697  -3.289  0.00  0.00    -0.022 A 
HETATM   16  C   UNK     0      -8.890  -3.500  -3.275  0.00  0.00     0.029 A 
HETATM   17  C   UNK     0      -9.264  -2.451  -2.417  0.00  0.00     0.088 A 
HETATM   18  N   UNK     0     -10.339  -2.597  -1.601  0.00  0.00    -0.375 N 
HETATM   19  C   UNK     0     -11.089  -3.728  -1.579  0.00  0.00     0.088 A 
HETATM   20  HN  UNK     0     -10.592  -1.828  -0.980  1.00  0.00     0.164 HD
HETATM   21  C   UNK     0     -10.762  -4.802  -2.426  0.00  0.00     0.029 A 
ENDBRANCH  13  15
BRANCH  11  22
HETATM   22  N   UNK     0      -7.390  -8.951  -3.827  0.00  0.00    -0.327 N 
HETATM   23  C   UNK     0      -7.841 -10.175  -3.417  0.00  0.00     0.223 C 
HETATM   24  O   UNK     0      -9.010 -10.571  -3.637  0.00  0.00    -0.273 OA
HETATM   25  H   UNK     0      -6.444  -8.779  -3.696  0.00  0.00     0.169 HD
BRANCH  23  26
HETATM   26  C   UNK     0      -6.918 -11.097  -2.721  0.00  0.00     0.118 C 
BRANCH  26  27
HETATM   27  C   UNK     0      -5.815 -11.636  -3.662  0.00  0.00     0.124 C 
HETATM   28 Cl   UNK     0      -4.430 -12.225  -2.747  0.00  0.00    -0.130 Cl
ENDBRANCH  26  27
ENDBRANCH  23  26
ENDBRANCH  11  22
TORSDOF 4
ENDMDL
MODEL 9
REMARK VINA RESULT:      -6.2      4.470      7.241
REMARK  4 active torsions:
REMARK  status: ('A' for Active; 'I' for Inactive)
REMARK    1  A    between atoms: C_11  and  N_14 
REMARK    2  A    between atoms: C_13  and  C_21 
REMARK       I    between atoms: N_14  and  C_15 
REMARK    3  A    between atoms: C_15  and  C_16 
REMARK    4  A    between atoms: C_16  and  C_17 
ROOT
HETATM    1  C   UNK     0     -14.934  -5.812  -3.184  0.00  0.00     0.016 A 
HETATM    2  C   UNK     0     -15.889  -6.840  -3.026  0.00  0.00     0.001 A 
HETATM    3  C   UNK     0     -15.477  -8.171  -2.791  0.00  0.00     0.001 A 
HETATM    4  C   UNK     0     -14.106  -8.493  -2.701  0.00  0.00     0.013 A 
HETATM    5  C   UNK     0     -13.162  -7.456  -2.847  0.00  0.00    -0.011 A 
HETATM    6  C   UNK     0     -13.569  -6.143  -3.094  0.00  0.00     0.026 A 
HETATM    7  C   UNK     0     -11.767  -7.462  -2.798  0.00  0.00    -0.008 A 
HETATM    8  C   UNK     0     -11.305  -6.165  -3.055  0.00  0.00     0.037 A 
HETATM    9  C   UNK     0     -12.434  -5.340  -3.214  0.00  0.00     0.195 A 
HETATM   10  C   UNK     0     -10.881  -8.515  -2.527  0.00  0.00     0.043 A 
HETATM   11  C   UNK     0      -9.487  -8.271  -2.537  0.00  0.00     0.036 A 
HETATM   12  C   UNK     0      -9.028  -6.961  -2.821  0.00  0.00     0.043 A 
HETATM   13  C   UNK     0      -9.916  -5.886  -3.095  0.00  0.00    -0.009 A 
HETATM   14  O   UNK     0     -12.453  -4.102  -3.406  0.00  0.00    -0.287 OA
ENDROOT
BRANCH  13  15
HETATM   15  C   UNK     0      -9.401  -4.597  -3.409  0.00  0.00    -0.022 A 
HETATM   16  C   UNK     0      -8.865  -4.319  -4.689  0.00  0.00     0.029 A 
HETATM   17  C   UNK     0      -8.351  -3.040  -4.965  0.00  0.00     0.088 A 
HETATM   18  N   UNK     0      -8.362  -2.085  -4.000  0.00  0.00    -0.375 N 
HETATM   19  C   UNK     0      -8.862  -2.309  -2.759  0.00  0.00     0.088 A 
HETATM   20  HN  UNK     0      -7.979  -1.165  -4.216  1.00  0.00     0.164 HD
HETATM   21  C   UNK     0      -9.398  -3.570  -2.436  0.00  0.00     0.029 A 
ENDBRANCH  13  15
BRANCH  11  22
HETATM   22  N   UNK     0      -8.546  -9.225  -2.259  0.00  0.00    -0.327 N 
HETATM   23  C   UNK     0      -7.992 -10.136  -3.114  0.00  0.00     0.223 C 
HETATM   24  O   UNK     0      -8.239 -10.145  -4.343  0.00  0.00    -0.273 OA
HETATM   25  H   UNK     0      -8.215  -9.240  -1.347  0.00  0.00     0.169 HD
BRANCH  23  26
HETATM   26  C   UNK     0      -7.030 -11.132  -2.596  0.00  0.00     0.118 C 
BRANCH  26  27
HETATM   27  C   UNK     0      -6.085 -11.659  -3.703  0.00  0.00     0.124 C 
HETATM   28 Cl   UNK     0      -4.626 -12.362  -3.012  0.00  0.00    -0.130 Cl
ENDBRANCH  26  27
ENDBRANCH  23  26
ENDBRANCH  11  22
TORSDOF 4
ENDMDL
