MODEL 1
REMARK VINA RESULT:      -6.6      0.000      0.000
REMARK  4 active torsions:
REMARK  status: ('A' for Active; 'I' for Inactive)
REMARK    1  A    between atoms: C_11  and  N_14 
REMARK    2  A    between atoms: C_13  and  C_21 
REMARK       I    between atoms: N_14  and  C_15 
REMARK    3  A    between atoms: C_15  and  C_16 
REMARK    4  A    between atoms: C_16  and  C_17 
ROOT
HETATM    1  C   UNK     0      -7.313  -8.980  -4.010  0.00  0.00     0.008 A 
HETATM    2  C   UNK     0      -6.914  -9.988  -4.912  0.00  0.00     0.001 A 
HETATM    3  C   UNK     0      -7.100  -9.818  -6.301  0.00  0.00     0.001 A 
HETATM    4  C   UNK     0      -7.698  -8.645  -6.802  0.00  0.00     0.013 A 
HETATM    5  C   UNK     0      -8.099  -7.649  -5.890  0.00  0.00    -0.019 A 
HETATM    6  C   UNK     0      -7.908  -7.807  -4.515  0.00  0.00    -0.043 A 
HETATM    7  C   UNK     0      -8.703  -6.413  -6.098  0.00  0.00    -0.016 A 
HETATM    8  C   UNK     0      -8.906  -5.786  -4.864  0.00  0.00    -0.032 A 
HETATM    9  C   UNK     0      -8.400  -6.640  -3.764  0.00  0.00     0.080 A 
HETATM   10  C   UNK     0      -9.068  -5.794  -7.306  0.00  0.00     0.042 A 
HETATM   11  C   UNK     0      -9.655  -4.507  -7.279  0.00  0.00     0.036 A 
HETATM   12  C   UNK     0      -9.851  -3.870  -6.029  0.00  0.00     0.042 A 
HETATM   13  C   UNK     0      -9.495  -4.494  -4.802  0.00  0.00    -0.016 A 
ENDROOT
BRANCH  13  14
HETATM   14  C   UNK     0      -9.718  -3.826  -3.567  0.00  0.00    -0.023 A 
HETATM   15  C   UNK     0     -10.817  -4.168  -2.741  0.00  0.00     0.029 A 
HETATM   16  C   UNK     0     -10.999  -3.509  -1.513  0.00  0.00     0.088 A 
HETATM   17  N   UNK     0     -10.136  -2.534  -1.132  0.00  0.00    -0.375 N 
HETATM   18  C   UNK     0      -9.084  -2.155  -1.902  0.00  0.00     0.088 A 
HETATM   19  HN  UNK     0     -10.282  -2.068  -0.236  1.00  0.00     0.164 HD
HETATM   20  C   UNK     0      -8.853  -2.790  -3.138  0.00  0.00     0.029 A 
ENDBRANCH  13  14
BRANCH  11  21
HETATM   21  N   UNK     0      -9.988  -3.817  -8.416  0.00  0.00    -0.327 N 
HETATM   22  C   UNK     0     -11.117  -3.934  -9.178  0.00  0.00     0.223 C 
HETATM   23  O   UNK     0     -12.106  -4.614  -8.814  0.00  0.00    -0.273 OA
HETATM   24  H   UNK     0      -9.347  -3.151  -8.712  0.00  0.00     0.169 HD
BRANCH  22  25
HETATM   25  C   UNK     0     -11.193  -3.224 -10.473  0.00  0.00     0.118 C 
BRANCH  25  26
HETATM   26  C   UNK     0     -10.989  -1.699 -10.294  0.00  0.00     0.124 C 
HETATM   27 Cl   UNK     0      -9.878  -1.059 -11.499  0.00  0.00    -0.130 Cl
ENDBRANCH  25  26
ENDBRANCH  22  25
ENDBRANCH  11  21
TORSDOF 4
ENDMDL
MODEL 2
REMARK VINA RESULT:      -6.5     11.776     13.401
REMARK  4 active torsions:
REMARK  status: ('A' for Active; 'I' for Inactive)
REMARK    1  A    between atoms: C_11  and  N_14 
REMARK    2  A    between atoms: C_13  and  C_21 
REMARK       I    between atoms: N_14  and  C_15 
REMARK    3  A    between atoms: C_15  and  C_16 
REMARK    4  A    between atoms: C_16  and  C_17 
ROOT
HETATM    1  C   UNK     0      -2.066  -3.158 -15.810  0.00  0.00     0.008 A 
HETATM    2  C   UNK     0      -1.866  -4.326 -16.575  0.00  0.00     0.001 A 
HETATM    3  C   UNK     0      -0.931  -5.299 -16.163  0.00  0.00     0.001 A 
HETATM    4  C   UNK     0      -0.177  -5.110 -14.988  0.00  0.00     0.013 A 
HETATM    5  C   UNK     0      -0.382  -3.936 -14.236  0.00  0.00    -0.019 A 
HETATM    6  C   UNK     0      -1.313  -2.974 -14.634  0.00  0.00    -0.043 A 
HETATM    7  C   UNK     0       0.210  -3.496 -13.056  0.00  0.00    -0.016 A 
HETATM    8  C   UNK     0      -0.332  -2.255 -12.704  0.00  0.00    -0.032 A 
HETATM    9  C   UNK     0      -1.355  -1.842 -13.694  0.00  0.00     0.080 A 
HETATM   10  C   UNK     0       1.182  -4.125 -12.259  0.00  0.00     0.042 A 
HETATM   11  C   UNK     0       1.625  -3.495 -11.073  0.00  0.00     0.036 A 
HETATM   12  C   UNK     0       1.068  -2.242 -10.714  0.00  0.00     0.042 A 
HETATM   13  C   UNK     0       0.093  -1.594 -11.520  0.00  0.00    -0.016 A 
ENDROOT
BRANCH  13  14
HETATM   14  C   UNK     0      -0.434  -0.332 -11.131  0.00  0.00    -0.023 A 
HETATM   15  C   UNK     0       0.341   0.848 -11.244  0.00  0.00     0.029 A 
HETATM   16  C   UNK     0      -0.215   2.086 -10.876  0.00  0.00     0.088 A 
HETATM   17  N   UNK     0      -1.482   2.144 -10.394  0.00  0.00    -0.375 N 
HETATM   18  C   UNK     0      -2.253   1.037 -10.245  0.00  0.00     0.088 A 
HETATM   19  HN  UNK     0      -1.869   3.052 -10.135  1.00  0.00     0.164 HD
HETATM   20  C   UNK     0      -1.746  -0.226 -10.607  0.00  0.00     0.029 A 
ENDBRANCH  13  14
BRANCH  11  21
HETATM   21  N   UNK     0       2.530  -4.069 -10.218  0.00  0.00    -0.327 N 
HETATM   22  C   UNK     0       3.891  -3.954 -10.221  0.00  0.00     0.223 C 
HETATM   23  O   UNK     0       4.495  -3.134 -10.955  0.00  0.00    -0.273 OA
HETATM   24  H   UNK     0       2.155  -4.619  -9.510  0.00  0.00     0.169 HD
BRANCH  22  25
HETATM   25  C   UNK     0       4.693  -4.810  -9.320  0.00  0.00     0.118 C 
BRANCH  25  26
HETATM   26  C   UNK     0       4.414  -6.312  -9.573  0.00  0.00     0.124 C 
HETATM   27 Cl   UNK     0       4.390  -7.218  -8.065  0.00  0.00    -0.130 Cl
ENDBRANCH  25  26
ENDBRANCH  22  25
ENDBRANCH  11  21
TORSDOF 4
ENDMDL
MODEL 3
REMARK VINA RESULT:      -6.4     12.714     14.437
REMARK  4 active torsions:
REMARK  status: ('A' for Active; 'I' for Inactive)
REMARK    1  A    between atoms: C_11  and  N_14 
REMARK    2  A    between atoms: C_13  and  C_21 
REMARK       I    between atoms: N_14  and  C_15 
REMARK    3  A    between atoms: C_15  and  C_16 
REMARK    4  A    between atoms: C_16  and  C_17 
ROOT
HETATM    1  C   UNK     0       5.281  -7.717 -10.654  0.00  0.00     0.008 A 
HETATM    2  C   UNK     0       5.945  -7.660  -9.411  0.00  0.00     0.001 A 
HETATM    3  C   UNK     0       5.874  -6.497  -8.615  0.00  0.00     0.001 A 
HETATM    4  C   UNK     0       5.149  -5.373  -9.059  0.00  0.00     0.013 A 
HETATM    5  C   UNK     0       4.496  -5.440 -10.306  0.00  0.00    -0.019 A 
HETATM    6  C   UNK     0       4.555  -6.593 -11.093  0.00  0.00    -0.043 A 
HETATM    7  C   UNK     0       3.723  -4.500 -10.980  0.00  0.00    -0.016 A 
HETATM    8  C   UNK     0       3.295  -5.044 -12.197  0.00  0.00    -0.032 A 
HETATM    9  C   UNK     0       3.798  -6.430 -12.345  0.00  0.00     0.080 A 
HETATM   10  C   UNK     0       3.353  -3.204 -10.585  0.00  0.00     0.042 A 
HETATM   11  C   UNK     0       2.530  -2.425 -11.432  0.00  0.00     0.036 A 
HETATM   12  C   UNK     0       2.091  -2.981 -12.660  0.00  0.00     0.042 A 
HETATM   13  C   UNK     0       2.470  -4.288 -13.072  0.00  0.00    -0.016 A 
ENDROOT
BRANCH  13  14
HETATM   14  C   UNK     0       2.017  -4.805 -14.316  0.00  0.00    -0.023 A 
HETATM   15  C   UNK     0       2.759  -4.600 -15.505  0.00  0.00     0.029 A 
HETATM   16  C   UNK     0       2.301  -5.145 -16.717  0.00  0.00     0.088 A 
HETATM   17  N   UNK     0       1.141  -5.848 -16.749  0.00  0.00    -0.375 N 
HETATM   18  C   UNK     0       0.384  -6.049 -15.640  0.00  0.00     0.088 A 
HETATM   19  HN  UNK     0       0.826  -6.238 -17.637  1.00  0.00     0.164 HD
HETATM   20  C   UNK     0       0.803  -5.530 -14.399  0.00  0.00     0.029 A 
ENDBRANCH  13  14
BRANCH  11  21
HETATM   21  N   UNK     0       2.084  -1.174 -11.093  0.00  0.00    -0.327 N 
HETATM   22  C   UNK     0       0.843  -0.806 -10.654  0.00  0.00     0.223 C 
HETATM   23  O   UNK     0      -0.036  -1.645 -10.343  0.00  0.00    -0.273 OA
HETATM   24  H   UNK     0       2.737  -0.458 -11.161  0.00  0.00     0.169 HD
BRANCH  22  25
HETATM   25  C   UNK     0       0.518   0.631 -10.523  0.00  0.00     0.118 C 
BRANCH  25  26
HETATM   26  C   UNK     0      -0.863   0.956 -11.142  0.00  0.00     0.124 C 
HETATM   27 Cl   UNK     0      -2.080   1.199  -9.894  0.00  0.00    -0.130 Cl
ENDBRANCH  25  26
ENDBRANCH  22  25
ENDBRANCH  11  21
TORSDOF 4
ENDMDL
MODEL 4
REMARK VINA RESULT:      -6.2     11.165     13.086
REMARK  4 active torsions:
REMARK  status: ('A' for Active; 'I' for Inactive)
REMARK    1  A    between atoms: C_11  and  N_14 
REMARK    2  A    between atoms: C_13  and  C_21 
REMARK       I    between atoms: N_14  and  C_15 
REMARK    3  A    between atoms: C_15  and  C_16 
REMARK    4  A    between atoms: C_16  and  C_17 
ROOT
HETATM    1  C   UNK     0      -7.651   5.182  -9.005  0.00  0.00     0.008 A 
HETATM    2  C   UNK     0      -8.550   4.409  -9.769  0.00  0.00     0.001 A 
HETATM    3  C   UNK     0      -8.068   3.441 -10.676  0.00  0.00     0.001 A 
HETATM    4  C   UNK     0      -6.682   3.244 -10.838  0.00  0.00     0.013 A 
HETATM    5  C   UNK     0      -5.794   4.027 -10.074  0.00  0.00    -0.019 A 
HETATM    6  C   UNK     0      -6.266   4.980  -9.168  0.00  0.00    -0.043 A 
HETATM    7  C   UNK     0      -4.404   4.046 -10.030  0.00  0.00    -0.016 A 
HETATM    8  C   UNK     0      -3.986   5.011  -9.106  0.00  0.00    -0.032 A 
HETATM    9  C   UNK     0      -5.159   5.671  -8.485  0.00  0.00     0.080 A 
HETATM   10  C   UNK     0      -3.480   3.256 -10.734  0.00  0.00     0.042 A 
HETATM   11  C   UNK     0      -2.095   3.434 -10.509  0.00  0.00     0.036 A 
HETATM   12  C   UNK     0      -1.675   4.405  -9.566  0.00  0.00     0.042 A 
HETATM   13  C   UNK     0      -2.602   5.217  -8.858  0.00  0.00    -0.016 A 
ENDROOT
BRANCH  13  14
HETATM   14  C   UNK     0      -2.139   6.189  -7.928  0.00  0.00    -0.023 A 
HETATM   15  C   UNK     0      -1.423   7.331  -8.363  0.00  0.00     0.029 A 
HETATM   16  C   UNK     0      -1.000   8.288  -7.425  0.00  0.00     0.088 A 
HETATM   17  N   UNK     0      -1.260   8.106  -6.106  0.00  0.00    -0.375 N 
HETATM   18  C   UNK     0      -1.921   7.015  -5.641  0.00  0.00     0.088 A 
HETATM   19  HN  UNK     0      -0.948   8.813  -5.440  1.00  0.00     0.164 HD
HETATM   20  C   UNK     0      -2.373   6.031  -6.541  0.00  0.00     0.029 A 
ENDBRANCH  13  14
BRANCH  11  21
HETATM   21  N   UNK     0      -1.137   2.666 -11.117  0.00  0.00    -0.327 N 
HETATM   22  C   UNK     0      -0.483   1.574 -10.619  0.00  0.00     0.223 C 
HETATM   23  O   UNK     0      -0.818   1.022  -9.543  0.00  0.00    -0.273 OA
HETATM   24  H   UNK     0      -0.900   2.922 -12.023  0.00  0.00     0.169 HD
BRANCH  22  25
HETATM   25  C   UNK     0       0.654   1.003 -11.374  0.00  0.00     0.118 C 
BRANCH  25  26
HETATM   26  C   UNK     0       0.629  -0.545 -11.347  0.00  0.00     0.124 C 
HETATM   27 Cl   UNK     0       2.015  -1.188 -10.473  0.00  0.00    -0.130 Cl
ENDBRANCH  25  26
ENDBRANCH  22  25
ENDBRANCH  11  21
TORSDOF 4
ENDMDL
MODEL 5
REMARK VINA RESULT:      -6.1      3.544      6.196
REMARK  4 active torsions:
REMARK  status: ('A' for Active; 'I' for Inactive)
REMARK    1  A    between atoms: C_11  and  N_14 
REMARK    2  A    between atoms: C_13  and  C_21 
REMARK       I    between atoms: N_14  and  C_15 
REMARK    3  A    between atoms: C_15  and  C_16 
REMARK    4  A    between atoms: C_16  and  C_17 
ROOT
HETATM    1  C   UNK     0     -12.428  -3.615  -8.549  0.00  0.00     0.008 A 
HETATM    2  C   UNK     0     -12.481  -4.081  -9.879  0.00  0.00     0.001 A 
HETATM    3  C   UNK     0     -11.617  -5.111 -10.310  0.00  0.00     0.001 A 
HETATM    4  C   UNK     0     -10.683  -5.677  -9.419  0.00  0.00     0.013 A 
HETATM    5  C   UNK     0     -10.637  -5.198  -8.095  0.00  0.00    -0.019 A 
HETATM    6  C   UNK     0     -11.496  -4.185  -7.661  0.00  0.00    -0.043 A 
HETATM    7  C   UNK     0      -9.832  -5.565  -7.021  0.00  0.00    -0.016 A 
HETATM    8  C   UNK     0     -10.167  -4.787  -5.907  0.00  0.00    -0.032 A 
HETATM    9  C   UNK     0     -11.267  -3.853  -6.245  0.00  0.00     0.080 A 
HETATM   10  C   UNK     0      -8.836  -6.554  -6.953  0.00  0.00     0.042 A 
HETATM   11  C   UNK     0      -8.154  -6.774  -5.734  0.00  0.00     0.036 A 
HETATM   12  C   UNK     0      -8.501  -5.991  -4.604  0.00  0.00     0.042 A 
HETATM   13  C   UNK     0      -9.500  -4.981  -4.668  0.00  0.00    -0.016 A 
ENDROOT
BRANCH  13  14
HETATM   14  C   UNK     0      -9.812  -4.209  -3.515  0.00  0.00    -0.023 A 
HETATM   15  C   UNK     0      -9.081  -3.037  -3.202  0.00  0.00     0.029 A 
HETATM   16  C   UNK     0      -9.428  -2.279  -2.070  0.00  0.00     0.088 A 
HETATM   17  N   UNK     0     -10.446  -2.683  -1.270  0.00  0.00    -0.375 N 
HETATM   18  C   UNK     0     -11.158  -3.813  -1.516  0.00  0.00     0.088 A 
HETATM   19  HN  UNK     0     -10.686  -2.119  -0.454  1.00  0.00     0.164 HD
HETATM   20  C   UNK     0     -10.855  -4.603  -2.642  0.00  0.00     0.029 A 
ENDBRANCH  13  14
BRANCH  11  21
HETATM   21  N   UNK     0      -7.209  -7.754  -5.575  0.00  0.00    -0.327 N 
HETATM   22  C   UNK     0      -7.401  -9.089  -5.354  0.00  0.00     0.223 C 
HETATM   23  O   UNK     0      -8.532  -9.628  -5.433  0.00  0.00    -0.273 OA
HETATM   24  H   UNK     0      -6.284  -7.466  -5.639  0.00  0.00     0.169 HD
BRANCH  22  25
HETATM   25  C   UNK     0      -6.240  -9.943  -5.024  0.00  0.00     0.118 C 
BRANCH  25  26
HETATM   26  C   UNK     0      -6.667 -11.185  -4.203  0.00  0.00     0.124 C 
HETATM   27 Cl   UNK     0      -5.291 -11.908  -3.379  0.00  0.00    -0.130 Cl
ENDBRANCH  25  26
ENDBRANCH  22  25
ENDBRANCH  11  21
TORSDOF 4
ENDMDL
MODEL 6
REMARK VINA RESULT:      -6.1     12.130     13.655
REMARK  4 active torsions:
REMARK  status: ('A' for Active; 'I' for Inactive)
REMARK    1  A    between atoms: C_11  and  N_14 
REMARK    2  A    between atoms: C_13  and  C_21 
REMARK       I    between atoms: N_14  and  C_15 
REMARK    3  A    between atoms: C_15  and  C_16 
REMARK    4  A    between atoms: C_16  and  C_17 
ROOT
HETATM    1  C   UNK     0       0.564   1.024 -10.325  0.00  0.00     0.008 A 
HETATM    2  C   UNK     0      -0.534   1.861 -10.613  0.00  0.00     0.001 A 
HETATM    3  C   UNK     0      -1.515   1.459 -11.545  0.00  0.00     0.001 A 
HETATM    4  C   UNK     0      -1.401   0.221 -12.209  0.00  0.00     0.013 A 
HETATM    5  C   UNK     0      -0.295  -0.603 -11.917  0.00  0.00    -0.019 A 
HETATM    6  C   UNK     0       0.673  -0.213 -10.988  0.00  0.00    -0.043 A 
HETATM    7  C   UNK     0       0.064  -1.852 -12.411  0.00  0.00    -0.016 A 
HETATM    8  C   UNK     0       1.261  -2.259 -11.810  0.00  0.00    -0.032 A 
HETATM    9  C   UNK     0       1.727  -1.232 -10.848  0.00  0.00     0.080 A 
HETATM   10  C   UNK     0      -0.602  -2.667 -13.342  0.00  0.00     0.042 A 
HETATM   11  C   UNK     0      -0.057  -3.927 -13.683  0.00  0.00     0.036 A 
HETATM   12  C   UNK     0       1.150  -4.340 -13.065  0.00  0.00     0.042 A 
HETATM   13  C   UNK     0       1.836  -3.518 -12.131  0.00  0.00    -0.016 A 
ENDROOT
BRANCH  13  14
HETATM   14  C   UNK     0       3.051  -3.964 -11.541  0.00  0.00    -0.023 A 
HETATM   15  C   UNK     0       3.046  -4.701 -10.332  0.00  0.00     0.029 A 
HETATM   16  C   UNK     0       4.260  -5.152  -9.785  0.00  0.00     0.088 A 
HETATM   17  N   UNK     0       5.432  -4.863 -10.404  0.00  0.00    -0.375 N 
HETATM   18  C   UNK     0       5.487  -4.139 -11.551  0.00  0.00     0.088 A 
HETATM   19  HN  UNK     0       6.302  -5.201  -9.993  1.00  0.00     0.164 HD
HETATM   20  C   UNK     0       4.298  -3.671 -12.144  0.00  0.00     0.029 A 
ENDBRANCH  13  14
BRANCH  11  21
HETATM   21  N   UNK     0      -0.676  -4.799 -14.541  0.00  0.00    -0.327 N 
HETATM   22  C   UNK     0      -0.537  -4.895 -15.898  0.00  0.00     0.223 C 
HETATM   23  O   UNK     0       0.343  -4.263 -16.530  0.00  0.00    -0.273 OA
HETATM   24  H   UNK     0      -1.281  -5.439 -14.133  0.00  0.00     0.169 HD
BRANCH  22  25
HETATM   25  C   UNK     0      -1.442  -5.786 -16.657  0.00  0.00     0.118 C 
BRANCH  25  26
HETATM   26  C   UNK     0      -2.790  -5.980 -15.921  0.00  0.00     0.124 C 
HETATM   27 Cl   UNK     0      -3.824  -4.567 -16.103  0.00  0.00    -0.130 Cl
ENDBRANCH  25  26
ENDBRANCH  22  25
ENDBRANCH  11  21
TORSDOF 4
ENDMDL
MODEL 7
REMARK VINA RESULT:      -6.0      4.896      7.281
REMARK  4 active torsions:
REMARK  status: ('A' for Active; 'I' for Inactive)
REMARK    1  A    between atoms: C_11  and  N_14 
REMARK    2  A    between atoms: C_13  and  C_21 
REMARK       I    between atoms: N_14  and  C_15 
REMARK    3  A    between atoms: C_15  and  C_16 
REMARK    4  A    between atoms: C_16  and  C_17 
ROOT
HETATM    1  C   UNK     0     -14.821  -4.642  -5.803  0.00  0.00     0.008 A 
HETATM    2  C   UNK     0     -15.838  -5.577  -6.087  0.00  0.00     0.001 A 
HETATM    3  C   UNK     0     -15.745  -6.901  -5.609  0.00  0.00     0.001 A 
HETATM    4  C   UNK     0     -14.629  -7.308  -4.851  0.00  0.00     0.013 A 
HETATM    5  C   UNK     0     -13.617  -6.366  -4.579  0.00  0.00    -0.019 A 
HETATM    6  C   UNK     0     -13.709  -5.051  -5.043  0.00  0.00    -0.043 A 
HETATM    7  C   UNK     0     -12.427  -6.488  -3.869  0.00  0.00    -0.016 A 
HETATM    8  C   UNK     0     -11.755  -5.260  -3.883  0.00  0.00    -0.032 A 
HETATM    9  C   UNK     0     -12.541  -4.253  -4.635  0.00  0.00     0.080 A 
HETATM   10  C   UNK     0     -11.905  -7.603  -3.192  0.00  0.00     0.042 A 
HETATM   11  C   UNK     0     -10.672  -7.488  -2.508  0.00  0.00     0.036 A 
HETATM   12  C   UNK     0      -9.997  -6.242  -2.517  0.00  0.00     0.042 A 
HETATM   13  C   UNK     0     -10.514  -5.112  -3.208  0.00  0.00    -0.016 A 
ENDROOT
BRANCH  13  14
HETATM   14  C   UNK     0      -9.801  -3.881  -3.202  0.00  0.00    -0.023 A 
HETATM   15  C   UNK     0     -10.057  -2.895  -2.218  0.00  0.00     0.029 A 
HETATM   16  C   UNK     0      -9.320  -1.699  -2.220  0.00  0.00     0.088 A 
HETATM   17  N   UNK     0      -8.381  -1.483  -3.175  0.00  0.00    -0.375 N 
HETATM   18  C   UNK     0      -8.118  -2.388  -4.152  0.00  0.00     0.088 A 
HETATM   19  HN  UNK     0      -7.854  -0.610  -3.159  1.00  0.00     0.164 HD
HETATM   20  C   UNK     0      -8.824  -3.606  -4.190  0.00  0.00     0.029 A 
ENDBRANCH  13  14
BRANCH  11  21
HETATM   21  N   UNK     0     -10.125  -8.514  -1.782  0.00  0.00    -0.327 N 
HETATM   22  C   UNK     0      -9.150  -9.394  -2.159  0.00  0.00     0.223 C 
HETATM   23  O   UNK     0      -8.494  -9.257  -3.220  0.00  0.00    -0.273 OA
HETATM   24  H   UNK     0     -10.464  -8.623  -0.878  0.00  0.00     0.169 HD
BRANCH  22  25
HETATM   25  C   UNK     0      -8.836 -10.546  -1.286  0.00  0.00     0.118 C 
BRANCH  25  26
HETATM   26  C   UNK     0      -7.883 -11.544  -1.989  0.00  0.00     0.124 C 
HETATM   27 Cl   UNK     0      -6.483 -11.902  -0.985  0.00  0.00    -0.130 Cl
ENDBRANCH  25  26
ENDBRANCH  22  25
ENDBRANCH  11  21
TORSDOF 4
ENDMDL
MODEL 8
REMARK VINA RESULT:      -6.0     10.786     12.589
REMARK  4 active torsions:
REMARK  status: ('A' for Active; 'I' for Inactive)
REMARK    1  A    between atoms: C_11  and  N_14 
REMARK    2  A    between atoms: C_13  and  C_21 
REMARK       I    between atoms: N_14  and  C_15 
REMARK    3  A    between atoms: C_15  and  C_16 
REMARK    4  A    between atoms: C_16  and  C_17 
ROOT
HETATM    1  C   UNK     0       0.529  -3.003 -11.809  0.00  0.00     0.008 A 
HETATM    2  C   UNK     0       1.767  -3.171 -11.155  0.00  0.00     0.001 A 
HETATM    3  C   UNK     0       2.358  -2.096 -10.457  0.00  0.00     0.001 A 
HETATM    4  C   UNK     0       1.723  -0.839 -10.416  0.00  0.00     0.013 A 
HETATM    5  C   UNK     0       0.490  -0.682 -11.079  0.00  0.00    -0.019 A 
HETATM    6  C   UNK     0      -0.104  -1.746 -11.763  0.00  0.00    -0.043 A 
HETATM    7  C   UNK     0      -0.344   0.424 -11.201  0.00  0.00    -0.016 A 
HETATM    8  C   UNK     0      -1.463   0.075 -11.966  0.00  0.00    -0.032 A 
HETATM    9  C   UNK     0      -1.384  -1.348 -12.372  0.00  0.00     0.080 A 
HETATM   10  C   UNK     0      -0.195   1.715 -10.666  0.00  0.00     0.042 A 
HETATM   11  C   UNK     0      -1.194   2.688 -10.902  0.00  0.00     0.036 A 
HETATM   12  C   UNK     0      -2.330   2.329 -11.670  0.00  0.00     0.042 A 
HETATM   13  C   UNK     0      -2.484   1.029 -12.224  0.00  0.00    -0.016 A 
ENDROOT
BRANCH  13  14
HETATM   14  C   UNK     0      -3.634   0.712 -12.998  0.00  0.00    -0.023 A 
HETATM   15  C   UNK     0      -3.640   0.895 -14.403  0.00  0.00     0.029 A 
HETATM   16  C   UNK     0      -4.782   0.549 -15.146  0.00  0.00     0.088 A 
HETATM   17  N   UNK     0      -5.880   0.062 -14.516  0.00  0.00    -0.375 N 
HETATM   18  C   UNK     0      -5.928  -0.107 -13.170  0.00  0.00     0.088 A 
HETATM   19  HN  UNK     0      -6.698  -0.187 -15.072  1.00  0.00     0.164 HD
HETATM   20  C   UNK     0      -4.808   0.218 -12.380  0.00  0.00     0.029 A 
ENDBRANCH  13  14
BRANCH  11  21
HETATM   21  N   UNK     0      -1.145   3.950 -10.371  0.00  0.00    -0.327 N 
HETATM   22  C   UNK     0      -1.958   4.503  -9.421  0.00  0.00     0.223 C 
HETATM   23  O   UNK     0      -2.793   3.826  -8.774  0.00  0.00    -0.273 OA
HETATM   24  H   UNK     0      -0.434   4.523 -10.702  0.00  0.00     0.169 HD
BRANCH  22  25
HETATM   25  C   UNK     0      -1.847   5.948  -9.124  0.00  0.00     0.118 C 
BRANCH  25  26
HETATM   26  C   UNK     0      -0.733   6.226  -8.085  0.00  0.00     0.124 C 
HETATM   27 Cl   UNK     0      -0.833   7.873  -7.471  0.00  0.00    -0.130 Cl
ENDBRANCH  25  26
ENDBRANCH  22  25
ENDBRANCH  11  21
TORSDOF 4
ENDMDL
MODEL 9
REMARK VINA RESULT:      -6.0     13.913     16.259
REMARK  4 active torsions:
REMARK  status: ('A' for Active; 'I' for Inactive)
REMARK    1  A    between atoms: C_11  and  N_14 
REMARK    2  A    between atoms: C_13  and  C_21 
REMARK       I    between atoms: N_14  and  C_15 
REMARK    3  A    between atoms: C_15  and  C_16 
REMARK    4  A    between atoms: C_16  and  C_17 
ROOT
HETATM    1  C   UNK     0       1.046  -1.692 -12.904  0.00  0.00     0.008 A 
HETATM    2  C   UNK     0       0.932  -0.705 -11.903  0.00  0.00     0.001 A 
HETATM    3  C   UNK     0       1.584  -0.867 -10.662  0.00  0.00     0.001 A 
HETATM    4  C   UNK     0       2.347  -2.023 -10.403  0.00  0.00     0.013 A 
HETATM    5  C   UNK     0       2.448  -3.005 -11.409  0.00  0.00    -0.019 A 
HETATM    6  C   UNK     0       1.812  -2.845 -12.643  0.00  0.00    -0.043 A 
HETATM    7  C   UNK     0       3.121  -4.222 -11.428  0.00  0.00    -0.016 A 
HETATM    8  C   UNK     0       2.913  -4.843 -12.665  0.00  0.00    -0.032 A 
HETATM    9  C   UNK     0       2.062  -3.993 -13.531  0.00  0.00     0.080 A 
HETATM   10  C   UNK     0       3.924  -4.811 -10.437  0.00  0.00     0.042 A 
HETATM   11  C   UNK     0       4.537  -6.061 -10.688  0.00  0.00     0.036 A 
HETATM   12  C   UNK     0       4.332  -6.684 -11.945  0.00  0.00     0.042 A 
HETATM   13  C   UNK     0       3.513  -6.100 -12.949  0.00  0.00    -0.016 A 
ENDROOT
BRANCH  13  14
HETATM   14  C   UNK     0       3.323  -6.762 -14.193  0.00  0.00    -0.023 A 
HETATM   15  C   UNK     0       2.113  -7.441 -14.480  0.00  0.00     0.029 A 
HETATM   16  C   UNK     0       1.943  -8.065 -15.728  0.00  0.00     0.088 A 
HETATM   17  N   UNK     0       2.943  -8.034 -16.644  0.00  0.00    -0.375 N 
HETATM   18  C   UNK     0       4.128  -7.416 -16.404  0.00  0.00     0.088 A 
HETATM   19  HN  UNK     0       2.800  -8.490 -17.545  1.00  0.00     0.164 HD
HETATM   20  C   UNK     0       4.346  -6.769 -15.172  0.00  0.00     0.029 A 
ENDBRANCH  13  14
BRANCH  11  21
HETATM   21  N   UNK     0       5.375  -6.673  -9.793  0.00  0.00    -0.327 N 
HETATM   22  C   UNK     0       5.134  -6.989  -8.485  0.00  0.00     0.223 C 
HETATM   23  O   UNK     0       3.994  -6.892  -7.969  0.00  0.00    -0.273 OA
HETATM   24  H   UNK     0       6.249  -6.925 -10.133  0.00  0.00     0.169 HD
BRANCH  22  25
HETATM   25  C   UNK     0       6.245  -7.480  -7.641  0.00  0.00     0.118 C 
BRANCH  25  26
HETATM   26  C   UNK     0       7.557  -7.605  -8.454  0.00  0.00     0.124 C 
HETATM   27 Cl   UNK     0       7.711  -9.204  -9.172  0.00  0.00    -0.130 Cl
ENDBRANCH  25  26
ENDBRANCH  22  25
ENDBRANCH  11  21
TORSDOF 4
ENDMDL
