MODEL 1
REMARK VINA RESULT:      -6.3      0.000      0.000
REMARK  4 active torsions:
REMARK  status: ('A' for Active; 'I' for Inactive)
REMARK    1  A    between atoms: C_11  and  N_19 
REMARK    2  A    between atoms: C_13  and  C_14 
REMARK       I    between atoms: N_19  and  C_21 
REMARK    3  A    between atoms: C_21  and  C_22 
REMARK    4  A    between atoms: C_22  and  C_23 
ROOT
HETATM    1  C   UNK     0       6.526  -4.948  -4.984  0.00  0.00     0.008 A 
HETATM    2  C   UNK     0       6.455  -4.508  -3.646  0.00  0.00     0.001 A 
HETATM    3  C   UNK     0       5.375  -4.897  -2.825  0.00  0.00     0.001 A 
HETATM    4  C   UNK     0       4.359  -5.735  -3.330  0.00  0.00     0.013 A 
HETATM    5  C   UNK     0       4.448  -6.176  -4.665  0.00  0.00    -0.019 A 
HETATM    6  C   UNK     0       5.507  -5.779  -5.482  0.00  0.00    -0.043 A 
HETATM    7  C   UNK     0       3.626  -7.014  -5.405  0.00  0.00    -0.016 A 
HETATM    8  C   UNK     0       4.143  -7.140  -6.703  0.00  0.00    -0.031 A 
HETATM    9  C   UNK     0       5.375  -6.328  -6.837  0.00  0.00     0.080 A 
HETATM   10  C   UNK     0       2.465  -7.694  -5.003  0.00  0.00     0.042 A 
HETATM   11  C   UNK     0       1.796  -8.524  -5.931  0.00  0.00     0.036 A 
HETATM   12  C   UNK     0       2.340  -8.669  -7.231  0.00  0.00     0.043 A 
HETATM   13  C   UNK     0       3.511  -7.983  -7.654  0.00  0.00    -0.009 A 
ENDROOT
BRANCH  13  14
HETATM   14  C   UNK     0       3.995  -8.174  -8.983  0.00  0.00     0.015 A 
HETATM   15  C   UNK     0       3.478  -7.687 -10.197  0.00  0.00     0.020 A 
HETATM   16  C   UNK     0       4.168  -8.055 -11.364  0.00  0.00     0.008 A 
HETATM   17  C   UNK     0       5.273  -8.879 -11.161  0.00  0.00     0.050 A 
HETATM   18  S   UNK     0       5.393  -9.141  -9.434  0.00  0.00    -0.101 SA
ENDBRANCH  13  14
BRANCH  11  19
HETATM   19  N   UNK     0       0.654  -9.229  -5.659  0.00  0.00    -0.327 N 
HETATM   20  C   UNK     0      -0.646  -8.826  -5.767  0.00  0.00     0.223 C 
HETATM   21  O   UNK     0      -0.975  -7.691  -6.187  0.00  0.00    -0.273 OA
HETATM   22  H   UNK     0       0.785 -10.152  -5.391  0.00  0.00     0.169 HD
BRANCH  20  23
HETATM   23  C   UNK     0      -1.728  -9.773  -5.424  0.00  0.00     0.118 C 
BRANCH  23  24
HETATM   24  C   UNK     0      -2.694  -9.188  -4.370  0.00  0.00     0.124 C 
HETATM   25 Cl   UNK     0      -4.153 -10.167  -4.252  0.00  0.00    -0.130 Cl
ENDBRANCH  23  24
ENDBRANCH  20  23
ENDBRANCH  11  19
TORSDOF 4
ENDMDL
MODEL 2
REMARK VINA RESULT:      -6.2     10.551     11.925
REMARK  4 active torsions:
REMARK  status: ('A' for Active; 'I' for Inactive)
REMARK    1  A    between atoms: C_11  and  N_19 
REMARK    2  A    between atoms: C_13  and  C_14 
REMARK       I    between atoms: N_19  and  C_21 
REMARK    3  A    between atoms: C_21  and  C_22 
REMARK    4  A    between atoms: C_22  and  C_23 
ROOT
HETATM    1  C   UNK     0      -6.592  -1.235  -5.424  0.00  0.00     0.008 A 
HETATM    2  C   UNK     0      -6.178  -0.468  -4.316  0.00  0.00     0.001 A 
HETATM    3  C   UNK     0      -5.088   0.422  -4.432  0.00  0.00     0.001 A 
HETATM    4  C   UNK     0      -4.406   0.559  -5.659  0.00  0.00     0.013 A 
HETATM    5  C   UNK     0      -4.837  -0.205  -6.761  0.00  0.00    -0.019 A 
HETATM    6  C   UNK     0      -5.904  -1.096  -6.643  0.00  0.00    -0.043 A 
HETATM    7  C   UNK     0      -4.383  -0.251  -8.072  0.00  0.00    -0.016 A 
HETATM    8  C   UNK     0      -5.142  -1.186  -8.791  0.00  0.00    -0.031 A 
HETATM    9  C   UNK     0      -6.153  -1.806  -7.903  0.00  0.00     0.080 A 
HETATM   10  C   UNK     0      -3.360   0.494  -8.680  0.00  0.00     0.042 A 
HETATM   11  C   UNK     0      -3.085   0.296 -10.052  0.00  0.00     0.036 A 
HETATM   12  C   UNK     0      -3.874  -0.629 -10.778  0.00  0.00     0.043 A 
HETATM   13  C   UNK     0      -4.909  -1.395 -10.175  0.00  0.00    -0.009 A 
ENDROOT
BRANCH  13  14
HETATM   14  C   UNK     0      -5.658  -2.313 -10.972  0.00  0.00     0.015 A 
HETATM   15  C   UNK     0      -5.462  -3.692 -11.160  0.00  0.00     0.020 A 
HETATM   16  C   UNK     0      -6.361  -4.340 -12.023  0.00  0.00     0.008 A 
HETATM   17  C   UNK     0      -7.325  -3.515 -12.599  0.00  0.00     0.050 A 
HETATM   18  S   UNK     0      -7.039  -1.902 -11.980  0.00  0.00    -0.101 SA
ENDBRANCH  13  14
BRANCH  11  19
HETATM   19  N   UNK     0      -2.109   0.956 -10.750  0.00  0.00    -0.327 N 
HETATM   20  C   UNK     0      -0.836   0.552 -11.032  0.00  0.00     0.223 C 
HETATM   21  O   UNK     0      -0.384  -0.566 -10.686  0.00  0.00    -0.273 OA
HETATM   22  H   UNK     0      -2.371   1.810 -11.130  0.00  0.00     0.169 HD
BRANCH  20  23
HETATM   23  C   UNK     0       0.047   1.437 -11.821  0.00  0.00     0.118 C 
BRANCH  23  24
HETATM   24  C   UNK     0       1.541   1.169 -11.530  0.00  0.00     0.124 C 
HETATM   25 Cl   UNK     0       2.000   1.844  -9.970  0.00  0.00    -0.130 Cl
ENDBRANCH  23  24
ENDBRANCH  20  23
ENDBRANCH  11  19
TORSDOF 4
ENDMDL
MODEL 3
REMARK VINA RESULT:      -6.2      1.703      4.919
REMARK  4 active torsions:
REMARK  status: ('A' for Active; 'I' for Inactive)
REMARK    1  A    between atoms: C_11  and  N_19 
REMARK    2  A    between atoms: C_13  and  C_14 
REMARK       I    between atoms: N_19  and  C_21 
REMARK    3  A    between atoms: C_21  and  C_22 
REMARK    4  A    between atoms: C_22  and  C_23 
ROOT
HETATM    1  C   UNK     0       5.928  -6.577  -9.783  0.00  0.00     0.008 A 
HETATM    2  C   UNK     0       5.552  -6.979 -11.081  0.00  0.00     0.001 A 
HETATM    3  C   UNK     0       4.406  -7.781 -11.274  0.00  0.00     0.001 A 
HETATM    4  C   UNK     0       3.621  -8.184 -10.174  0.00  0.00     0.013 A 
HETATM    5  C   UNK     0       4.003  -7.766  -8.884  0.00  0.00    -0.019 A 
HETATM    6  C   UNK     0       5.144  -6.987  -8.689  0.00  0.00    -0.043 A 
HETATM    7  C   UNK     0       3.415  -7.981  -7.644  0.00  0.00    -0.016 A 
HETATM    8  C   UNK     0       4.187  -7.359  -6.652  0.00  0.00    -0.031 A 
HETATM    9  C   UNK     0       5.364  -6.702  -7.266  0.00  0.00     0.080 A 
HETATM   10  C   UNK     0       2.230  -8.668  -7.336  0.00  0.00     0.042 A 
HETATM   11  C   UNK     0       1.805  -8.739  -5.990  0.00  0.00     0.036 A 
HETATM   12  C   UNK     0       2.575  -8.085  -4.997  0.00  0.00     0.043 A 
HETATM   13  C   UNK     0       3.779  -7.390  -5.293  0.00  0.00    -0.009 A 
ENDROOT
BRANCH  13  14
HETATM   14  C   UNK     0       4.505  -6.761  -4.237  0.00  0.00     0.015 A 
HETATM   15  C   UNK     0       5.280  -7.344  -3.220  0.00  0.00     0.020 A 
HETATM   16  C   UNK     0       5.873  -6.462  -2.301  0.00  0.00     0.008 A 
HETATM   17  C   UNK     0       5.592  -5.114  -2.511  0.00  0.00     0.050 A 
HETATM   18  S   UNK     0       4.566  -5.030  -3.928  0.00  0.00    -0.101 SA
ENDBRANCH  13  14
BRANCH  11  19
HETATM   19  N   UNK     0       0.675  -9.386  -5.566  0.00  0.00    -0.327 N 
HETATM   20  C   UNK     0      -0.626  -8.980  -5.649  0.00  0.00     0.223 C 
HETATM   21  O   UNK     0      -0.970  -7.903  -6.191  0.00  0.00    -0.273 OA
HETATM   22  H   UNK     0       0.815 -10.270  -5.190  0.00  0.00     0.169 HD
BRANCH  20  23
HETATM   23  C   UNK     0      -1.694  -9.860  -5.127  0.00  0.00     0.118 C 
BRANCH  23  24
HETATM   24  C   UNK     0      -2.745  -9.071  -4.316  0.00  0.00     0.124 C 
HETATM   25 Cl   UNK     0      -4.193 -10.043  -4.065  0.00  0.00    -0.130 Cl
ENDBRANCH  23  24
ENDBRANCH  20  23
ENDBRANCH  11  19
TORSDOF 4
ENDMDL
MODEL 4
REMARK VINA RESULT:      -6.1     18.030     21.386
REMARK  4 active torsions:
REMARK  status: ('A' for Active; 'I' for Inactive)
REMARK    1  A    between atoms: C_11  and  N_19 
REMARK    2  A    between atoms: C_13  and  C_14 
REMARK       I    between atoms: N_19  and  C_21 
REMARK    3  A    between atoms: C_21  and  C_22 
REMARK    4  A    between atoms: C_22  and  C_23 
ROOT
HETATM    1  C   UNK     0       1.955   5.309   6.283  0.00  0.00     0.008 A 
HETATM    2  C   UNK     0       2.766   4.327   5.677  0.00  0.00     0.001 A 
HETATM    3  C   UNK     0       3.488   4.625   4.502  0.00  0.00     0.001 A 
HETATM    4  C   UNK     0       3.414   5.909   3.923  0.00  0.00     0.013 A 
HETATM    5  C   UNK     0       2.610   6.884   4.545  0.00  0.00    -0.019 A 
HETATM    6  C   UNK     0       1.882   6.586   5.698  0.00  0.00    -0.043 A 
HETATM    7  C   UNK     0       2.375   8.214   4.222  0.00  0.00    -0.016 A 
HETATM    8  C   UNK     0       1.483   8.765   5.154  0.00  0.00    -0.031 A 
HETATM    9  C   UNK     0       1.091   7.738   6.147  0.00  0.00     0.080 A 
HETATM   10  C   UNK     0       2.916   8.978   3.176  0.00  0.00     0.042 A 
HETATM   11  C   UNK     0       2.550  10.338   3.055  0.00  0.00     0.036 A 
HETATM   12  C   UNK     0       1.671  10.895   4.015  0.00  0.00     0.043 A 
HETATM   13  C   UNK     0       1.110  10.133   5.077  0.00  0.00    -0.009 A 
ENDROOT
BRANCH  13  14
HETATM   14  C   UNK     0       0.225  10.763   6.003  0.00  0.00     0.015 A 
HETATM   15  C   UNK     0      -1.130  11.103   5.847  0.00  0.00     0.020 A 
HETATM   16  C   UNK     0      -1.747  11.735   6.940  0.00  0.00     0.008 A 
HETATM   17  C   UNK     0      -0.916  11.961   8.036  0.00  0.00     0.050 A 
HETATM   18  S   UNK     0       0.658  11.321   7.613  0.00  0.00    -0.101 SA
ENDBRANCH  13  14
BRANCH  11  19
HETATM   19  N   UNK     0       3.004  11.179   2.075  0.00  0.00    -0.327 N 
HETATM   20  C   UNK     0       4.189  11.854   2.006  0.00  0.00     0.223 C 
HETATM   21  O   UNK     0       5.082  11.753   2.881  0.00  0.00    -0.273 OA
HETATM   22  H   UNK     0       2.420  11.280   1.306  0.00  0.00     0.169 HD
BRANCH  20  23
HETATM   23  C   UNK     0       4.470  12.708   0.832  0.00  0.00     0.118 C 
BRANCH  23  24
HETATM   24  C   UNK     0       3.172  13.228   0.175  0.00  0.00     0.124 C 
HETATM   25 Cl   UNK     0       2.828  12.342  -1.308  0.00  0.00    -0.130 Cl
ENDBRANCH  23  24
ENDBRANCH  20  23
ENDBRANCH  11  19
TORSDOF 4
ENDMDL
MODEL 5
REMARK VINA RESULT:      -6.0     18.396     21.227
REMARK  4 active torsions:
REMARK  status: ('A' for Active; 'I' for Inactive)
REMARK    1  A    between atoms: C_11  and  N_19 
REMARK    2  A    between atoms: C_13  and  C_14 
REMARK       I    between atoms: N_19  and  C_21 
REMARK    3  A    between atoms: C_21  and  C_22 
REMARK    4  A    between atoms: C_22  and  C_23 
ROOT
HETATM    1  C   UNK     0       4.134   5.743   4.453  0.00  0.00     0.008 A 
HETATM    2  C   UNK     0       3.646   4.568   5.063  0.00  0.00     0.001 A 
HETATM    3  C   UNK     0       2.461   4.603   5.829  0.00  0.00     0.001 A 
HETATM    4  C   UNK     0       1.748   5.809   5.988  0.00  0.00     0.013 A 
HETATM    5  C   UNK     0       2.240   6.972   5.365  0.00  0.00    -0.019 A 
HETATM    6  C   UNK     0       3.420   6.943   4.620  0.00  0.00    -0.043 A 
HETATM    7  C   UNK     0       1.741   8.267   5.325  0.00  0.00    -0.016 A 
HETATM    8  C   UNK     0       2.608   9.074   4.573  0.00  0.00    -0.031 A 
HETATM    9  C   UNK     0       3.758   8.272   4.096  0.00  0.00     0.080 A 
HETATM   10  C   UNK     0       0.559   8.776   5.886  0.00  0.00     0.042 A 
HETATM   11  C   UNK     0       0.234  10.138   5.693  0.00  0.00     0.036 A 
HETATM   12  C   UNK     0       1.100  10.939   4.910  0.00  0.00     0.043 A 
HETATM   13  C   UNK     0       2.303  10.440   4.340  0.00  0.00    -0.009 A 
ENDROOT
BRANCH  13  14
HETATM   14  C   UNK     0       3.129  11.312   3.567  0.00  0.00     0.015 A 
HETATM   15  C   UNK     0       3.178  11.486   2.173  0.00  0.00     0.020 A 
HETATM   16  C   UNK     0       4.112  12.418   1.691  0.00  0.00     0.008 A 
HETATM   17  C   UNK     0       4.888  13.036   2.669  0.00  0.00     0.050 A 
HETATM   18  S   UNK     0       4.360  12.391   4.210  0.00  0.00    -0.101 SA
ENDBRANCH  13  14
BRANCH  11  19
HETATM   19  N   UNK     0      -0.883  10.748   6.197  0.00  0.00    -0.327 N 
HETATM   20  C   UNK     0      -1.103  11.226   7.457  0.00  0.00     0.223 C 
HETATM   21  O   UNK     0      -0.234  11.188   8.361  0.00  0.00    -0.273 OA
HETATM   22  H   UNK     0      -1.601  10.897   5.562  0.00  0.00     0.169 HD
BRANCH  20  23
HETATM   23  C   UNK     0      -2.398  11.864   7.774  0.00  0.00     0.118 C 
BRANCH  23  24
HETATM   24  C   UNK     0      -3.395  11.758   6.599  0.00  0.00     0.124 C 
HETATM   25 Cl   UNK     0      -3.623  13.329   5.834  0.00  0.00    -0.130 Cl
ENDBRANCH  23  24
ENDBRANCH  20  23
ENDBRANCH  11  19
TORSDOF 4
ENDMDL
MODEL 6
REMARK VINA RESULT:      -5.9      3.175      6.417
REMARK  4 active torsions:
REMARK  status: ('A' for Active; 'I' for Inactive)
REMARK    1  A    between atoms: C_11  and  N_19 
REMARK    2  A    between atoms: C_13  and  C_14 
REMARK       I    between atoms: N_19  and  C_21 
REMARK    3  A    between atoms: C_21  and  C_22 
REMARK    4  A    between atoms: C_22  and  C_23 
ROOT
HETATM    1  C   UNK     0       3.485  -8.077 -11.371  0.00  0.00     0.008 A 
HETATM    2  C   UNK     0       4.655  -7.672 -12.047  0.00  0.00     0.001 A 
HETATM    3  C   UNK     0       5.742  -7.131 -11.328  0.00  0.00     0.001 A 
HETATM    4  C   UNK     0       5.675  -6.995  -9.926  0.00  0.00     0.013 A 
HETATM    5  C   UNK     0       4.505  -7.413  -9.262  0.00  0.00    -0.019 A 
HETATM    6  C   UNK     0       3.423  -7.933  -9.973  0.00  0.00    -0.043 A 
HETATM    7  C   UNK     0       4.177  -7.426  -7.913  0.00  0.00    -0.016 A 
HETATM    8  C   UNK     0       2.878  -7.934  -7.759  0.00  0.00    -0.031 A 
HETATM    9  C   UNK     0       2.305  -8.267  -9.083  0.00  0.00     0.080 A 
HETATM   10  C   UNK     0       4.956  -7.042  -6.810  0.00  0.00     0.042 A 
HETATM   11  C   UNK     0       4.419  -7.168  -5.509  0.00  0.00     0.036 A 
HETATM   12  C   UNK     0       3.118  -7.707  -5.359  0.00  0.00     0.043 A 
HETATM   13  C   UNK     0       2.314  -8.094  -6.466  0.00  0.00    -0.009 A 
ENDROOT
BRANCH  13  14
HETATM   14  C   UNK     0       1.010  -8.625  -6.235  0.00  0.00     0.015 A 
HETATM   15  C   UNK     0      -0.243  -8.082  -6.570  0.00  0.00     0.020 A 
HETATM   16  C   UNK     0      -1.371  -8.833  -6.199  0.00  0.00     0.008 A 
HETATM   17  C   UNK     0      -1.093 -10.020  -5.523  0.00  0.00     0.050 A 
HETATM   18  S   UNK     0       0.650 -10.132  -5.403  0.00  0.00    -0.101 SA
ENDBRANCH  13  14
BRANCH  11  19
HETATM   19  N   UNK     0       5.078  -6.820  -4.361  0.00  0.00    -0.327 N 
HETATM   20  C   UNK     0       4.965  -5.677  -3.621  0.00  0.00     0.223 C 
HETATM   21  O   UNK     0       4.163  -4.757  -3.908  0.00  0.00    -0.273 OA
HETATM   22  H   UNK     0       5.679  -7.492  -4.002  0.00  0.00     0.169 HD
BRANCH  20  23
HETATM   23  C   UNK     0       5.779  -5.524  -2.397  0.00  0.00     0.118 C 
BRANCH  23  24
HETATM   24  C   UNK     0       6.456  -6.850  -1.985  0.00  0.00     0.124 C 
HETATM   25 Cl   UNK     0       5.365  -7.827  -1.006  0.00  0.00    -0.130 Cl
ENDBRANCH  23  24
ENDBRANCH  20  23
ENDBRANCH  11  19
TORSDOF 4
ENDMDL
MODEL 7
REMARK VINA RESULT:      -5.8      3.638      5.873
REMARK  4 active torsions:
REMARK  status: ('A' for Active; 'I' for Inactive)
REMARK    1  A    between atoms: C_11  and  N_19 
REMARK    2  A    between atoms: C_13  and  C_14 
REMARK       I    between atoms: N_19  and  C_21 
REMARK    3  A    between atoms: C_21  and  C_22 
REMARK    4  A    between atoms: C_22  and  C_23 
ROOT
HETATM    1  C   UNK     0       4.645  -5.807  -3.040  0.00  0.00     0.008 A 
HETATM    2  C   UNK     0       5.827  -5.039  -2.996  0.00  0.00     0.001 A 
HETATM    3  C   UNK     0       6.572  -4.810  -4.173  0.00  0.00     0.001 A 
HETATM    4  C   UNK     0       6.140  -5.340  -5.407  0.00  0.00     0.013 A 
HETATM    5  C   UNK     0       4.952  -6.096  -5.438  0.00  0.00    -0.019 A 
HETATM    6  C   UNK     0       4.223  -6.336  -4.272  0.00  0.00    -0.043 A 
HETATM    7  C   UNK     0       4.284  -6.702  -6.493  0.00  0.00    -0.016 A 
HETATM    8  C   UNK     0       3.139  -7.348  -6.005  0.00  0.00    -0.031 A 
HETATM    9  C   UNK     0       3.046  -7.173  -4.537  0.00  0.00     0.080 A 
HETATM   10  C   UNK     0       4.605  -6.700  -7.860  0.00  0.00     0.042 A 
HETATM   11  C   UNK     0       3.755  -7.370  -8.769  0.00  0.00     0.036 A 
HETATM   12  C   UNK     0       2.586  -7.997  -8.272  0.00  0.00     0.043 A 
HETATM   13  C   UNK     0       2.251  -8.012  -6.891  0.00  0.00    -0.009 A 
ENDROOT
BRANCH  13  14
HETATM   14  C   UNK     0       1.058  -8.671  -6.466  0.00  0.00     0.015 A 
HETATM   15  C   UNK     0      -0.280  -8.256  -6.591  0.00  0.00     0.020 A 
HETATM   16  C   UNK     0      -1.255  -9.117  -6.059  0.00  0.00     0.008 A 
HETATM   17  C   UNK     0      -0.757 -10.269  -5.453  0.00  0.00     0.050 A 
HETATM   18  S   UNK     0       0.986 -10.206  -5.611  0.00  0.00    -0.101 SA
ENDBRANCH  13  14
BRANCH  11  19
HETATM   19  N   UNK     0       3.968  -7.445 -10.119  0.00  0.00    -0.327 N 
HETATM   20  C   UNK     0       4.785  -8.291 -10.812  0.00  0.00     0.223 C 
HETATM   21  O   UNK     0       5.465  -9.187 -10.257  0.00  0.00    -0.273 OA
HETATM   22  H   UNK     0       3.437  -6.839 -10.661  0.00  0.00     0.169 HD
BRANCH  20  23
HETATM   23  C   UNK     0       4.847  -8.194 -12.286  0.00  0.00     0.118 C 
BRANCH  23  24
HETATM   24  C   UNK     0       5.233  -6.773 -12.754  0.00  0.00     0.124 C 
HETATM   25 Cl   UNK     0       3.889  -6.012 -13.600  0.00  0.00    -0.130 Cl
ENDBRANCH  23  24
ENDBRANCH  20  23
ENDBRANCH  11  19
TORSDOF 4
ENDMDL
MODEL 8
REMARK VINA RESULT:      -5.8     10.219     11.185
REMARK  4 active torsions:
REMARK  status: ('A' for Active; 'I' for Inactive)
REMARK    1  A    between atoms: C_11  and  N_19 
REMARK    2  A    between atoms: C_13  and  C_14 
REMARK       I    between atoms: N_19  and  C_21 
REMARK    3  A    between atoms: C_21  and  C_22 
REMARK    4  A    between atoms: C_22  and  C_23 
ROOT
HETATM    1  C   UNK     0      -4.388   0.640  -5.018  0.00  0.00     0.008 A 
HETATM    2  C   UNK     0      -5.280   0.479  -3.938  0.00  0.00     0.001 A 
HETATM    3  C   UNK     0      -6.506  -0.198  -4.121  0.00  0.00     0.001 A 
HETATM    4  C   UNK     0      -6.849  -0.726  -5.383  0.00  0.00     0.013 A 
HETATM    5  C   UNK     0      -5.943  -0.568  -6.450  0.00  0.00    -0.019 A 
HETATM    6  C   UNK     0      -4.739   0.115  -6.275  0.00  0.00    -0.043 A 
HETATM    7  C   UNK     0      -6.001  -1.002  -7.768  0.00  0.00    -0.016 A 
HETATM    8  C   UNK     0      -4.846  -0.581  -8.444  0.00  0.00    -0.031 A 
HETATM    9  C   UNK     0      -3.975   0.187  -7.526  0.00  0.00     0.080 A 
HETATM   10  C   UNK     0      -6.993  -1.764  -8.404  0.00  0.00     0.042 A 
HETATM   11  C   UNK     0      -6.828  -2.116  -9.763  0.00  0.00     0.036 A 
HETATM   12  C   UNK     0      -5.646  -1.712 -10.431  0.00  0.00     0.043 A 
HETATM   13  C   UNK     0      -4.635  -0.935  -9.802  0.00  0.00    -0.009 A 
ENDROOT
BRANCH  13  14
HETATM   14  C   UNK     0      -3.474  -0.560 -10.544  0.00  0.00     0.015 A 
HETATM   15  C   UNK     0      -2.421  -1.364 -11.013  0.00  0.00     0.020 A 
HETATM   16  C   UNK     0      -1.394  -0.707 -11.711  0.00  0.00     0.008 A 
HETATM   17  C   UNK     0      -1.549   0.673 -11.827  0.00  0.00     0.050 A 
HETATM   18  S   UNK     0      -3.055   1.078 -11.030  0.00  0.00    -0.101 SA
ENDBRANCH  13  14
BRANCH  11  19
HETATM   19  N   UNK     0      -7.728  -2.846 -10.491  0.00  0.00    -0.327 N 
HETATM   20  C   UNK     0      -7.764  -4.195 -10.704  0.00  0.00     0.223 C 
HETATM   21  O   UNK     0      -6.934  -4.986 -10.196  0.00  0.00    -0.273 OA
HETATM   22  H   UNK     0      -8.462  -2.342 -10.876  0.00  0.00     0.169 HD
BRANCH  20  23
HETATM   23  C   UNK     0      -8.849  -4.770 -11.526  0.00  0.00     0.118 C 
BRANCH  23  24
HETATM   24  C   UNK     0      -9.699  -5.785 -10.730  0.00  0.00     0.124 C 
HETATM   25 Cl   UNK     0     -10.298  -5.060  -9.240  0.00  0.00    -0.130 Cl
ENDBRANCH  23  24
ENDBRANCH  20  23
ENDBRANCH  11  19
TORSDOF 4
ENDMDL
MODEL 9
REMARK VINA RESULT:      -5.6      3.056      4.927
REMARK  4 active torsions:
REMARK  status: ('A' for Active; 'I' for Inactive)
REMARK    1  A    between atoms: C_11  and  N_19 
REMARK    2  A    between atoms: C_13  and  C_14 
REMARK       I    between atoms: N_19  and  C_21 
REMARK    3  A    between atoms: C_21  and  C_22 
REMARK    4  A    between atoms: C_22  and  C_23 
ROOT
HETATM    1  C   UNK     0       8.864  -5.104  -6.103  0.00  0.00     0.008 A 
HETATM    2  C   UNK     0       8.772  -4.125  -7.113  0.00  0.00     0.001 A 
HETATM    3  C   UNK     0       7.542  -3.885  -7.763  0.00  0.00     0.001 A 
HETATM    4  C   UNK     0       6.390  -4.617  -7.406  0.00  0.00     0.013 A 
HETATM    5  C   UNK     0       6.494  -5.584  -6.388  0.00  0.00    -0.019 A 
HETATM    6  C   UNK     0       7.712  -5.833  -5.755  0.00  0.00    -0.043 A 
HETATM    7  C   UNK     0       5.538  -6.416  -5.820  0.00  0.00    -0.016 A 
HETATM    8  C   UNK     0       6.146  -7.214  -4.838  0.00  0.00    -0.031 A 
HETATM    9  C   UNK     0       7.591  -6.902  -4.757  0.00  0.00     0.080 A 
HETATM   10  C   UNK     0       4.164  -6.500  -6.093  0.00  0.00     0.042 A 
HETATM   11  C   UNK     0       3.370  -7.413  -5.364  0.00  0.00     0.036 A 
HETATM   12  C   UNK     0       3.984  -8.195  -4.355  0.00  0.00     0.043 A 
HETATM   13  C   UNK     0       5.376  -8.126  -4.070  0.00  0.00    -0.009 A 
ENDROOT
BRANCH  13  14
HETATM   14  C   UNK     0       5.924  -8.951  -3.042  0.00  0.00     0.015 A 
HETATM   15  C   UNK     0       6.243  -8.621  -1.713  0.00  0.00     0.020 A 
HETATM   16  C   UNK     0       6.788  -9.650  -0.927  0.00  0.00     0.008 A 
HETATM   17  C   UNK     0       6.960 -10.867  -1.584  0.00  0.00     0.050 A 
HETATM   18  S   UNK     0       6.385 -10.639  -3.222  0.00  0.00    -0.101 SA
ENDBRANCH  13  14
BRANCH  11  19
HETATM   19  N   UNK     0       2.025  -7.590  -5.546  0.00  0.00    -0.327 N 
HETATM   20  C   UNK     0       1.374  -8.207  -6.576  0.00  0.00     0.223 C 
HETATM   21  O   UNK     0       1.975  -8.754  -7.531  0.00  0.00    -0.273 OA
HETATM   22  H   UNK     0       1.458  -7.267  -4.827  0.00  0.00     0.169 HD
BRANCH  20  23
HETATM   23  C   UNK     0      -0.102  -8.289  -6.555  0.00  0.00     0.118 C 
BRANCH  23  24
HETATM   24  C   UNK     0      -0.606  -9.704  -6.914  0.00  0.00     0.124 C 
HETATM   25 Cl   UNK     0      -2.063  -9.613  -7.900  0.00  0.00    -0.130 Cl
ENDBRANCH  23  24
ENDBRANCH  20  23
ENDBRANCH  11  19
TORSDOF 4
ENDMDL
