MODEL 1
REMARK VINA RESULT:      -6.7      0.000      0.000
REMARK  4 active torsions:
REMARK  status: ('A' for Active; 'I' for Inactive)
REMARK    1  A    between atoms: C_11  and  N_14 
REMARK    2  A    between atoms: C_13  and  C_21 
REMARK       I    between atoms: N_14  and  C_15 
REMARK    3  A    between atoms: C_15  and  C_16 
REMARK    4  A    between atoms: C_16  and  C_17 
ROOT
HETATM    1  C   UNK     0       5.798  -6.585  -9.457  0.00  0.00     0.008 A 
HETATM    2  C   UNK     0       5.378  -6.928 -10.759  0.00  0.00     0.001 A 
HETATM    3  C   UNK     0       4.172  -7.635 -10.957  0.00  0.00     0.001 A 
HETATM    4  C   UNK     0       3.380  -8.016  -9.855  0.00  0.00     0.013 A 
HETATM    5  C   UNK     0       3.815  -7.672  -8.560  0.00  0.00    -0.019 A 
HETATM    6  C   UNK     0       5.002  -6.965  -8.359  0.00  0.00    -0.043 A 
HETATM    7  C   UNK     0       3.244  -7.914  -7.315  0.00  0.00    -0.016 A 
HETATM    8  C   UNK     0       4.065  -7.372  -6.319  0.00  0.00    -0.032 A 
HETATM    9  C   UNK     0       5.248  -6.718  -6.928  0.00  0.00     0.080 A 
HETATM   10  C   UNK     0       2.038  -8.563  -6.999  0.00  0.00     0.042 A 
HETATM   11  C   UNK     0       1.639  -8.673  -5.646  0.00  0.00     0.036 A 
HETATM   12  C   UNK     0       2.468  -8.115  -4.641  0.00  0.00     0.042 A 
HETATM   13  C   UNK     0       3.695  -7.468  -4.951  0.00  0.00    -0.016 A 
ENDROOT
BRANCH  13  14
HETATM   14  C   UNK     0       4.503  -6.930  -3.912  0.00  0.00    -0.023 A 
HETATM   15  C   UNK     0       5.144  -7.777  -2.974  0.00  0.00     0.029 A 
HETATM   16  C   UNK     0       5.959  -7.220  -1.973  0.00  0.00     0.088 A 
HETATM   17  N   UNK     0       6.112  -5.874  -1.894  0.00  0.00    -0.375 N 
HETATM   18  C   UNK     0       5.497  -5.023  -2.755  0.00  0.00     0.088 A 
HETATM   19  HN  UNK     0       6.709  -5.489  -1.163  1.00  0.00     0.164 HD
HETATM   20  C   UNK     0       4.677  -5.531  -3.781  0.00  0.00     0.029 A 
ENDBRANCH  13  14
BRANCH  11  21
HETATM   21  N   UNK     0       0.454  -9.244  -5.263  0.00  0.00    -0.327 N 
HETATM   22  C   UNK     0      -0.814  -8.760  -5.430  0.00  0.00     0.223 C 
HETATM   23  O   UNK     0      -1.061  -7.751  -6.134  0.00  0.00    -0.273 OA
HETATM   24  H   UNK     0       0.520 -10.110  -4.829  0.00  0.00     0.169 HD
BRANCH  22  25
HETATM   25  C   UNK     0      -1.945  -9.450  -4.773  0.00  0.00     0.118 C 
BRANCH  25  26
HETATM   26  C   UNK     0      -3.092  -9.731  -5.775  0.00  0.00     0.124 C 
HETATM   27 Cl   UNK     0      -4.486 -10.436  -4.964  0.00  0.00    -0.130 Cl
ENDBRANCH  25  26
ENDBRANCH  22  25
ENDBRANCH  11  21
TORSDOF 4
ENDMDL
MODEL 2
REMARK VINA RESULT:      -6.7     10.338     12.089
REMARK  4 active torsions:
REMARK  status: ('A' for Active; 'I' for Inactive)
REMARK    1  A    between atoms: C_11  and  N_14 
REMARK    2  A    between atoms: C_13  and  C_21 
REMARK       I    between atoms: N_14  and  C_15 
REMARK    3  A    between atoms: C_15  and  C_16 
REMARK    4  A    between atoms: C_16  and  C_17 
ROOT
HETATM    1  C   UNK     0      -7.912  -4.361  -9.274  0.00  0.00     0.008 A 
HETATM    2  C   UNK     0      -7.982  -4.985 -10.536  0.00  0.00     0.001 A 
HETATM    3  C   UNK     0      -7.144  -4.562 -11.590  0.00  0.00     0.001 A 
HETATM    4  C   UNK     0      -6.236  -3.502 -11.396  0.00  0.00     0.013 A 
HETATM    5  C   UNK     0      -6.180  -2.883 -10.132  0.00  0.00    -0.019 A 
HETATM    6  C   UNK     0      -7.001  -3.304  -9.083  0.00  0.00    -0.043 A 
HETATM    7  C   UNK     0      -5.394  -1.834  -9.666  0.00  0.00    -0.016 A 
HETATM    8  C   UNK     0      -5.713  -1.578  -8.327  0.00  0.00    -0.032 A 
HETATM    9  C   UNK     0      -6.765  -2.514  -7.863  0.00  0.00     0.080 A 
HETATM   10  C   UNK     0      -4.399  -1.101 -10.336  0.00  0.00     0.042 A 
HETATM   11  C   UNK     0      -3.702  -0.081  -9.647  0.00  0.00     0.036 A 
HETATM   12  C   UNK     0      -4.021   0.170  -8.289  0.00  0.00     0.042 A 
HETATM   13  C   UNK     0      -5.034  -0.559  -7.608  0.00  0.00    -0.016 A 
ENDROOT
BRANCH  13  14
HETATM   14  C   UNK     0      -5.332  -0.270  -6.248  0.00  0.00    -0.023 A 
HETATM   15  C   UNK     0      -4.355   0.292  -5.391  0.00  0.00     0.029 A 
HETATM   16  C   UNK     0      -4.685   0.592  -4.058  0.00  0.00     0.088 A 
HETATM   17  N   UNK     0      -5.929   0.324  -3.590  0.00  0.00    -0.375 N 
HETATM   18  C   UNK     0      -6.891  -0.237  -4.368  0.00  0.00     0.088 A 
HETATM   19  HN  UNK     0      -6.151   0.551  -2.621  1.00  0.00     0.164 HD
HETATM   20  C   UNK     0      -6.613  -0.550  -5.713  0.00  0.00     0.029 A 
ENDBRANCH  13  14
BRANCH  11  21
HETATM   21  N   UNK     0      -2.684   0.640 -10.215  0.00  0.00    -0.327 N 
HETATM   22  C   UNK     0      -1.541   0.175 -10.803  0.00  0.00     0.223 C 
HETATM   23  O   UNK     0      -1.356  -1.042 -11.045  0.00  0.00    -0.273 OA
HETATM   24  H   UNK     0      -2.794   1.605 -10.212  0.00  0.00     0.169 HD
BRANCH  22  25
HETATM   25  C   UNK     0      -0.482   1.134 -11.188  0.00  0.00     0.118 C 
BRANCH  25  26
HETATM   26  C   UNK     0       0.908   0.669 -10.690  0.00  0.00     0.124 C 
HETATM   27 Cl   UNK     0       1.942   2.043 -10.315  0.00  0.00    -0.130 Cl
ENDBRANCH  25  26
ENDBRANCH  22  25
ENDBRANCH  11  21
TORSDOF 4
ENDMDL
MODEL 3
REMARK VINA RESULT:      -6.5     17.698     21.148
REMARK  4 active torsions:
REMARK  status: ('A' for Active; 'I' for Inactive)
REMARK    1  A    between atoms: C_11  and  N_14 
REMARK    2  A    between atoms: C_13  and  C_21 
REMARK       I    between atoms: N_14  and  C_15 
REMARK    3  A    between atoms: C_15  and  C_16 
REMARK    4  A    between atoms: C_16  and  C_17 
ROOT
HETATM    1  C   UNK     0       1.973   5.385   6.254  0.00  0.00     0.008 A 
HETATM    2  C   UNK     0       2.719   4.386   5.595  0.00  0.00     0.001 A 
HETATM    3  C   UNK     0       3.405   4.678   4.397  0.00  0.00     0.001 A 
HETATM    4  C   UNK     0       3.341   5.970   3.837  0.00  0.00     0.013 A 
HETATM    5  C   UNK     0       2.587   6.958   4.502  0.00  0.00    -0.019 A 
HETATM    6  C   UNK     0       1.915   6.676   5.693  0.00  0.00    -0.043 A 
HETATM    7  C   UNK     0       2.355   8.292   4.184  0.00  0.00    -0.016 A 
HETATM    8  C   UNK     0       1.531   8.861   5.163  0.00  0.00    -0.032 A 
HETATM    9  C   UNK     0       1.200   7.858   6.203  0.00  0.00     0.080 A 
HETATM   10  C   UNK     0       2.837   9.047   3.101  0.00  0.00     0.042 A 
HETATM   11  C   UNK     0       2.485  10.413   2.992  0.00  0.00     0.036 A 
HETATM   12  C   UNK     0       1.658  10.989   3.988  0.00  0.00     0.042 A 
HETATM   13  C   UNK     0       1.157  10.230   5.081  0.00  0.00    -0.016 A 
ENDROOT
BRANCH  13  14
HETATM   14  C   UNK     0       0.321  10.842   6.055  0.00  0.00    -0.023 A 
HETATM   15  C   UNK     0      -1.079  10.932   5.861  0.00  0.00     0.029 A 
HETATM   16  C   UNK     0      -1.885  11.519   6.852  0.00  0.00     0.088 A 
HETATM   17  N   UNK     0      -1.318  12.017   7.979  0.00  0.00    -0.375 N 
HETATM   18  C   UNK     0       0.021  11.975   8.197  0.00  0.00     0.088 A 
HETATM   19  HN  UNK     0      -1.919  12.437   8.689  1.00  0.00     0.164 HD
HETATM   20  C   UNK     0       0.871  11.390   7.239  0.00  0.00     0.029 A 
ENDBRANCH  13  14
BRANCH  11  21
HETATM   21  N   UNK     0       2.958  11.226   1.995  0.00  0.00    -0.327 N 
HETATM   22  C   UNK     0       4.160  11.873   1.926  0.00  0.00     0.223 C 
HETATM   23  O   UNK     0       5.087  11.657   2.744  0.00  0.00    -0.273 OA
HETATM   24  H   UNK     0       2.369  11.349   1.232  0.00  0.00     0.169 HD
BRANCH  22  25
HETATM   25  C   UNK     0       4.394  12.853   0.844  0.00  0.00     0.118 C 
BRANCH  25  26
HETATM   26  C   UNK     0       3.344  12.710  -0.284  0.00  0.00     0.124 C 
HETATM   27 Cl   UNK     0       3.905  11.613  -1.541  0.00  0.00    -0.130 Cl
ENDBRANCH  25  26
ENDBRANCH  22  25
ENDBRANCH  11  21
TORSDOF 4
ENDMDL
MODEL 4
REMARK VINA RESULT:      -6.5     10.638     13.006
REMARK  4 active torsions:
REMARK  status: ('A' for Active; 'I' for Inactive)
REMARK    1  A    between atoms: C_11  and  N_14 
REMARK    2  A    between atoms: C_13  and  C_21 
REMARK       I    between atoms: N_14  and  C_15 
REMARK    3  A    between atoms: C_15  and  C_16 
REMARK    4  A    between atoms: C_16  and  C_17 
ROOT
HETATM    1  C   UNK     0      -6.504  -1.224  -5.430  0.00  0.00     0.008 A 
HETATM    2  C   UNK     0      -6.052  -0.490  -4.313  0.00  0.00     0.001 A 
HETATM    3  C   UNK     0      -4.966   0.403  -4.436  0.00  0.00     0.001 A 
HETATM    4  C   UNK     0      -4.313   0.563  -5.674  0.00  0.00     0.013 A 
HETATM    5  C   UNK     0      -4.769  -0.181  -6.780  0.00  0.00    -0.019 A 
HETATM    6  C   UNK     0      -5.850  -1.059  -6.666  0.00  0.00    -0.043 A 
HETATM    7  C   UNK     0      -4.323  -0.221  -8.097  0.00  0.00    -0.016 A 
HETATM    8  C   UNK     0      -5.107  -1.126  -8.822  0.00  0.00    -0.032 A 
HETATM    9  C   UNK     0      -6.147  -1.719  -7.948  0.00  0.00     0.080 A 
HETATM   10  C   UNK     0      -3.284   0.502  -8.707  0.00  0.00     0.042 A 
HETATM   11  C   UNK     0      -3.019   0.315 -10.084  0.00  0.00     0.036 A 
HETATM   12  C   UNK     0      -3.820  -0.595 -10.818  0.00  0.00     0.042 A 
HETATM   13  C   UNK     0      -4.866  -1.338 -10.206  0.00  0.00    -0.016 A 
ENDROOT
BRANCH  13  14
HETATM   14  C   UNK     0      -5.641  -2.250 -10.975  0.00  0.00    -0.023 A 
HETATM   15  C   UNK     0      -5.226  -3.593 -11.149  0.00  0.00     0.029 A 
HETATM   16  C   UNK     0      -6.024  -4.480 -11.892  0.00  0.00     0.088 A 
HETATM   17  N   UNK     0      -7.177  -4.043 -12.457  0.00  0.00    -0.375 N 
HETATM   18  C   UNK     0      -7.603  -2.759 -12.337  0.00  0.00     0.088 A 
HETATM   19  HN  UNK     0      -7.745  -4.702 -12.990  1.00  0.00     0.164 HD
HETATM   20  C   UNK     0      -6.843  -1.833 -11.596  0.00  0.00     0.029 A 
ENDBRANCH  13  14
BRANCH  11  21
HETATM   21  N   UNK     0      -2.059   1.021 -10.761  0.00  0.00    -0.327 N 
HETATM   22  C   UNK     0      -0.781   0.641 -11.063  0.00  0.00     0.223 C 
HETATM   23  O   UNK     0      -0.368  -0.530 -10.882  0.00  0.00    -0.273 OA
HETATM   24  H   UNK     0      -2.323   1.901 -11.077  0.00  0.00     0.169 HD
BRANCH  22  25
HETATM   25  C   UNK     0       0.153   1.633 -11.638  0.00  0.00     0.118 C 
BRANCH  25  26
HETATM   26  C   UNK     0       1.627   1.249 -11.358  0.00  0.00     0.124 C 
HETATM   27 Cl   UNK     0       2.062   1.578  -9.685  0.00  0.00    -0.130 Cl
ENDBRANCH  25  26
ENDBRANCH  22  25
ENDBRANCH  11  21
TORSDOF 4
ENDMDL
MODEL 5
REMARK VINA RESULT:      -6.4     10.889     11.218
REMARK  4 active torsions:
REMARK  status: ('A' for Active; 'I' for Inactive)
REMARK    1  A    between atoms: C_11  and  N_14 
REMARK    2  A    between atoms: C_13  and  C_21 
REMARK       I    between atoms: N_14  and  C_15 
REMARK    3  A    between atoms: C_15  and  C_16 
REMARK    4  A    between atoms: C_16  and  C_17 
ROOT
HETATM    1  C   UNK     0      -2.921   1.144 -10.644  0.00  0.00     0.008 A 
HETATM    2  C   UNK     0      -2.603   0.899 -11.997  0.00  0.00     0.001 A 
HETATM    3  C   UNK     0      -3.141  -0.220 -12.666  0.00  0.00     0.001 A 
HETATM    4  C   UNK     0      -3.993  -1.114 -11.988  0.00  0.00     0.013 A 
HETATM    5  C   UNK     0      -4.298  -0.863 -10.636  0.00  0.00    -0.019 A 
HETATM    6  C   UNK     0      -3.776   0.250  -9.971  0.00  0.00    -0.043 A 
HETATM    7  C   UNK     0      -5.096  -1.562  -9.737  0.00  0.00    -0.016 A 
HETATM    8  C   UNK     0      -5.080  -0.908  -8.499  0.00  0.00    -0.032 A 
HETATM    9  C   UNK     0      -4.233   0.307  -8.572  0.00  0.00     0.080 A 
HETATM   10  C   UNK     0      -5.854  -2.728  -9.940  0.00  0.00     0.042 A 
HETATM   11  C   UNK     0      -6.620  -3.257  -8.874  0.00  0.00     0.036 A 
HETATM   12  C   UNK     0      -6.608  -2.587  -7.625  0.00  0.00     0.042 A 
HETATM   13  C   UNK     0      -5.836  -1.414  -7.408  0.00  0.00    -0.016 A 
ENDROOT
BRANCH  13  14
HETATM   14  C   UNK     0      -5.843  -0.777  -6.137  0.00  0.00    -0.023 A 
HETATM   15  C   UNK     0      -7.020  -0.730  -5.351  0.00  0.00     0.029 A 
HETATM   16  C   UNK     0      -6.992  -0.116  -4.087  0.00  0.00     0.088 A 
HETATM   17  N   UNK     0      -5.845   0.446  -3.631  0.00  0.00    -0.375 N 
HETATM   18  C   UNK     0      -4.698   0.446  -4.359  0.00  0.00     0.088 A 
HETATM   19  HN  UNK     0      -5.843   0.884  -2.710  1.00  0.00     0.164 HD
HETATM   20  C   UNK     0      -4.672  -0.162  -5.629  0.00  0.00     0.029 A 
ENDBRANCH  13  14
BRANCH  11  21
HETATM   21  N   UNK     0      -7.424  -4.358  -9.010  0.00  0.00    -0.327 N 
HETATM   22  C   UNK     0      -8.767  -4.402  -9.259  0.00  0.00     0.223 C 
HETATM   23  O   UNK     0      -9.427  -3.380  -9.567  0.00  0.00    -0.273 OA
HETATM   24  H   UNK     0      -6.982  -5.219  -8.931  0.00  0.00     0.169 HD
BRANCH  22  25
HETATM   25  C   UNK     0      -9.477  -5.697  -9.181  0.00  0.00     0.118 C 
BRANCH  25  26
HETATM   26  C   UNK     0     -10.095  -5.918  -7.779  0.00  0.00     0.124 C 
HETATM   27 Cl   UNK     0     -11.693  -5.189  -7.666  0.00  0.00    -0.130 Cl
ENDBRANCH  25  26
ENDBRANCH  22  25
ENDBRANCH  11  21
TORSDOF 4
ENDMDL
MODEL 6
REMARK VINA RESULT:      -6.4      1.902      5.043
REMARK  4 active torsions:
REMARK  status: ('A' for Active; 'I' for Inactive)
REMARK    1  A    between atoms: C_11  and  N_14 
REMARK    2  A    between atoms: C_13  and  C_21 
REMARK       I    between atoms: N_14  and  C_15 
REMARK    3  A    between atoms: C_15  and  C_16 
REMARK    4  A    between atoms: C_16  and  C_17 
ROOT
HETATM    1  C   UNK     0       6.389  -5.079  -5.031  0.00  0.00     0.008 A 
HETATM    2  C   UNK     0       6.247  -4.596  -3.713  0.00  0.00     0.001 A 
HETATM    3  C   UNK     0       5.152  -4.999  -2.919  0.00  0.00     0.001 A 
HETATM    4  C   UNK     0       4.181  -5.879  -3.438  0.00  0.00     0.013 A 
HETATM    5  C   UNK     0       4.331  -6.349  -4.757  0.00  0.00    -0.019 A 
HETATM    6  C   UNK     0       5.418  -5.961  -5.544  0.00  0.00    -0.043 A 
HETATM    7  C   UNK     0       3.542  -7.210  -5.512  0.00  0.00    -0.016 A 
HETATM    8  C   UNK     0       4.114  -7.368  -6.780  0.00  0.00    -0.032 A 
HETATM    9  C   UNK     0       5.365  -6.579  -6.880  0.00  0.00     0.080 A 
HETATM   10  C   UNK     0       2.362  -7.882  -5.151  0.00  0.00     0.042 A 
HETATM   11  C   UNK     0       1.733  -8.739  -6.086  0.00  0.00     0.036 A 
HETATM   12  C   UNK     0       2.320  -8.903  -7.365  0.00  0.00     0.042 A 
HETATM   13  C   UNK     0       3.508  -8.219  -7.742  0.00  0.00    -0.016 A 
ENDROOT
BRANCH  13  14
HETATM   14  C   UNK     0       4.059  -8.403  -9.040  0.00  0.00    -0.023 A 
HETATM   15  C   UNK     0       5.138  -9.295  -9.254  0.00  0.00     0.029 A 
HETATM   16  C   UNK     0       5.647  -9.477 -10.551  0.00  0.00     0.088 A 
HETATM   17  N   UNK     0       5.118  -8.784 -11.590  0.00  0.00    -0.375 N 
HETATM   18  C   UNK     0       4.100  -7.900 -11.429  0.00  0.00     0.088 A 
HETATM   19  HN  UNK     0       5.498  -8.931 -12.525  1.00  0.00     0.164 HD
HETATM   20  C   UNK     0       3.550  -7.687 -10.150  0.00  0.00     0.029 A 
ENDBRANCH  13  14
BRANCH  11  21
HETATM   21  N   UNK     0       0.611  -9.468  -5.790  0.00  0.00    -0.327 N 
HETATM   22  C   UNK     0      -0.684  -9.038  -5.713  0.00  0.00     0.223 C 
HETATM   23  O   UNK     0      -1.034  -7.890  -6.080  0.00  0.00    -0.273 OA
HETATM   24  H   UNK     0       0.751 -10.415  -5.627  0.00  0.00     0.169 HD
BRANCH  22  25
HETATM   25  C   UNK     0      -1.722  -9.955  -5.194  0.00  0.00     0.118 C 
BRANCH  25  26
HETATM   26  C   UNK     0      -2.802  -9.188  -4.392  0.00  0.00     0.124 C 
HETATM   27 Cl   UNK     0      -4.283 -10.130  -4.256  0.00  0.00    -0.130 Cl
ENDBRANCH  25  26
ENDBRANCH  22  25
ENDBRANCH  11  21
TORSDOF 4
ENDMDL
MODEL 7
REMARK VINA RESULT:      -6.3      4.019      6.435
REMARK  4 active torsions:
REMARK  status: ('A' for Active; 'I' for Inactive)
REMARK    1  A    between atoms: C_11  and  N_14 
REMARK    2  A    between atoms: C_13  and  C_21 
REMARK       I    between atoms: N_14  and  C_15 
REMARK    3  A    between atoms: C_15  and  C_16 
REMARK    4  A    between atoms: C_16  and  C_17 
ROOT
HETATM    1  C   UNK     0       0.518  -9.187  -5.155  0.00  0.00     0.008 A 
HETATM    2  C   UNK     0      -0.289  -9.715  -6.185  0.00  0.00     0.001 A 
HETATM    3  C   UNK     0       0.094  -9.573  -7.536  0.00  0.00     0.001 A 
HETATM    4  C   UNK     0       1.281  -8.893  -7.873  0.00  0.00     0.013 A 
HETATM    5  C   UNK     0       2.075  -8.365  -6.835  0.00  0.00    -0.019 A 
HETATM    6  C   UNK     0       1.705  -8.510  -5.496  0.00  0.00    -0.043 A 
HETATM    7  C   UNK     0       3.274  -7.661  -6.874  0.00  0.00    -0.016 A 
HETATM    8  C   UNK     0       3.668  -7.349  -5.568  0.00  0.00    -0.032 A 
HETATM    9  C   UNK     0       2.686  -7.883  -4.594  0.00  0.00     0.080 A 
HETATM   10  C   UNK     0       4.054  -7.293  -7.983  0.00  0.00     0.042 A 
HETATM   11  C   UNK     0       5.266  -6.591  -7.782  0.00  0.00     0.036 A 
HETATM   12  C   UNK     0       5.667  -6.284  -6.457  0.00  0.00     0.042 A 
HETATM   13  C   UNK     0       4.878  -6.643  -5.330  0.00  0.00    -0.016 A 
ENDROOT
BRANCH  13  14
HETATM   14  C   UNK     0       5.310  -6.308  -4.018  0.00  0.00    -0.023 A 
HETATM   15  C   UNK     0       5.525  -4.959  -3.644  0.00  0.00     0.029 A 
HETATM   16  C   UNK     0       5.927  -4.654  -2.332  0.00  0.00     0.088 A 
HETATM   17  N   UNK     0       6.127  -5.652  -1.434  0.00  0.00    -0.375 N 
HETATM   18  C   UNK     0       5.957  -6.960  -1.755  0.00  0.00     0.088 A 
HETATM   19  HN  UNK     0       6.416  -5.411  -0.486  1.00  0.00     0.164 HD
HETATM   20  C   UNK     0       5.547  -7.318  -3.054  0.00  0.00     0.029 A 
ENDBRANCH  13  14
BRANCH  11  21
HETATM   21  N   UNK     0       6.106  -6.245  -8.808  0.00  0.00    -0.327 N 
HETATM   22  C   UNK     0       7.171  -6.943  -9.304  0.00  0.00     0.223 C 
HETATM   23  O   UNK     0       7.419  -8.124  -8.961  0.00  0.00    -0.273 OA
HETATM   24  H   UNK     0       5.913  -5.400  -9.247  0.00  0.00     0.169 HD
BRANCH  22  25
HETATM   25  C   UNK     0       8.060  -6.299 -10.295  0.00  0.00     0.118 C 
BRANCH  25  26
HETATM   26  C   UNK     0       8.915  -5.183  -9.645  0.00  0.00     0.124 C 
HETATM   27 Cl   UNK     0       9.512  -5.678  -8.065  0.00  0.00    -0.130 Cl
ENDBRANCH  25  26
ENDBRANCH  22  25
ENDBRANCH  11  21
TORSDOF 4
ENDMDL
MODEL 8
REMARK VINA RESULT:      -6.3      2.760      4.280
REMARK  4 active torsions:
REMARK  status: ('A' for Active; 'I' for Inactive)
REMARK    1  A    between atoms: C_11  and  N_14 
REMARK    2  A    between atoms: C_13  and  C_21 
REMARK       I    between atoms: N_14  and  C_15 
REMARK    3  A    between atoms: C_15  and  C_16 
REMARK    4  A    between atoms: C_16  and  C_17 
ROOT
HETATM    1  C   UNK     0       6.011 -11.970  -3.909  0.00  0.00     0.008 A 
HETATM    2  C   UNK     0       5.841 -13.370  -3.948  0.00  0.00     0.001 A 
HETATM    3  C   UNK     0       4.613 -13.929  -4.362  0.00  0.00     0.001 A 
HETATM    4  C   UNK     0       3.538 -13.095  -4.729  0.00  0.00     0.013 A 
HETATM    5  C   UNK     0       3.718 -11.699  -4.679  0.00  0.00    -0.019 A 
HETATM    6  C   UNK     0       4.935 -11.140  -4.280  0.00  0.00    -0.043 A 
HETATM    7  C   UNK     0       2.847 -10.657  -4.980  0.00  0.00    -0.016 A 
HETATM    8  C   UNK     0       3.498  -9.436  -4.768  0.00  0.00    -0.032 A 
HETATM    9  C   UNK     0       4.889  -9.669  -4.310  0.00  0.00     0.080 A 
HETATM   10  C   UNK     0       1.524 -10.711  -5.449  0.00  0.00     0.042 A 
HETATM   11  C   UNK     0       0.828  -9.508  -5.714  0.00  0.00     0.036 A 
HETATM   12  C   UNK     0       1.493  -8.273  -5.507  0.00  0.00     0.042 A 
HETATM   13  C   UNK     0       2.828  -8.210  -5.022  0.00  0.00    -0.016 A 
ENDROOT
BRANCH  13  14
HETATM   14  C   UNK     0       3.456  -6.951  -4.817  0.00  0.00    -0.023 A 
HETATM   15  C   UNK     0       4.181  -6.320  -5.857  0.00  0.00     0.029 A 
HETATM   16  C   UNK     0       4.771  -5.063  -5.634  0.00  0.00     0.088 A 
HETATM   17  N   UNK     0       4.661  -4.468  -4.420  0.00  0.00    -0.375 N 
HETATM   18  C   UNK     0       3.996  -5.046  -3.386  0.00  0.00     0.088 A 
HETATM   19  HN  UNK     0       5.093  -3.555  -4.278  1.00  0.00     0.164 HD
HETATM   20  C   UNK     0       3.382  -6.302  -3.561  0.00  0.00     0.029 A 
ENDBRANCH  13  14
BRANCH  11  21
HETATM   21  N   UNK     0      -0.444  -9.479  -6.223  0.00  0.00    -0.327 N 
HETATM   22  C   UNK     0      -1.627  -9.395  -5.544  0.00  0.00     0.223 C 
HETATM   23  O   UNK     0      -1.680  -9.162  -4.312  0.00  0.00    -0.273 OA
HETATM   24  H   UNK     0      -0.515  -9.511  -7.191  0.00  0.00     0.169 HD
BRANCH  22  25
HETATM   25  C   UNK     0      -2.899  -9.569  -6.279  0.00  0.00     0.118 C 
BRANCH  25  26
HETATM   26  C   UNK     0      -3.647 -10.844  -5.819  0.00  0.00     0.124 C 
HETATM   27 Cl   UNK     0      -5.049 -10.439  -4.835  0.00  0.00    -0.130 Cl
ENDBRANCH  25  26
ENDBRANCH  22  25
ENDBRANCH  11  21
TORSDOF 4
ENDMDL
MODEL 9
REMARK VINA RESULT:      -6.2      5.068      7.362
REMARK  4 active torsions:
REMARK  status: ('A' for Active; 'I' for Inactive)
REMARK    1  A    between atoms: C_11  and  N_14 
REMARK    2  A    between atoms: C_13  and  C_21 
REMARK       I    between atoms: N_14  and  C_15 
REMARK    3  A    between atoms: C_15  and  C_16 
REMARK    4  A    between atoms: C_16  and  C_17 
ROOT
HETATM    1  C   UNK     0       2.669  -8.551  -7.674  0.00  0.00     0.008 A 
HETATM    2  C   UNK     0       2.380  -8.838  -9.024  0.00  0.00     0.001 A 
HETATM    3  C   UNK     0       3.225  -8.367 -10.051  0.00  0.00     0.001 A 
HETATM    4  C   UNK     0       4.362  -7.593  -9.740  0.00  0.00     0.013 A 
HETATM    5  C   UNK     0       4.635  -7.308  -8.388  0.00  0.00    -0.019 A 
HETATM    6  C   UNK     0       3.807  -7.781  -7.367  0.00  0.00    -0.043 A 
HETATM    7  C   UNK     0       5.667  -6.584  -7.801  0.00  0.00    -0.016 A 
HETATM    8  C   UNK     0       5.498  -6.584  -6.411  0.00  0.00    -0.032 A 
HETATM    9  C   UNK     0       4.292  -7.362  -6.041  0.00  0.00     0.080 A 
HETATM   10  C   UNK     0       6.759  -5.939  -8.407  0.00  0.00     0.042 A 
HETATM   11  C   UNK     0       7.712  -5.274  -7.600  0.00  0.00     0.036 A 
HETATM   12  C   UNK     0       7.543  -5.283  -6.193  0.00  0.00     0.042 A 
HETATM   13  C   UNK     0       6.435  -5.923  -5.573  0.00  0.00    -0.016 A 
ENDROOT
BRANCH  13  14
HETATM   14  C   UNK     0       6.296  -5.901  -4.157  0.00  0.00    -0.023 A 
HETATM   15  C   UNK     0       6.259  -7.103  -3.409  0.00  0.00     0.029 A 
HETATM   16  C   UNK     0       6.146  -7.051  -2.009  0.00  0.00     0.088 A 
HETATM   17  N   UNK     0       6.053  -5.852  -1.381  0.00  0.00    -0.375 N 
HETATM   18  C   UNK     0       6.059  -4.675  -2.058  0.00  0.00     0.088 A 
HETATM   19  HN  UNK     0       5.975  -5.834  -0.364  1.00  0.00     0.164 HD
HETATM   20  C   UNK     0       6.178  -4.673  -3.462  0.00  0.00     0.029 A 
ENDBRANCH  13  14
BRANCH  11  21
HETATM   21  N   UNK     0       8.830  -4.669  -8.113  0.00  0.00    -0.327 N 
HETATM   22  C   UNK     0       8.971  -3.384  -8.556  0.00  0.00     0.223 C 
HETATM   23  O   UNK     0       8.083  -2.513  -8.387  0.00  0.00    -0.273 OA
HETATM   24  H   UNK     0       9.628  -5.220  -8.156  0.00  0.00     0.169 HD
BRANCH  22  25
HETATM   25  C   UNK     0      10.218  -2.989  -9.247  0.00  0.00     0.118 C 
BRANCH  25  26
HETATM   26  C   UNK     0      10.275  -1.458  -9.476  0.00  0.00     0.124 C 
HETATM   27 Cl   UNK     0      10.882  -0.624  -8.050  0.00  0.00    -0.130 Cl
ENDBRANCH  25  26
ENDBRANCH  22  25
ENDBRANCH  11  21
TORSDOF 4
ENDMDL
