MODEL 1
REMARK VINA RESULT:      -7.1      0.000      0.000
REMARK  2 active torsions:
REMARK  status: ('A' for Active; 'I' for Inactive)
REMARK    1  A    between atoms: C_10  and  C_17 
REMARK    2  A    between atoms: C_12  and  N_14 
ROOT
HETATM    1  C   UNK     0       2.716  -7.540  -4.585  0.00  0.00     0.013 A 
HETATM    2  C   UNK     0       1.868  -8.283  -5.433  0.00  0.00     0.001 A 
HETATM    3  C   UNK     0       2.127  -8.356  -6.820  0.00  0.00     0.001 A 
HETATM    4  C   UNK     0       3.232  -7.680  -7.377  0.00  0.00     0.008 A 
HETATM    5  C   UNK     0       4.073  -6.939  -6.524  0.00  0.00    -0.043 A 
HETATM    6  C   UNK     0       3.819  -6.870  -5.150  0.00  0.00    -0.019 A 
HETATM    7  C   UNK     0       5.270  -6.171  -6.887  0.00  0.00     0.080 A 
HETATM    8  C   UNK     0       5.691  -5.657  -5.565  0.00  0.00    -0.032 A 
HETATM    9  C   UNK     0       4.799  -6.070  -4.566  0.00  0.00    -0.016 A 
HETATM   10  C   UNK     0       6.797  -4.825  -5.252  0.00  0.00    -0.016 A 
HETATM   11  C   UNK     0       6.937  -4.390  -3.909  0.00  0.00     0.042 A 
HETATM   12  C   UNK     0       6.016  -4.781  -2.911  0.00  0.00     0.027 A 
HETATM   13  C   UNK     0       4.949  -5.646  -3.233  0.00  0.00     0.042 A 
ENDROOT
BRANCH  10  14
HETATM   14  C   UNK     0       7.719  -4.400  -6.248  0.00  0.00    -0.023 A 
HETATM   15  C   UNK     0       9.073  -4.798  -6.188  0.00  0.00     0.029 A 
HETATM   16  C   UNK     0       9.984  -4.332  -7.154  0.00  0.00     0.090 A 
HETATM   17  N   UNK     0       9.582  -3.496  -8.162  0.00  0.00    -0.371 N 
HETATM   18  C   UNK     0       8.269  -3.115  -8.249  0.00  0.00     0.090 A 
HETATM   19  C   UNK     0      10.533  -3.044  -9.147  0.00  0.00     0.154 C 
HETATM   20  C   UNK     0       7.319  -3.563  -7.313  0.00  0.00     0.029 A 
ENDBRANCH  10  14
BRANCH  12  21
HETATM   21  N   UNK     0       6.143  -4.312  -1.653  0.00  0.00    -0.399 N 
HETATM   22  H   UNK     0       6.108  -4.924  -0.899  0.00  0.00     0.156 HD
HETATM   23  H   UNK     0       6.276  -3.364  -1.497  0.00  0.00     0.156 HD
ENDBRANCH  12  21
TORSDOF 2
ENDMDL
MODEL 2
REMARK VINA RESULT:      -6.9      2.149      6.183
REMARK  2 active torsions:
REMARK  status: ('A' for Active; 'I' for Inactive)
REMARK    1  A    between atoms: C_10  and  C_17 
REMARK    2  A    between atoms: C_12  and  N_14 
ROOT
HETATM    1  C   UNK     0       8.315  -3.933  -6.611  0.00  0.00     0.013 A 
HETATM    2  C   UNK     0       8.862  -3.960  -7.911  0.00  0.00     0.001 A 
HETATM    3  C   UNK     0       8.446  -4.935  -8.843  0.00  0.00     0.001 A 
HETATM    4  C   UNK     0       7.483  -5.902  -8.485  0.00  0.00     0.008 A 
HETATM    5  C   UNK     0       6.943  -5.869  -7.185  0.00  0.00    -0.043 A 
HETATM    6  C   UNK     0       7.353  -4.900  -6.263  0.00  0.00    -0.019 A 
HETATM    7  C   UNK     0       5.936  -6.767  -6.607  0.00  0.00     0.080 A 
HETATM    8  C   UNK     0       5.796  -6.202  -5.246  0.00  0.00    -0.032 A 
HETATM    9  C   UNK     0       6.665  -5.115  -5.070  0.00  0.00    -0.016 A 
HETATM   10  C   UNK     0       4.965  -6.646  -4.187  0.00  0.00    -0.016 A 
HETATM   11  C   UNK     0       5.079  -5.987  -2.936  0.00  0.00     0.042 A 
HETATM   12  C   UNK     0       5.981  -4.913  -2.752  0.00  0.00     0.027 A 
HETATM   13  C   UNK     0       6.766  -4.456  -3.832  0.00  0.00     0.042 A 
ENDROOT
BRANCH  10  14
HETATM   14  C   UNK     0       4.071  -7.741  -4.345  0.00  0.00    -0.023 A 
HETATM   15  C   UNK     0       4.483  -9.054  -4.028  0.00  0.00     0.029 A 
HETATM   16  C   UNK     0       3.603 -10.133  -4.233  0.00  0.00     0.090 A 
HETATM   17  N   UNK     0       2.344  -9.935  -4.736  0.00  0.00    -0.371 N 
HETATM   18  C   UNK     0       1.919  -8.667  -5.032  0.00  0.00     0.090 A 
HETATM   19  C   UNK     0       1.458 -11.057  -4.925  0.00  0.00     0.154 C 
HETATM   20  C   UNK     0       2.759  -7.556  -4.834  0.00  0.00     0.029 A 
ENDBRANCH  10  14
BRANCH  12  21
HETATM   21  N   UNK     0       6.108  -4.337  -1.540  0.00  0.00    -0.399 N 
HETATM   22  H   UNK     0       6.766  -4.670  -0.908  0.00  0.00     0.156 HD
HETATM   23  H   UNK     0       5.547  -3.583  -1.298  0.00  0.00     0.156 HD
ENDBRANCH  12  21
TORSDOF 2
ENDMDL
MODEL 3
REMARK VINA RESULT:      -6.8     12.394     14.333
REMARK  2 active torsions:
REMARK  status: ('A' for Active; 'I' for Inactive)
REMARK    1  A    between atoms: C_10  and  C_17 
REMARK    2  A    between atoms: C_12  and  N_14 
ROOT
HETATM    1  C   UNK     0      -9.968  -0.152  -3.912  0.00  0.00     0.013 A 
HETATM    2  C   UNK     0     -11.368  -0.139  -4.087  0.00  0.00     0.001 A 
HETATM    3  C   UNK     0     -11.937  -0.475  -5.336  0.00  0.00     0.001 A 
HETATM    4  C   UNK     0     -11.113  -0.822  -6.426  0.00  0.00     0.008 A 
HETATM    5  C   UNK     0      -9.716  -0.831  -6.243  0.00  0.00    -0.043 A 
HETATM    6  C   UNK     0      -9.154  -0.501  -5.006  0.00  0.00    -0.019 A 
HETATM    7  C   UNK     0      -8.682  -1.162  -7.231  0.00  0.00     0.080 A 
HETATM    8  C   UNK     0      -7.453  -1.000  -6.423  0.00  0.00    -0.032 A 
HETATM    9  C   UNK     0      -7.768  -0.586  -5.121  0.00  0.00    -0.016 A 
HETATM   10  C   UNK     0      -6.104  -1.172  -6.825  0.00  0.00    -0.016 A 
HETATM   11  C   UNK     0      -5.089  -0.865  -5.882  0.00  0.00     0.042 A 
HETATM   12  C   UNK     0      -5.410  -0.416  -4.580  0.00  0.00     0.027 A 
HETATM   13  C   UNK     0      -6.759  -0.295  -4.185  0.00  0.00     0.042 A 
ENDROOT
BRANCH  10  14
HETATM   14  C   UNK     0      -5.762  -1.598  -8.138  0.00  0.00    -0.023 A 
HETATM   15  C   UNK     0      -4.740  -0.944  -8.861  0.00  0.00     0.029 A 
HETATM   16  C   UNK     0      -4.443  -1.347 -10.176  0.00  0.00     0.090 A 
HETATM   17  N   UNK     0      -5.130  -2.369 -10.775  0.00  0.00    -0.371 N 
HETATM   18  C   UNK     0      -6.112  -3.029 -10.085  0.00  0.00     0.090 A 
HETATM   19  C   UNK     0      -4.797  -2.771 -12.120  0.00  0.00     0.154 C 
HETATM   20  C   UNK     0      -6.436  -2.670  -8.764  0.00  0.00     0.029 A 
ENDBRANCH  10  14
BRANCH  12  21
HETATM   21  N   UNK     0      -4.427  -0.082  -3.719  0.00  0.00    -0.399 N 
HETATM   22  H   UNK     0      -4.294  -0.598  -2.907  0.00  0.00     0.156 HD
HETATM   23  H   UNK     0      -3.845   0.670  -3.912  0.00  0.00     0.156 HD
ENDBRANCH  12  21
TORSDOF 2
ENDMDL
MODEL 4
REMARK VINA RESULT:      -6.5     17.382     20.045
REMARK  2 active torsions:
REMARK  status: ('A' for Active; 'I' for Inactive)
REMARK    1  A    between atoms: C_10  and  C_17 
REMARK    2  A    between atoms: C_12  and  N_14 
ROOT
HETATM    1  C   UNK     0       3.385   6.343   3.760  0.00  0.00     0.013 A 
HETATM    2  C   UNK     0       3.522   5.020   4.231  0.00  0.00     0.001 A 
HETATM    3  C   UNK     0       2.837   4.598   5.391  0.00  0.00     0.001 A 
HETATM    4  C   UNK     0       2.012   5.496   6.101  0.00  0.00     0.008 A 
HETATM    5  C   UNK     0       1.882   6.815   5.625  0.00  0.00    -0.043 A 
HETATM    6  C   UNK     0       2.558   7.232   4.473  0.00  0.00    -0.019 A 
HETATM    7  C   UNK     0       1.080   7.903   6.199  0.00  0.00     0.080 A 
HETATM    8  C   UNK     0       1.357   8.997   5.242  0.00  0.00    -0.032 A 
HETATM    9  C   UNK     0       2.251   8.572   4.250  0.00  0.00    -0.016 A 
HETATM   10  C   UNK     0       0.871  10.330   5.261  0.00  0.00    -0.016 A 
HETATM   11  C   UNK     0       1.359  11.224   4.274  0.00  0.00     0.042 A 
HETATM   12  C   UNK     0       2.286  10.801   3.294  0.00  0.00     0.027 A 
HETATM   13  C   UNK     0       2.722   9.460   3.265  0.00  0.00     0.042 A 
ENDROOT
BRANCH  10  14
HETATM   14  C   UNK     0      -0.042  10.780   6.254  0.00  0.00    -0.023 A 
HETATM   15  C   UNK     0      -1.393  11.027   5.925  0.00  0.00     0.029 A 
HETATM   16  C   UNK     0      -2.275  11.516   6.907  0.00  0.00     0.090 A 
HETATM   17  N   UNK     0      -1.848  11.758   8.186  0.00  0.00    -0.371 N 
HETATM   18  C   UNK     0      -0.546  11.506   8.529  0.00  0.00     0.090 A 
HETATM   19  C   UNK     0      -2.775  12.246   9.176  0.00  0.00     0.154 C 
HETATM   20  C   UNK     0       0.370  11.007   7.585  0.00  0.00     0.029 A 
ENDBRANCH  10  14
BRANCH  12  21
HETATM   21  N   UNK     0       2.773  11.684   2.398  0.00  0.00    -0.399 N 
HETATM   22  H   UNK     0       2.521  12.620   2.450  0.00  0.00     0.156 HD
HETATM   23  H   UNK     0       3.383  11.388   1.704  0.00  0.00     0.156 HD
ENDBRANCH  12  21
TORSDOF 2
ENDMDL
MODEL 5
REMARK VINA RESULT:      -6.5      3.364      7.849
REMARK  2 active torsions:
REMARK  status: ('A' for Active; 'I' for Inactive)
REMARK    1  A    between atoms: C_10  and  C_17 
REMARK    2  A    between atoms: C_12  and  N_14 
ROOT
HETATM    1  C   UNK     0       6.166  -5.295  -5.526  0.00  0.00     0.013 A 
HETATM    2  C   UNK     0       6.563  -4.695  -4.312  0.00  0.00     0.001 A 
HETATM    3  C   UNK     0       5.774  -4.841  -3.149  0.00  0.00     0.001 A 
HETATM    4  C   UNK     0       4.575  -5.582  -3.187  0.00  0.00     0.008 A 
HETATM    5  C   UNK     0       4.185  -6.177  -4.403  0.00  0.00    -0.043 A 
HETATM    6  C   UNK     0       4.968  -6.034  -5.554  0.00  0.00    -0.019 A 
HETATM    7  C   UNK     0       2.990  -6.987  -4.666  0.00  0.00     0.080 A 
HETATM    8  C   UNK     0       3.173  -7.312  -6.098  0.00  0.00    -0.032 A 
HETATM    9  C   UNK     0       4.339  -6.714  -6.595  0.00  0.00    -0.016 A 
HETATM   10  C   UNK     0       2.328  -8.073  -6.945  0.00  0.00    -0.016 A 
HETATM   11  C   UNK     0       2.679  -8.166  -8.317  0.00  0.00     0.042 A 
HETATM   12  C   UNK     0       3.838  -7.534  -8.822  0.00  0.00     0.027 A 
HETATM   13  C   UNK     0       4.690  -6.819  -7.954  0.00  0.00     0.042 A 
ENDROOT
BRANCH  10  14
HETATM   14  C   UNK     0       1.145  -8.695  -6.460  0.00  0.00    -0.023 A 
HETATM   15  C   UNK     0       1.198  -9.978  -5.872  0.00  0.00     0.029 A 
HETATM   16  C   UNK     0       0.012 -10.600  -5.437  0.00  0.00     0.090 A 
HETATM   17  N   UNK     0      -1.202  -9.981  -5.574  0.00  0.00    -0.371 N 
HETATM   18  C   UNK     0      -1.273  -8.729  -6.125  0.00  0.00     0.090 A 
HETATM   19  C   UNK     0      -2.400 -10.636  -5.109  0.00  0.00     0.154 C 
HETATM   20  C   UNK     0      -0.114  -8.063  -6.563  0.00  0.00     0.029 A 
ENDBRANCH  10  14
BRANCH  12  21
HETATM   21  N   UNK     0       4.122  -7.594 -10.139  0.00  0.00    -0.399 N 
HETATM   22  H   UNK     0       4.984  -7.929 -10.437  0.00  0.00     0.156 HD
HETATM   23  H   UNK     0       3.464  -7.311 -10.793  0.00  0.00     0.156 HD
ENDBRANCH  12  21
TORSDOF 2
ENDMDL
MODEL 6
REMARK VINA RESULT:      -6.4      2.612      6.682
REMARK  2 active torsions:
REMARK  status: ('A' for Active; 'I' for Inactive)
REMARK    1  A    between atoms: C_10  and  C_17 
REMARK    2  A    between atoms: C_12  and  N_14 
ROOT
HETATM    1  C   UNK     0       7.319  -4.807  -7.355  0.00  0.00     0.013 A 
HETATM    2  C   UNK     0       8.086  -5.061  -8.512  0.00  0.00     0.001 A 
HETATM    3  C   UNK     0       7.814  -6.188  -9.318  0.00  0.00     0.001 A 
HETATM    4  C   UNK     0       6.776  -7.079  -8.974  0.00  0.00     0.008 A 
HETATM    5  C   UNK     0       6.016  -6.819  -7.817  0.00  0.00    -0.043 A 
HETATM    6  C   UNK     0       6.284  -5.700  -7.021  0.00  0.00    -0.019 A 
HETATM    7  C   UNK     0       4.897  -7.603  -7.281  0.00  0.00     0.080 A 
HETATM    8  C   UNK     0       4.536  -6.806  -6.088  0.00  0.00    -0.032 A 
HETATM    9  C   UNK     0       5.390  -5.703  -5.952  0.00  0.00    -0.016 A 
HETATM   10  C   UNK     0       3.518  -7.058  -5.133  0.00  0.00    -0.016 A 
HETATM   11  C   UNK     0       3.428  -6.188  -4.016  0.00  0.00     0.042 A 
HETATM   12  C   UNK     0       4.313  -5.095  -3.866  0.00  0.00     0.027 A 
HETATM   13  C   UNK     0       5.289  -4.834  -4.850  0.00  0.00     0.042 A 
ENDROOT
BRANCH  10  14
HETATM   14  C   UNK     0       2.635  -8.167  -5.254  0.00  0.00    -0.023 A 
HETATM   15  C   UNK     0       1.463  -8.068  -6.036  0.00  0.00     0.029 A 
HETATM   16  C   UNK     0       0.576  -9.158  -6.111  0.00  0.00     0.090 A 
HETATM   17  N   UNK     0       0.828 -10.323  -5.437  0.00  0.00    -0.371 N 
HETATM   18  C   UNK     0       1.968 -10.446  -4.688  0.00  0.00     0.090 A 
HETATM   19  C   UNK     0      -0.091 -11.430  -5.541  0.00  0.00     0.154 C 
HETATM   20  C   UNK     0       2.891  -9.388  -4.592  0.00  0.00     0.029 A 
ENDBRANCH  10  14
BRANCH  12  21
HETATM   21  N   UNK     0       4.240  -4.313  -2.770  0.00  0.00    -0.399 N 
HETATM   22  H   UNK     0       3.564  -4.483  -2.093  0.00  0.00     0.156 HD
HETATM   23  H   UNK     0       4.867  -3.582  -2.650  0.00  0.00     0.156 HD
ENDBRANCH  12  21
TORSDOF 2
ENDMDL
MODEL 7
REMARK VINA RESULT:      -6.4     16.239     18.204
REMARK  2 active torsions:
REMARK  status: ('A' for Active; 'I' for Inactive)
REMARK    1  A    between atoms: C_10  and  C_17 
REMARK    2  A    between atoms: C_12  and  N_14 
ROOT
HETATM    1  C   UNK     0       1.764   5.757   6.121  0.00  0.00     0.013 A 
HETATM    2  C   UNK     0       2.385   4.497   5.993  0.00  0.00     0.001 A 
HETATM    3  C   UNK     0       3.521   4.338   5.169  0.00  0.00     0.001 A 
HETATM    4  C   UNK     0       4.046   5.436   4.457  0.00  0.00     0.008 A 
HETATM    5  C   UNK     0       3.420   6.691   4.589  0.00  0.00    -0.043 A 
HETATM    6  C   UNK     0       2.296   6.848   5.408  0.00  0.00    -0.019 A 
HETATM    7  C   UNK     0       3.798   7.956   3.949  0.00  0.00     0.080 A 
HETATM    8  C   UNK     0       2.774   8.872   4.499  0.00  0.00    -0.032 A 
HETATM    9  C   UNK     0       1.890   8.179   5.339  0.00  0.00    -0.016 A 
HETATM   10  C   UNK     0       2.600  10.256   4.245  0.00  0.00    -0.016 A 
HETATM   11  C   UNK     0       1.477  10.899   4.828  0.00  0.00     0.042 A 
HETATM   12  C   UNK     0       0.569  10.189   5.646  0.00  0.00     0.027 A 
HETATM   13  C   UNK     0       0.785   8.823   5.925  0.00  0.00     0.042 A 
ENDROOT
BRANCH  10  14
HETATM   14  C   UNK     0       3.489  10.981   3.403  0.00  0.00    -0.023 A 
HETATM   15  C   UNK     0       3.056  11.459   2.147  0.00  0.00     0.029 A 
HETATM   16  C   UNK     0       3.959  12.135   1.305  0.00  0.00     0.090 A 
HETATM   17  N   UNK     0       5.259  12.341   1.682  0.00  0.00    -0.371 N 
HETATM   18  C   UNK     0       5.694  11.902   2.905  0.00  0.00     0.090 A 
HETATM   19  C   UNK     0       6.161  13.048   0.806  0.00  0.00     0.154 C 
HETATM   20  C   UNK     0       4.825  11.231   3.785  0.00  0.00     0.029 A 
ENDBRANCH  10  14
BRANCH  12  21
HETATM   21  N   UNK     0      -0.518  10.811   6.147  0.00  0.00    -0.399 N 
HETATM   22  H   UNK     0      -1.144  11.253   5.550  0.00  0.00     0.156 HD
HETATM   23  H   UNK     0      -0.682  10.812   7.103  0.00  0.00     0.156 HD
ENDBRANCH  12  21
TORSDOF 2
ENDMDL
MODEL 8
REMARK VINA RESULT:      -6.3      4.098      6.925
REMARK  2 active torsions:
REMARK  status: ('A' for Active; 'I' for Inactive)
REMARK    1  A    between atoms: C_10  and  C_17 
REMARK    2  A    between atoms: C_12  and  N_14 
ROOT
HETATM    1  C   UNK     0       7.465  -8.803  -1.488  0.00  0.00     0.013 A 
HETATM    2  C   UNK     0       8.091 -10.012  -1.118  0.00  0.00     0.001 A 
HETATM    3  C   UNK     0       7.574 -11.251  -1.557  0.00  0.00     0.001 A 
HETATM    4  C   UNK     0       6.421 -11.297  -2.367  0.00  0.00     0.008 A 
HETATM    5  C   UNK     0       5.801 -10.085  -2.731  0.00  0.00    -0.043 A 
HETATM    6  C   UNK     0       6.315  -8.859  -2.298  0.00  0.00    -0.019 A 
HETATM    7  C   UNK     0       4.605  -9.902  -3.563  0.00  0.00     0.080 A 
HETATM    8  C   UNK     0       4.489  -8.426  -3.575  0.00  0.00    -0.032 A 
HETATM    9  C   UNK     0       5.502  -7.844  -2.799  0.00  0.00    -0.016 A 
HETATM   10  C   UNK     0       3.510  -7.623  -4.213  0.00  0.00    -0.016 A 
HETATM   11  C   UNK     0       3.563  -6.222  -3.998  0.00  0.00     0.042 A 
HETATM   12  C   UNK     0       4.565  -5.641  -3.188  0.00  0.00     0.027 A 
HETATM   13  C   UNK     0       5.558  -6.453  -2.599  0.00  0.00     0.042 A 
ENDROOT
BRANCH  10  14
HETATM   14  C   UNK     0       2.479  -8.192  -5.010  0.00  0.00    -0.023 A 
HETATM   15  C   UNK     0       2.463  -7.994  -6.408  0.00  0.00     0.029 A 
HETATM   16  C   UNK     0       1.411  -8.524  -7.180  0.00  0.00     0.090 A 
HETATM   17  N   UNK     0       0.396  -9.235  -6.598  0.00  0.00    -0.371 N 
HETATM   18  C   UNK     0       0.403  -9.454  -5.245  0.00  0.00     0.090 A 
HETATM   19  C   UNK     0      -0.663  -9.779  -7.412  0.00  0.00     0.154 C 
HETATM   20  C   UNK     0       1.438  -8.953  -4.435  0.00  0.00     0.029 A 
ENDBRANCH  10  14
BRANCH  12  21
HETATM   21  N   UNK     0       4.563  -4.312  -2.958  0.00  0.00    -0.399 N 
HETATM   22  H   UNK     0       5.345  -3.883  -2.573  0.00  0.00     0.156 HD
HETATM   23  H   UNK     0       3.784  -3.780  -3.182  0.00  0.00     0.156 HD
ENDBRANCH  12  21
TORSDOF 2
ENDMDL
MODEL 9
REMARK VINA RESULT:      -6.3      3.225      4.828
REMARK  2 active torsions:
REMARK  status: ('A' for Active; 'I' for Inactive)
REMARK    1  A    between atoms: C_10  and  C_17 
REMARK    2  A    between atoms: C_12  and  N_14 
ROOT
HETATM    1  C   UNK     0       6.355  -8.649  -1.323  0.00  0.00     0.013 A 
HETATM    2  C   UNK     0       6.881  -9.907  -0.958  0.00  0.00     0.001 A 
HETATM    3  C   UNK     0       7.062 -10.916  -1.929  0.00  0.00     0.001 A 
HETATM    4  C   UNK     0       6.712 -10.684  -3.276  0.00  0.00     0.008 A 
HETATM    5  C   UNK     0       6.187  -9.426  -3.631  0.00  0.00    -0.043 A 
HETATM    6  C   UNK     0       6.011  -8.425  -2.669  0.00  0.00    -0.019 A 
HETATM    7  C   UNK     0       5.765  -8.971  -4.961  0.00  0.00     0.080 A 
HETATM    8  C   UNK     0       5.336  -7.586  -4.667  0.00  0.00    -0.032 A 
HETATM    9  C   UNK     0       5.473  -7.306  -3.300  0.00  0.00    -0.016 A 
HETATM   10  C   UNK     0       4.808  -6.617  -5.559  0.00  0.00    -0.016 A 
HETATM   11  C   UNK     0       4.381  -5.380  -5.012  0.00  0.00     0.042 A 
HETATM   12  C   UNK     0       4.490  -5.113  -3.628  0.00  0.00     0.027 A 
HETATM   13  C   UNK     0       5.060  -6.072  -2.765  0.00  0.00     0.042 A 
ENDROOT
BRANCH  10  14
HETATM   14  C   UNK     0       4.667  -6.878  -6.950  0.00  0.00    -0.023 A 
HETATM   15  C   UNK     0       5.728  -6.606  -7.841  0.00  0.00     0.029 A 
HETATM   16  C   UNK     0       5.559  -6.826  -9.221  0.00  0.00     0.090 A 
HETATM   17  N   UNK     0       4.377  -7.304  -9.721  0.00  0.00    -0.371 N 
HETATM   18  C   UNK     0       3.342  -7.591  -8.872  0.00  0.00     0.090 A 
HETATM   19  C   UNK     0       4.234  -7.532 -11.138  0.00  0.00     0.154 C 
HETATM   20  C   UNK     0       3.468  -7.398  -7.484  0.00  0.00     0.029 A 
ENDBRANCH  10  14
BRANCH  12  21
HETATM   21  N   UNK     0       4.030  -3.949  -3.126  0.00  0.00    -0.399 N 
HETATM   22  H   UNK     0       4.567  -3.445  -2.492  0.00  0.00     0.156 HD
HETATM   23  H   UNK     0       3.165  -3.607  -3.401  0.00  0.00     0.156 HD
ENDBRANCH  12  21
TORSDOF 2
ENDMDL
