MODEL 1
REMARK VINA RESULT:      -6.6      0.000      0.000
REMARK  4 active torsions:
REMARK  status: ('A' for Active; 'I' for Inactive)
REMARK    1  A    between atoms: C_11  and  N_14 
REMARK    2  A    between atoms: C_13  and  C_21 
REMARK       I    between atoms: N_14  and  C_15 
REMARK    3  A    between atoms: C_15  and  C_16 
REMARK    4  A    between atoms: C_16  and  C_17 
ROOT
HETATM    1  C   UNK     0       5.313  -6.978 -10.105  0.00  0.00     0.016 A 
HETATM    2  C   UNK     0       4.881  -7.464 -11.357  0.00  0.00     0.001 A 
HETATM    3  C   UNK     0       3.708  -8.246 -11.456  0.00  0.00     0.001 A 
HETATM    4  C   UNK     0       2.945  -8.545 -10.306  0.00  0.00     0.013 A 
HETATM    5  C   UNK     0       3.380  -8.043  -9.064  0.00  0.00    -0.011 A 
HETATM    6  C   UNK     0       4.547  -7.283  -8.964  0.00  0.00     0.026 A 
HETATM    7  C   UNK     0       2.843  -8.158  -7.780  0.00  0.00    -0.008 A 
HETATM    8  C   UNK     0       3.694  -7.508  -6.878  0.00  0.00     0.037 A 
HETATM    9  C   UNK     0       4.744  -6.941  -7.624  0.00  0.00     0.195 A 
HETATM   10  C   UNK     0       1.656  -8.774  -7.355  0.00  0.00     0.043 A 
HETATM   11  C   UNK     0       1.321  -8.761  -5.979  0.00  0.00     0.036 A 
HETATM   12  C   UNK     0       2.201  -8.121  -5.071  0.00  0.00     0.043 A 
HETATM   13  C   UNK     0       3.404  -7.493  -5.491  0.00  0.00    -0.009 A 
HETATM   14  O   UNK     0       5.686  -6.234  -7.200  0.00  0.00    -0.287 OA
ENDROOT
BRANCH  13  15
HETATM   15  C   UNK     0       4.269  -6.895  -4.533  0.00  0.00    -0.022 A 
HETATM   16  C   UNK     0       4.132  -5.532  -4.178  0.00  0.00     0.029 A 
HETATM   17  C   UNK     0       5.011  -4.965  -3.238  0.00  0.00     0.088 A 
HETATM   18  N   UNK     0       5.990  -5.726  -2.686  0.00  0.00    -0.375 N 
HETATM   19  C   UNK     0       6.160  -7.035  -2.999  0.00  0.00     0.088 A 
HETATM   20  HN  UNK     0       6.623  -5.296  -2.010  1.00  0.00     0.164 HD
HETATM   21  C   UNK     0       5.300  -7.651  -3.926  0.00  0.00     0.029 A 
ENDBRANCH  13  15
BRANCH  11  22
HETATM   22  N   UNK     0       0.175  -9.310  -5.471  0.00  0.00    -0.327 N 
HETATM   23  C   UNK     0      -1.079  -8.766  -5.442  0.00  0.00     0.223 C 
HETATM   24  O   UNK     0      -1.351  -7.671  -5.987  0.00  0.00    -0.273 OA
HETATM   25  H   UNK     0       0.260 -10.205  -5.106  0.00  0.00     0.169 HD
BRANCH  23  26
HETATM   26  C   UNK     0      -2.179  -9.502  -4.783  0.00  0.00     0.118 C 
BRANCH  26  27
HETATM   27  C   UNK     0      -3.325  -9.838  -5.767  0.00  0.00     0.124 C 
HETATM   28 Cl   UNK     0      -4.743 -10.434  -4.910  0.00  0.00    -0.130 Cl
ENDBRANCH  26  27
ENDBRANCH  23  26
ENDBRANCH  11  22
TORSDOF 4
ENDMDL
MODEL 2
REMARK VINA RESULT:      -6.6      0.814      1.244
REMARK  4 active torsions:
REMARK  status: ('A' for Active; 'I' for Inactive)
REMARK    1  A    between atoms: C_11  and  N_14 
REMARK    2  A    between atoms: C_13  and  C_21 
REMARK       I    between atoms: N_14  and  C_15 
REMARK    3  A    between atoms: C_15  and  C_16 
REMARK    4  A    between atoms: C_16  and  C_17 
ROOT
HETATM    1  C   UNK     0       5.750  -6.568  -9.676  0.00  0.00     0.016 A 
HETATM    2  C   UNK     0       5.372  -6.998 -10.966  0.00  0.00     0.001 A 
HETATM    3  C   UNK     0       4.215  -7.788 -11.148  0.00  0.00     0.001 A 
HETATM    4  C   UNK     0       3.414  -8.153 -10.044  0.00  0.00     0.013 A 
HETATM    5  C   UNK     0       3.795  -7.707  -8.763  0.00  0.00    -0.011 A 
HETATM    6  C   UNK     0       4.946  -6.937  -8.582  0.00  0.00     0.026 A 
HETATM    7  C   UNK     0       3.211  -7.891  -7.508  0.00  0.00    -0.008 A 
HETATM    8  C   UNK     0       4.019  -7.276  -6.544  0.00  0.00     0.037 A 
HETATM    9  C   UNK     0       5.088  -6.660  -7.221  0.00  0.00     0.195 A 
HETATM   10  C   UNK     0       2.019  -8.542  -7.158  0.00  0.00     0.043 A 
HETATM   11  C   UNK     0       1.633  -8.600  -5.797  0.00  0.00     0.036 A 
HETATM   12  C   UNK     0       2.468  -7.995  -4.827  0.00  0.00     0.043 A 
HETATM   13  C   UNK     0       3.677  -7.332  -5.170  0.00  0.00    -0.009 A 
HETATM   14  O   UNK     0       6.004  -5.962  -6.727  0.00  0.00    -0.287 OA
ENDROOT
BRANCH  13  15
HETATM   15  C   UNK     0       4.497  -6.771  -4.151  0.00  0.00    -0.022 A 
HETATM   16  C   UNK     0       5.400  -7.577  -3.417  0.00  0.00     0.029 A 
HETATM   17  C   UNK     0       6.188  -6.996  -2.407  0.00  0.00     0.088 A 
HETATM   18  N   UNK     0       6.069  -5.671  -2.136  0.00  0.00    -0.375 N 
HETATM   19  C   UNK     0       5.214  -4.863  -2.812  0.00  0.00     0.088 A 
HETATM   20  HN  UNK     0       6.643  -5.268  -1.395  1.00  0.00     0.164 HD
HETATM   21  C   UNK     0       4.412  -5.393  -3.839  0.00  0.00     0.029 A 
ENDBRANCH  13  15
BRANCH  11  22
HETATM   22  N   UNK     0       0.476  -9.188  -5.360  0.00  0.00    -0.327 N 
HETATM   23  C   UNK     0      -0.807  -8.741  -5.514  0.00  0.00     0.223 C 
HETATM   24  O   UNK     0      -1.089  -7.722  -6.187  0.00  0.00    -0.273 OA
HETATM   25  H   UNK     0       0.579 -10.038  -4.904  0.00  0.00     0.169 HD
BRANCH  23  26
HETATM   26  C   UNK     0      -1.921  -9.497  -4.905  0.00  0.00     0.118 C 
BRANCH  26  27
HETATM   27  C   UNK     0      -3.026  -9.836  -5.935  0.00  0.00     0.124 C 
HETATM   28 Cl   UNK     0      -2.490 -11.086  -7.054  0.00  0.00    -0.130 Cl
ENDBRANCH  26  27
ENDBRANCH  23  26
ENDBRANCH  11  22
TORSDOF 4
ENDMDL
MODEL 3
REMARK VINA RESULT:      -6.5     10.316     12.878
REMARK  4 active torsions:
REMARK  status: ('A' for Active; 'I' for Inactive)
REMARK    1  A    between atoms: C_11  and  N_14 
REMARK    2  A    between atoms: C_13  and  C_21 
REMARK       I    between atoms: N_14  and  C_15 
REMARK    3  A    between atoms: C_15  and  C_16 
REMARK    4  A    between atoms: C_16  and  C_17 
ROOT
HETATM    1  C   UNK     0      -6.622  -1.095  -5.450  0.00  0.00     0.016 A 
HETATM    2  C   UNK     0      -6.152  -0.411  -4.309  0.00  0.00     0.001 A 
HETATM    3  C   UNK     0      -5.002   0.407  -4.387  0.00  0.00     0.001 A 
HETATM    4  C   UNK     0      -4.313   0.562  -5.609  0.00  0.00     0.013 A 
HETATM    5  C   UNK     0      -4.800  -0.115  -6.744  0.00  0.00    -0.011 A 
HETATM    6  C   UNK     0      -5.928  -0.936  -6.664  0.00  0.00     0.026 A 
HETATM    7  C   UNK     0      -4.349  -0.150  -8.065  0.00  0.00    -0.008 A 
HETATM    8  C   UNK     0      -5.167  -1.021  -8.795  0.00  0.00     0.037 A 
HETATM    9  C   UNK     0      -6.167  -1.490  -7.922  0.00  0.00     0.195 A 
HETATM   10  C   UNK     0      -3.289   0.541  -8.671  0.00  0.00     0.043 A 
HETATM   11  C   UNK     0      -3.022   0.336 -10.046  0.00  0.00     0.036 A 
HETATM   12  C   UNK     0      -3.840  -0.565 -10.771  0.00  0.00     0.043 A 
HETATM   13  C   UNK     0      -4.917  -1.269 -10.168  0.00  0.00    -0.009 A 
HETATM   14  O   UNK     0      -7.125  -2.249  -8.197  0.00  0.00    -0.287 OA
ENDROOT
BRANCH  13  15
HETATM   15  C   UNK     0      -5.687  -2.189 -10.934  0.00  0.00    -0.022 A 
HETATM   16  C   UNK     0      -6.886  -1.785 -11.567  0.00  0.00     0.029 A 
HETATM   17  C   UNK     0      -7.632  -2.721 -12.306  0.00  0.00     0.088 A 
HETATM   18  N   UNK     0      -7.203  -4.005 -12.397  0.00  0.00    -0.375 N 
HETATM   19  C   UNK     0      -6.061  -4.436 -11.804  0.00  0.00     0.088 A 
HETATM   20  HN  UNK     0      -7.760  -4.672 -12.932  1.00  0.00     0.164 HD
HETATM   21  C   UNK     0      -5.274  -3.536 -11.062  0.00  0.00     0.029 A 
ENDBRANCH  13  15
BRANCH  11  22
HETATM   22  N   UNK     0      -2.029   0.982 -10.732  0.00  0.00    -0.327 N 
HETATM   23  C   UNK     0      -0.766   0.536 -11.005  0.00  0.00     0.223 C 
HETATM   24  O   UNK     0      -0.380  -0.620 -10.709  0.00  0.00    -0.273 OA
HETATM   25  H   UNK     0      -2.260   1.854 -11.089  0.00  0.00     0.169 HD
BRANCH  23  26
HETATM   26  C   UNK     0       0.184   1.421 -11.711  0.00  0.00     0.118 C 
BRANCH  26  27
HETATM   27  C   UNK     0       1.651   1.143 -11.305  0.00  0.00     0.124 C 
HETATM   28 Cl   UNK     0       2.063   1.968  -9.805  0.00  0.00    -0.130 Cl
ENDBRANCH  26  27
ENDBRANCH  23  26
ENDBRANCH  11  22
TORSDOF 4
ENDMDL
MODEL 4
REMARK VINA RESULT:      -6.4      1.900      5.002
REMARK  4 active torsions:
REMARK  status: ('A' for Active; 'I' for Inactive)
REMARK    1  A    between atoms: C_11  and  N_14 
REMARK    2  A    between atoms: C_13  and  C_21 
REMARK       I    between atoms: N_14  and  C_15 
REMARK    3  A    between atoms: C_15  and  C_16 
REMARK    4  A    between atoms: C_16  and  C_17 
ROOT
HETATM    1  C   UNK     0       6.483  -5.107  -5.159  0.00  0.00     0.016 A 
HETATM    2  C   UNK     0       6.355  -4.543  -3.871  0.00  0.00     0.001 A 
HETATM    3  C   UNK     0       5.239  -4.851  -3.062  0.00  0.00     0.001 A 
HETATM    4  C   UNK     0       4.239  -5.734  -3.523  0.00  0.00     0.013 A 
HETATM    5  C   UNK     0       4.385  -6.301  -4.805  0.00  0.00    -0.011 A 
HETATM    6  C   UNK     0       5.481  -5.986  -5.611  0.00  0.00     0.026 A 
HETATM    7  C   UNK     0       3.585  -7.198  -5.516  0.00  0.00    -0.008 A 
HETATM    8  C   UNK     0       4.159  -7.408  -6.776  0.00  0.00     0.037 A 
HETATM    9  C   UNK     0       5.356  -6.669  -6.822  0.00  0.00     0.195 A 
HETATM   10  C   UNK     0       2.406  -7.853  -5.129  0.00  0.00     0.043 A 
HETATM   11  C   UNK     0       1.767  -8.728  -6.039  0.00  0.00     0.036 A 
HETATM   12  C   UNK     0       2.342  -8.915  -7.320  0.00  0.00     0.043 A 
HETATM   13  C   UNK     0       3.536  -8.259  -7.722  0.00  0.00    -0.009 A 
HETATM   14  O   UNK     0       6.191  -6.627  -7.753  0.00  0.00    -0.287 OA
ENDROOT
BRANCH  13  15
HETATM   15  C   UNK     0       4.052  -8.456  -9.034  0.00  0.00    -0.022 A 
HETATM   16  C   UNK     0       4.930  -9.530  -9.316  0.00  0.00     0.029 A 
HETATM   17  C   UNK     0       5.435  -9.691 -10.619  0.00  0.00     0.088 A 
HETATM   18  N   UNK     0       5.086  -8.811 -11.592  0.00  0.00    -0.375 N 
HETATM   19  C   UNK     0       4.250  -7.766 -11.364  0.00  0.00     0.088 A 
HETATM   20  HN  UNK     0       5.467  -8.939 -12.530  1.00  0.00     0.164 HD
HETATM   21  C   UNK     0       3.710  -7.568 -10.080  0.00  0.00     0.029 A 
ENDBRANCH  13  15
BRANCH  11  22
HETATM   22  N   UNK     0       0.630  -9.432  -5.746  0.00  0.00    -0.327 N 
HETATM   23  C   UNK     0      -0.661  -8.982  -5.737  0.00  0.00     0.223 C 
HETATM   24  O   UNK     0      -0.974  -7.823  -6.099  0.00  0.00    -0.273 OA
HETATM   25  H   UNK     0       0.755 -10.372  -5.543  0.00  0.00     0.169 HD
BRANCH  23  26
HETATM   26  C   UNK     0      -1.749  -9.894  -5.327  0.00  0.00     0.118 C 
BRANCH  26  27
HETATM   27  C   UNK     0      -2.724  -9.226  -4.328  0.00  0.00     0.124 C 
HETATM   28 Cl   UNK     0      -4.224 -10.138  -4.195  0.00  0.00    -0.130 Cl
ENDBRANCH  26  27
ENDBRANCH  23  26
ENDBRANCH  11  22
TORSDOF 4
ENDMDL
MODEL 5
REMARK VINA RESULT:      -6.4      3.442      6.875
REMARK  4 active torsions:
REMARK  status: ('A' for Active; 'I' for Inactive)
REMARK    1  A    between atoms: C_11  and  N_14 
REMARK    2  A    between atoms: C_13  and  C_21 
REMARK       I    between atoms: N_14  and  C_15 
REMARK    3  A    between atoms: C_15  and  C_16 
REMARK    4  A    between atoms: C_16  and  C_17 
ROOT
HETATM    1  C   UNK     0       4.677  -5.737  -3.160  0.00  0.00     0.016 A 
HETATM    2  C   UNK     0       5.866  -4.980  -3.101  0.00  0.00     0.001 A 
HETATM    3  C   UNK     0       6.635  -4.760  -4.266  0.00  0.00     0.001 A 
HETATM    4  C   UNK     0       6.220  -5.285  -5.509  0.00  0.00     0.013 A 
HETATM    5  C   UNK     0       5.024  -6.028  -5.558  0.00  0.00    -0.011 A 
HETATM    6  C   UNK     0       4.272  -6.258  -4.403  0.00  0.00     0.026 A 
HETATM    7  C   UNK     0       4.365  -6.652  -6.619  0.00  0.00    -0.008 A 
HETATM    8  C   UNK     0       3.230  -7.303  -6.121  0.00  0.00     0.037 A 
HETATM    9  C   UNK     0       3.162  -7.034  -4.741  0.00  0.00     0.195 A 
HETATM   10  C   UNK     0       4.681  -6.671  -7.986  0.00  0.00     0.043 A 
HETATM   11  C   UNK     0       3.848  -7.385  -8.881  0.00  0.00     0.036 A 
HETATM   12  C   UNK     0       2.715  -8.060  -8.364  0.00  0.00     0.043 A 
HETATM   13  C   UNK     0       2.385  -8.045  -6.982  0.00  0.00    -0.009 A 
HETATM   14  O   UNK     0       2.269  -7.389  -3.937  0.00  0.00    -0.287 OA
ENDROOT
BRANCH  13  15
HETATM   15  C   UNK     0       1.254  -8.769  -6.511  0.00  0.00    -0.022 A 
HETATM   16  C   UNK     0      -0.041  -8.198  -6.541  0.00  0.00     0.029 A 
HETATM   17  C   UNK     0      -1.137  -8.933  -6.056  0.00  0.00     0.088 A 
HETATM   18  N   UNK     0      -0.945 -10.178  -5.552  0.00  0.00    -0.375 N 
HETATM   19  C   UNK     0       0.278 -10.763  -5.501  0.00  0.00     0.088 A 
HETATM   20  HN  UNK     0      -1.751 -10.694  -5.198  1.00  0.00     0.164 HD
HETATM   21  C   UNK     0       1.406 -10.073  -5.984  0.00  0.00     0.029 A 
ENDBRANCH  13  15
BRANCH  11  22
HETATM   22  N   UNK     0       4.057  -7.441 -10.232  0.00  0.00    -0.327 N 
HETATM   23  C   UNK     0       4.887  -8.280 -10.923  0.00  0.00     0.223 C 
HETATM   24  O   UNK     0       5.527  -9.203 -10.366  0.00  0.00    -0.273 OA
HETATM   25  H   UNK     0       3.532  -6.824 -10.768  0.00  0.00     0.169 HD
BRANCH  23  26
HETATM   26  C   UNK     0       5.017  -8.134 -12.388  0.00  0.00     0.118 C 
BRANCH  26  27
HETATM   27  C   UNK     0       5.359  -6.682 -12.801  0.00  0.00     0.124 C 
HETATM   28 Cl   UNK     0       3.998  -5.914 -13.611  0.00  0.00    -0.130 Cl
ENDBRANCH  26  27
ENDBRANCH  23  26
ENDBRANCH  11  22
TORSDOF 4
ENDMDL
MODEL 6
REMARK VINA RESULT:      -6.3      2.825      4.259
REMARK  4 active torsions:
REMARK  status: ('A' for Active; 'I' for Inactive)
REMARK    1  A    between atoms: C_11  and  N_14 
REMARK    2  A    between atoms: C_13  and  C_21 
REMARK       I    between atoms: N_14  and  C_15 
REMARK    3  A    between atoms: C_15  and  C_16 
REMARK    4  A    between atoms: C_16  and  C_17 
ROOT
HETATM    1  C   UNK     0       6.116 -11.906  -3.918  0.00  0.00     0.016 A 
HETATM    2  C   UNK     0       5.960 -13.308  -3.873  0.00  0.00     0.001 A 
HETATM    3  C   UNK     0       4.726 -13.904  -4.216  0.00  0.00     0.001 A 
HETATM    4  C   UNK     0       3.632 -13.107  -4.618  0.00  0.00     0.013 A 
HETATM    5  C   UNK     0       3.804 -11.710  -4.672  0.00  0.00    -0.011 A 
HETATM    6  C   UNK     0       5.020 -11.120  -4.319  0.00  0.00     0.026 A 
HETATM    7  C   UNK     0       2.929 -10.684  -5.034  0.00  0.00    -0.008 A 
HETATM    8  C   UNK     0       3.584  -9.457  -4.867  0.00  0.00     0.037 A 
HETATM    9  C   UNK     0       4.897  -9.735  -4.444  0.00  0.00     0.195 A 
HETATM   10  C   UNK     0       1.613 -10.753  -5.515  0.00  0.00     0.043 A 
HETATM   11  C   UNK     0       0.920  -9.556  -5.816  0.00  0.00     0.036 A 
HETATM   12  C   UNK     0       1.583  -8.319  -5.622  0.00  0.00     0.043 A 
HETATM   13  C   UNK     0       2.916  -8.237  -5.137  0.00  0.00    -0.009 A 
HETATM   14  O   UNK     0       5.821  -8.916  -4.233  0.00  0.00    -0.287 OA
ENDROOT
BRANCH  13  15
HETATM   15  C   UNK     0       3.523  -6.967  -4.927  0.00  0.00    -0.022 A 
HETATM   16  C   UNK     0       3.452  -6.326  -3.667  0.00  0.00     0.029 A 
HETATM   17  C   UNK     0       4.050  -5.065  -3.493  0.00  0.00     0.088 A 
HETATM   18  N   UNK     0       4.680  -4.467  -4.537  0.00  0.00    -0.375 N 
HETATM   19  C   UNK     0       4.768  -5.044  -5.762  0.00  0.00     0.088 A 
HETATM   20  HN  UNK     0       5.102  -3.550  -4.394  1.00  0.00     0.164 HD
HETATM   21  C   UNK     0       4.196  -6.310  -5.984  0.00  0.00     0.029 A 
ENDBRANCH  13  15
BRANCH  11  22
HETATM   22  N   UNK     0      -0.354  -9.520  -6.315  0.00  0.00    -0.327 N 
HETATM   23  C   UNK     0      -1.524  -9.349  -5.627  0.00  0.00     0.223 C 
HETATM   24  O   UNK     0      -1.553  -9.109  -4.397  0.00  0.00    -0.273 OA
HETATM   25  H   UNK     0      -0.434  -9.602  -7.278  0.00  0.00     0.169 HD
BRANCH  23  26
HETATM   26  C   UNK     0      -2.811  -9.406  -6.351  0.00  0.00     0.118 C 
BRANCH  26  27
HETATM   27  C   UNK     0      -3.797 -10.410  -5.708  0.00  0.00     0.124 C 
HETATM   28 Cl   UNK     0      -5.386 -10.310  -6.458  0.00  0.00    -0.130 Cl
ENDBRANCH  26  27
ENDBRANCH  23  26
ENDBRANCH  11  22
TORSDOF 4
ENDMDL
MODEL 7
REMARK VINA RESULT:      -6.2      3.113      5.885
REMARK  4 active torsions:
REMARK  status: ('A' for Active; 'I' for Inactive)
REMARK    1  A    between atoms: C_11  and  N_14 
REMARK    2  A    between atoms: C_13  and  C_21 
REMARK       I    between atoms: N_14  and  C_15 
REMARK    3  A    between atoms: C_15  and  C_16 
REMARK    4  A    between atoms: C_16  and  C_17 
ROOT
HETATM    1  C   UNK     0      -0.169  -9.455  -4.863  0.00  0.00     0.016 A 
HETATM    2  C   UNK     0      -1.187 -10.027  -5.655  0.00  0.00     0.001 A 
HETATM    3  C   UNK     0      -1.106  -9.987  -7.065  0.00  0.00     0.001 A 
HETATM    4  C   UNK     0      -0.001  -9.384  -7.704  0.00  0.00     0.013 A 
HETATM    5  C   UNK     0       1.016  -8.828  -6.903  0.00  0.00    -0.011 A 
HETATM    6  C   UNK     0       0.929  -8.855  -5.509  0.00  0.00     0.026 A 
HETATM    7  C   UNK     0       2.210  -8.188  -7.236  0.00  0.00    -0.008 A 
HETATM    8  C   UNK     0       2.844  -7.779  -6.057  0.00  0.00     0.037 A 
HETATM    9  C   UNK     0       2.053  -8.220  -4.979  0.00  0.00     0.195 A 
HETATM   10  C   UNK     0       2.784  -7.956  -8.495  0.00  0.00     0.043 A 
HETATM   11  C   UNK     0       4.021  -7.273  -8.580  0.00  0.00     0.036 A 
HETATM   12  C   UNK     0       4.644  -6.843  -7.382  0.00  0.00     0.043 A 
HETATM   13  C   UNK     0       4.072  -7.073  -6.102  0.00  0.00    -0.009 A 
HETATM   14  O   UNK     0       2.296  -8.102  -3.756  0.00  0.00    -0.287 OA
ENDROOT
BRANCH  13  15
HETATM   15  C   UNK     0       4.723  -6.589  -4.932  0.00  0.00    -0.022 A 
HETATM   16  C   UNK     0       4.425  -5.307  -4.412  0.00  0.00     0.029 A 
HETATM   17  C   UNK     0       5.095  -4.851  -3.262  0.00  0.00     0.088 A 
HETATM   18  N   UNK     0       6.027  -5.637  -2.667  0.00  0.00    -0.375 N 
HETATM   19  C   UNK     0       6.345  -6.871  -3.133  0.00  0.00     0.088 A 
HETATM   20  HN  UNK     0       6.507  -5.287  -1.837  1.00  0.00     0.164 HD
HETATM   21  C   UNK     0       5.696  -7.378  -4.274  0.00  0.00     0.029 A 
ENDBRANCH  13  15
BRANCH  11  22
HETATM   22  N   UNK     0       4.674  -7.024  -9.757  0.00  0.00    -0.327 N 
HETATM   23  C   UNK     0       5.485  -7.866 -10.466  0.00  0.00     0.223 C 
HETATM   24  O   UNK     0       5.667  -9.062 -10.137  0.00  0.00    -0.273 OA
HETATM   25  H   UNK     0       4.522  -6.149 -10.148  0.00  0.00     0.169 HD
BRANCH  23  26
HETATM   26  C   UNK     0       6.151  -7.377 -11.692  0.00  0.00     0.118 C 
BRANCH  26  27
HETATM   27  C   UNK     0       5.174  -6.619 -12.622  0.00  0.00     0.124 C 
HETATM   28 Cl   UNK     0       3.843  -7.655 -13.126  0.00  0.00    -0.130 Cl
ENDBRANCH  26  27
ENDBRANCH  23  26
ENDBRANCH  11  22
TORSDOF 4
ENDMDL
MODEL 8
REMARK VINA RESULT:      -6.2      2.735      5.474
REMARK  4 active torsions:
REMARK  status: ('A' for Active; 'I' for Inactive)
REMARK    1  A    between atoms: C_11  and  N_14 
REMARK    2  A    between atoms: C_13  and  C_21 
REMARK       I    between atoms: N_14  and  C_15 
REMARK    3  A    between atoms: C_15  and  C_16 
REMARK    4  A    between atoms: C_16  and  C_17 
ROOT
HETATM    1  C   UNK     0       8.452  -8.941  -2.395  0.00  0.00     0.016 A 
HETATM    2  C   UNK     0       8.123  -9.681  -1.240  0.00  0.00     0.001 A 
HETATM    3  C   UNK     0       6.772  -9.951  -0.922  0.00  0.00     0.001 A 
HETATM    4  C   UNK     0       5.733  -9.494  -1.760  0.00  0.00     0.013 A 
HETATM    5  C   UNK     0       6.074  -8.768  -2.918  0.00  0.00    -0.011 A 
HETATM    6  C   UNK     0       7.408  -8.488  -3.224  0.00  0.00     0.026 A 
HETATM    7  C   UNK     0       5.286  -8.207  -3.924  0.00  0.00    -0.008 A 
HETATM    8  C   UNK     0       6.122  -7.544  -4.831  0.00  0.00     0.037 A 
HETATM    9  C   UNK     0       7.448  -7.743  -4.404  0.00  0.00     0.195 A 
HETATM   10  C   UNK     0       3.896  -8.253  -4.107  0.00  0.00     0.043 A 
HETATM   11  C   UNK     0       3.319  -7.595  -5.220  0.00  0.00     0.036 A 
HETATM   12  C   UNK     0       4.171  -6.907  -6.120  0.00  0.00     0.043 A 
HETATM   13  C   UNK     0       5.580  -6.855  -5.945  0.00  0.00    -0.009 A 
HETATM   14  O   UNK     0       8.497  -7.358  -4.968  0.00  0.00    -0.287 OA
ENDROOT
BRANCH  13  15
HETATM   15  C   UNK     0       6.386  -6.121  -6.859  0.00  0.00    -0.022 A 
HETATM   16  C   UNK     0       6.681  -4.755  -6.635  0.00  0.00     0.029 A 
HETATM   17  C   UNK     0       7.470  -4.052  -7.563  0.00  0.00     0.088 A 
HETATM   18  N   UNK     0       7.932  -4.684  -8.672  0.00  0.00    -0.375 N 
HETATM   19  C   UNK     0       7.671  -5.991  -8.928  0.00  0.00     0.088 A 
HETATM   20  HN  UNK     0       8.497  -4.157  -9.338  1.00  0.00     0.164 HD
HETATM   21  C   UNK     0       6.896  -6.741  -8.024  0.00  0.00     0.029 A 
ENDBRANCH  13  15
BRANCH  11  22
HETATM   22  N   UNK     0       1.980  -7.605  -5.500  0.00  0.00    -0.327 N 
HETATM   23  C   UNK     0       1.297  -8.455  -6.325  0.00  0.00     0.223 C 
HETATM   24  O   UNK     0       1.845  -9.432  -6.888  0.00  0.00    -0.273 OA
HETATM   25  H   UNK     0       1.445  -6.941  -5.036  0.00  0.00     0.169 HD
BRANCH  23  26
HETATM   26  C   UNK     0      -0.151  -8.255  -6.542  0.00  0.00     0.118 C 
BRANCH  26  27
HETATM   27  C   UNK     0      -0.998  -9.372  -5.885  0.00  0.00     0.124 C 
HETATM   28 Cl   UNK     0      -2.448  -8.712  -5.136  0.00  0.00    -0.130 Cl
ENDBRANCH  26  27
ENDBRANCH  23  26
ENDBRANCH  11  22
TORSDOF 4
ENDMDL
MODEL 9
REMARK VINA RESULT:      -6.1     10.225     11.781
REMARK  4 active torsions:
REMARK  status: ('A' for Active; 'I' for Inactive)
REMARK    1  A    between atoms: C_11  and  N_14 
REMARK    2  A    between atoms: C_13  and  C_21 
REMARK       I    between atoms: N_14  and  C_15 
REMARK    3  A    between atoms: C_15  and  C_16 
REMARK    4  A    between atoms: C_16  and  C_17 
ROOT
HETATM    1  C   UNK     0      -4.345   0.730  -5.461  0.00  0.00     0.016 A 
HETATM    2  C   UNK     0      -4.941   0.579  -4.191  0.00  0.00     0.001 A 
HETATM    3  C   UNK     0      -5.942  -0.396  -3.979  0.00  0.00     0.001 A 
HETATM    4  C   UNK     0      -6.354  -1.241  -5.032  0.00  0.00     0.013 A 
HETATM    5  C   UNK     0      -5.742  -1.090  -6.293  0.00  0.00    -0.011 A 
HETATM    6  C   UNK     0      -4.763  -0.116  -6.505  0.00  0.00     0.026 A 
HETATM    7  C   UNK     0      -5.926  -1.770  -7.498  0.00  0.00    -0.008 A 
HETATM    8  C   UNK     0      -5.096  -1.195  -8.468  0.00  0.00     0.037 A 
HETATM    9  C   UNK     0      -4.353  -0.179  -7.838  0.00  0.00     0.195 A 
HETATM   10  C   UNK     0      -6.753  -2.864  -7.795  0.00  0.00     0.043 A 
HETATM   11  C   UNK     0      -6.768  -3.385  -9.111  0.00  0.00     0.036 A 
HETATM   12  C   UNK     0      -5.942  -2.781 -10.092  0.00  0.00     0.043 A 
HETATM   13  C   UNK     0      -5.100  -1.675  -9.801  0.00  0.00    -0.009 A 
HETATM   14  O   UNK     0      -3.462   0.540  -8.344  0.00  0.00    -0.287 OA
ENDROOT
BRANCH  13  15
HETATM   15  C   UNK     0      -4.317  -1.084 -10.832  0.00  0.00    -0.022 A 
HETATM   16  C   UNK     0      -3.010  -1.551 -11.111  0.00  0.00     0.029 A 
HETATM   17  C   UNK     0      -2.255  -0.938 -12.127  0.00  0.00     0.088 A 
HETATM   18  N   UNK     0      -2.779   0.102 -12.824  0.00  0.00    -0.375 N 
HETATM   19  C   UNK     0      -4.025   0.583 -12.588  0.00  0.00     0.088 A 
HETATM   20  HN  UNK     0      -2.214   0.539 -13.553  1.00  0.00     0.164 HD
HETATM   21  C   UNK     0      -4.825  -0.002 -11.589  0.00  0.00     0.029 A 
ENDBRANCH  13  15
BRANCH  11  22
HETATM   22  N   UNK     0      -7.519  -4.464  -9.493  0.00  0.00    -0.327 N 
HETATM   23  C   UNK     0      -8.831  -4.485  -9.877  0.00  0.00     0.223 C 
HETATM   24  O   UNK     0      -9.511  -3.440 -10.009  0.00  0.00    -0.273 OA
HETATM   25  H   UNK     0      -7.055  -5.316  -9.516  0.00  0.00     0.169 HD
BRANCH  23  26
HETATM   26  C   UNK     0      -9.479  -5.775 -10.191  0.00  0.00     0.118 C 
BRANCH  26  27
HETATM   27  C   UNK     0      -9.617  -6.677  -8.941  0.00  0.00     0.124 C 
HETATM   28 Cl   UNK     0     -10.089  -5.738  -7.528  0.00  0.00    -0.130 Cl
ENDBRANCH  26  27
ENDBRANCH  23  26
ENDBRANCH  11  22
TORSDOF 4
ENDMDL
