MODEL 1
REMARK VINA RESULT:      -6.4      0.000      0.000
REMARK  4 active torsions:
REMARK  status: ('A' for Active; 'I' for Inactive)
REMARK    1  A    between atoms: C_11  and  N_14 
REMARK    2  A    between atoms: C_13  and  C_21 
REMARK       I    between atoms: N_14  and  C_15 
REMARK    3  A    between atoms: C_15  and  C_16 
REMARK    4  A    between atoms: C_16  and  C_17 
ROOT
HETATM    1  C   UNK     0       7.203  -6.562   5.914  0.00  0.00     0.016 A 
HETATM    2  C   UNK     0       7.716  -6.380   7.216  0.00  0.00     0.001 A 
HETATM    3  C   UNK     0       8.900  -5.636   7.422  0.00  0.00     0.001 A 
HETATM    4  C   UNK     0       9.583  -5.056   6.331  0.00  0.00     0.013 A 
HETATM    5  C   UNK     0       9.054  -5.234   5.037  0.00  0.00    -0.011 A 
HETATM    6  C   UNK     0       7.892  -5.981   4.832  0.00  0.00     0.026 A 
HETATM    7  C   UNK     0       9.489  -4.782   3.790  0.00  0.00    -0.008 A 
HETATM    8  C   UNK     0       8.625  -5.281   2.807  0.00  0.00     0.037 A 
HETATM    9  C   UNK     0       7.614  -6.008   3.464  0.00  0.00     0.195 A 
HETATM   10  C   UNK     0      10.572  -3.954   3.462  0.00  0.00     0.043 A 
HETATM   11  C   UNK     0      10.815  -3.632   2.105  0.00  0.00     0.036 A 
HETATM   12  C   UNK     0       9.949  -4.161   1.116  0.00  0.00     0.043 A 
HETATM   13  C   UNK     0       8.848  -4.999   1.436  0.00  0.00    -0.009 A 
HETATM   14  O   UNK     0       6.620  -6.569   2.949  0.00  0.00    -0.287 OA
ENDROOT
BRANCH  13  15
HETATM   15  C   UNK     0       8.030  -5.531   0.401  0.00  0.00    -0.022 A 
HETATM   16  C   UNK     0       8.269  -6.824  -0.124  0.00  0.00     0.029 A 
HETATM   17  C   UNK     0       7.452  -7.317  -1.157  0.00  0.00     0.088 A 
HETATM   18  N   UNK     0       6.450  -6.547  -1.651  0.00  0.00    -0.375 N 
HETATM   19  C   UNK     0       6.187  -5.302  -1.180  0.00  0.00     0.088 A 
HETATM   20  HN  UNK     0       5.871  -6.918  -2.405  1.00  0.00     0.164 HD
HETATM   21  C   UNK     0       6.969  -4.767  -0.140  0.00  0.00     0.029 A 
ENDBRANCH  13  15
BRANCH  11  22
HETATM   22  N   UNK     0      11.828  -2.813   1.687  0.00  0.00    -0.327 N 
HETATM   23  C   UNK     0      13.089  -3.165   1.293  0.00  0.00     0.223 C 
HETATM   24  O   UNK     0      13.452  -4.360   1.184  0.00  0.00    -0.273 OA
HETATM   25  H   UNK     0      11.617  -1.866   1.644  0.00  0.00     0.169 HD
BRANCH  23  26
HETATM   26  C   UNK     0      14.064  -2.112   0.937  0.00  0.00     0.118 C 
BRANCH  26  27
HETATM   27  C   UNK     0      15.483  -2.429   1.466  0.00  0.00     0.124 C 
HETATM   28 Cl   UNK     0      15.518  -2.440   3.226  0.00  0.00    -0.130 Cl
ENDBRANCH  26  27
ENDBRANCH  23  26
ENDBRANCH  11  22
TORSDOF 4
ENDMDL
MODEL 2
REMARK VINA RESULT:      -6.4      2.833      5.925
REMARK  4 active torsions:
REMARK  status: ('A' for Active; 'I' for Inactive)
REMARK    1  A    between atoms: C_11  and  N_14 
REMARK    2  A    between atoms: C_13  and  C_21 
REMARK       I    between atoms: N_14  and  C_15 
REMARK    3  A    between atoms: C_15  and  C_16 
REMARK    4  A    between atoms: C_16  and  C_17 
ROOT
HETATM    1  C   UNK     0      13.594  -4.320  -0.962  0.00  0.00     0.016 A 
HETATM    2  C   UNK     0      14.803  -3.782  -0.472  0.00  0.00     0.001 A 
HETATM    3  C   UNK     0      14.845  -3.145   0.789  0.00  0.00     0.001 A 
HETATM    4  C   UNK     0      13.681  -3.045   1.582  0.00  0.00     0.013 A 
HETATM    5  C   UNK     0      12.483  -3.597   1.087  0.00  0.00    -0.011 A 
HETATM    6  C   UNK     0      12.438  -4.215  -0.165  0.00  0.00     0.026 A 
HETATM    7  C   UNK     0      11.200  -3.663   1.634  0.00  0.00    -0.008 A 
HETATM    8  C   UNK     0      10.350  -4.281   0.708  0.00  0.00     0.037 A 
HETATM    9  C   UNK     0      11.132  -4.646  -0.403  0.00  0.00     0.195 A 
HETATM   10  C   UNK     0      10.734  -3.238   2.887  0.00  0.00     0.043 A 
HETATM   11  C   UNK     0       9.369  -3.414   3.216  0.00  0.00     0.036 A 
HETATM   12  C   UNK     0       8.512  -4.018   2.264  0.00  0.00     0.043 A 
HETATM   13  C   UNK     0       8.973  -4.454   0.993  0.00  0.00    -0.009 A 
HETATM   14  O   UNK     0      10.762  -5.267  -1.426  0.00  0.00    -0.287 OA
ENDROOT
BRANCH  13  15
HETATM   15  C   UNK     0       8.062  -5.024   0.060  0.00  0.00    -0.022 A 
HETATM   16  C   UNK     0       7.543  -4.258  -1.011  0.00  0.00     0.029 A 
HETATM   17  C   UNK     0       6.633  -4.844  -1.909  0.00  0.00     0.088 A 
HETATM   18  N   UNK     0       6.252  -6.136  -1.737  0.00  0.00    -0.375 N 
HETATM   19  C   UNK     0       6.722  -6.905  -0.723  0.00  0.00     0.088 A 
HETATM   20  HN  UNK     0       5.587  -6.543  -2.394  1.00  0.00     0.164 HD
HETATM   21  C   UNK     0       7.642  -6.368   0.197  0.00  0.00     0.029 A 
ENDBRANCH  13  15
BRANCH  11  22
HETATM   22  N   UNK     0       8.826  -3.057   4.421  0.00  0.00    -0.327 N 
HETATM   23  C   UNK     0       8.647  -3.837   5.529  0.00  0.00     0.223 C 
HETATM   24  O   UNK     0       9.063  -5.018   5.596  0.00  0.00    -0.273 OA
HETATM   25  H   UNK     0       8.555  -2.129   4.505  0.00  0.00     0.169 HD
BRANCH  23  26
HETATM   26  C   UNK     0       7.976  -3.273   6.719  0.00  0.00     0.118 C 
BRANCH  26  27
HETATM   27  C   UNK     0       7.898  -4.292   7.881  0.00  0.00     0.124 C 
HETATM   28 Cl   UNK     0       6.737  -3.777   9.101  0.00  0.00    -0.130 Cl
ENDBRANCH  26  27
ENDBRANCH  23  26
ENDBRANCH  11  22
TORSDOF 4
ENDMDL
MODEL 3
REMARK VINA RESULT:      -6.2      4.158      7.639
REMARK  4 active torsions:
REMARK  status: ('A' for Active; 'I' for Inactive)
REMARK    1  A    between atoms: C_11  and  N_14 
REMARK    2  A    between atoms: C_13  and  C_21 
REMARK       I    between atoms: N_14  and  C_15 
REMARK    3  A    between atoms: C_15  and  C_16 
REMARK    4  A    between atoms: C_16  and  C_17 
ROOT
HETATM    1  C   UNK     0       7.380  -3.939  -1.315  0.00  0.00     0.016 A 
HETATM    2  C   UNK     0       7.128  -4.234  -2.672  0.00  0.00     0.001 A 
HETATM    3  C   UNK     0       7.156  -5.569  -3.133  0.00  0.00     0.001 A 
HETATM    4  C   UNK     0       7.427  -6.630  -2.242  0.00  0.00     0.013 A 
HETATM    5  C   UNK     0       7.664  -6.325  -0.887  0.00  0.00    -0.011 A 
HETATM    6  C   UNK     0       7.650  -5.004  -0.434  0.00  0.00     0.026 A 
HETATM    7  C   UNK     0       7.942  -7.142   0.210  0.00  0.00    -0.008 A 
HETATM    8  C   UNK     0       8.143  -6.330   1.333  0.00  0.00     0.037 A 
HETATM    9  C   UNK     0       7.935  -4.997   0.932  0.00  0.00     0.195 A 
HETATM   10  C   UNK     0       8.013  -8.540   0.294  0.00  0.00     0.043 A 
HETATM   11  C   UNK     0       8.317  -9.147   1.537  0.00  0.00     0.036 A 
HETATM   12  C   UNK     0       8.542  -8.317   2.662  0.00  0.00     0.043 A 
HETATM   13  C   UNK     0       8.472  -6.900   2.589  0.00  0.00    -0.009 A 
HETATM   14  O   UNK     0       7.968  -3.971   1.649  0.00  0.00    -0.287 OA
ENDROOT
BRANCH  13  15
HETATM   15  C   UNK     0       8.741  -6.111   3.742  0.00  0.00    -0.022 A 
HETATM   16  C   UNK     0       7.711  -5.785   4.657  0.00  0.00     0.029 A 
HETATM   17  C   UNK     0       8.005  -4.992   5.781  0.00  0.00     0.088 A 
HETATM   18  N   UNK     0       9.269  -4.537   5.975  0.00  0.00    -0.375 N 
HETATM   19  C   UNK     0      10.285  -4.822   5.122  0.00  0.00     0.088 A 
HETATM   20  HN  UNK     0       9.462  -3.958   6.792  1.00  0.00     0.164 HD
HETATM   21  C   UNK     0      10.045  -5.620   3.988  0.00  0.00     0.029 A 
ENDBRANCH  13  15
BRANCH  11  22
HETATM   22  N   UNK     0       8.382 -10.501   1.726  0.00  0.00    -0.327 N 
HETATM   23  C   UNK     0       9.475 -11.316   1.618  0.00  0.00     0.223 C 
HETATM   24  O   UNK     0      10.627 -10.873   1.401  0.00  0.00    -0.273 OA
HETATM   25  H   UNK     0       7.554 -10.932   1.992  0.00  0.00     0.169 HD
BRANCH  23  26
HETATM   26  C   UNK     0       9.319 -12.774   1.801  0.00  0.00     0.118 C 
BRANCH  26  27
HETATM   27  C   UNK     0       7.886 -13.253   1.464  0.00  0.00     0.124 C 
HETATM   28 Cl   UNK     0       7.634 -13.328  -0.277  0.00  0.00    -0.130 Cl
ENDBRANCH  26  27
ENDBRANCH  23  26
ENDBRANCH  11  22
TORSDOF 4
ENDMDL
MODEL 4
REMARK VINA RESULT:      -6.2      4.629      7.808
REMARK  4 active torsions:
REMARK  status: ('A' for Active; 'I' for Inactive)
REMARK    1  A    between atoms: C_11  and  N_14 
REMARK    2  A    between atoms: C_13  and  C_21 
REMARK       I    between atoms: N_14  and  C_15 
REMARK    3  A    between atoms: C_15  and  C_16 
REMARK    4  A    between atoms: C_16  and  C_17 
ROOT
HETATM    1  C   UNK     0      11.385  -7.475  11.097  0.00  0.00     0.016 A 
HETATM    2  C   UNK     0      12.325  -8.416  10.624  0.00  0.00     0.001 A 
HETATM    3  C   UNK     0      12.649  -8.477   9.250  0.00  0.00     0.001 A 
HETATM    4  C   UNK     0      12.047  -7.592   8.330  0.00  0.00     0.013 A 
HETATM    5  C   UNK     0      11.120  -6.648   8.816  0.00  0.00    -0.011 A 
HETATM    6  C   UNK     0      10.789  -6.598  10.172  0.00  0.00     0.026 A 
HETATM    7  C   UNK     0      10.384  -5.655   8.167  0.00  0.00    -0.008 A 
HETATM    8  C   UNK     0       9.566  -5.017   9.107  0.00  0.00     0.037 A 
HETATM    9  C   UNK     0       9.840  -5.591  10.362  0.00  0.00     0.195 A 
HETATM   10  C   UNK     0      10.396  -5.264   6.820  0.00  0.00     0.043 A 
HETATM   11  C   UNK     0       9.546  -4.215   6.393  0.00  0.00     0.036 A 
HETATM   12  C   UNK     0       8.705  -3.591   7.347  0.00  0.00     0.043 A 
HETATM   13  C   UNK     0       8.685  -3.979   8.714  0.00  0.00    -0.009 A 
HETATM   14  O   UNK     0       9.357  -5.267  11.472  0.00  0.00    -0.287 OA
ENDROOT
BRANCH  13  15
HETATM   15  C   UNK     0       7.796  -3.342   9.624  0.00  0.00    -0.022 A 
HETATM   16  C   UNK     0       6.470  -3.809   9.793  0.00  0.00     0.029 A 
HETATM   17  C   UNK     0       5.610  -3.150  10.690  0.00  0.00     0.088 A 
HETATM   18  N   UNK     0       6.052  -2.067  11.377  0.00  0.00    -0.375 N 
HETATM   19  C   UNK     0       7.313  -1.584  11.243  0.00  0.00     0.088 A 
HETATM   20  HN  UNK     0       5.412  -1.598  12.018  1.00  0.00     0.164 HD
HETATM   21  C   UNK     0       8.215  -2.213  10.367  0.00  0.00     0.029 A 
ENDBRANCH  13  15
BRANCH  11  22
HETATM   22  N   UNK     0       9.505  -3.744   5.109  0.00  0.00    -0.327 N 
HETATM   23  C   UNK     0       8.710  -4.168   4.081  0.00  0.00     0.223 C 
HETATM   24  O   UNK     0       7.816  -5.034   4.233  0.00  0.00    -0.273 OA
HETATM   25  H   UNK     0      10.098  -3.002   4.911  0.00  0.00     0.169 HD
BRANCH  23  26
HETATM   26  C   UNK     0       8.868  -3.565   2.740  0.00  0.00     0.118 C 
BRANCH  26  27
HETATM   27  C   UNK     0       9.060  -4.636   1.640  0.00  0.00     0.124 C 
HETATM   28 Cl   UNK     0       7.688  -4.670   0.538  0.00  0.00    -0.130 Cl
ENDBRANCH  26  27
ENDBRANCH  23  26
ENDBRANCH  11  22
TORSDOF 4
ENDMDL
MODEL 5
REMARK VINA RESULT:      -6.1      2.001      5.059
REMARK  4 active torsions:
REMARK  status: ('A' for Active; 'I' for Inactive)
REMARK    1  A    between atoms: C_11  and  N_14 
REMARK    2  A    between atoms: C_13  and  C_21 
REMARK       I    between atoms: N_14  and  C_15 
REMARK    3  A    between atoms: C_15  and  C_16 
REMARK    4  A    between atoms: C_16  and  C_17 
ROOT
HETATM    1  C   UNK     0       6.379  -5.782  -0.990  0.00  0.00     0.016 A 
HETATM    2  C   UNK     0       6.433  -5.168  -2.259  0.00  0.00     0.001 A 
HETATM    3  C   UNK     0       7.472  -4.264  -2.575  0.00  0.00     0.001 A 
HETATM    4  C   UNK     0       8.477  -3.968  -1.629  0.00  0.00     0.013 A 
HETATM    5  C   UNK     0       8.420  -4.596  -0.369  0.00  0.00    -0.011 A 
HETATM    6  C   UNK     0       7.384  -5.479  -0.053  0.00  0.00     0.026 A 
HETATM    7  C   UNK     0       9.257  -4.515   0.744  0.00  0.00    -0.008 A 
HETATM    8  C   UNK     0       8.723  -5.310   1.766  0.00  0.00     0.037 A 
HETATM    9  C   UNK     0       7.567  -5.931   1.256  0.00  0.00     0.195 A 
HETATM   10  C   UNK     0      10.458  -3.810   0.916  0.00  0.00     0.043 A 
HETATM   11  C   UNK     0      11.135  -3.883   2.157  0.00  0.00     0.036 A 
HETATM   12  C   UNK     0      10.575  -4.672   3.192  0.00  0.00     0.043 A 
HETATM   13  C   UNK     0       9.360  -5.391   3.029  0.00  0.00    -0.009 A 
HETATM   14  O   UNK     0       6.828  -6.760   1.834  0.00  0.00    -0.287 OA
ENDROOT
BRANCH  13  15
HETATM   15  C   UNK     0       8.823  -6.141   4.113  0.00  0.00    -0.022 A 
HETATM   16  C   UNK     0       7.883  -5.565   5.001  0.00  0.00     0.029 A 
HETATM   17  C   UNK     0       7.381  -6.326   6.071  0.00  0.00     0.088 A 
HETATM   18  N   UNK     0       7.808  -7.602   6.251  0.00  0.00    -0.375 N 
HETATM   19  C   UNK     0       8.710  -8.192   5.427  0.00  0.00     0.088 A 
HETATM   20  HN  UNK     0       7.437  -8.137   7.037  1.00  0.00     0.164 HD
HETATM   21  C   UNK     0       9.235  -7.476   4.335  0.00  0.00     0.029 A 
ENDBRANCH  13  15
BRANCH  11  22
HETATM   22  N   UNK     0      12.323  -3.254   2.413  0.00  0.00    -0.327 N 
HETATM   23  C   UNK     0      13.588  -3.707   2.157  0.00  0.00     0.223 C 
HETATM   24  O   UNK     0      13.810  -4.779   1.546  0.00  0.00    -0.273 OA
HETATM   25  H   UNK     0      12.258  -2.368   2.803  0.00  0.00     0.169 HD
BRANCH  23  26
HETATM   26  C   UNK     0      14.752  -2.895   2.573  0.00  0.00     0.118 C 
BRANCH  26  27
HETATM   27  C   UNK     0      15.427  -2.188   1.373  0.00  0.00     0.124 C 
HETATM   28 Cl   UNK     0      14.472  -0.814   0.826  0.00  0.00    -0.130 Cl
ENDBRANCH  26  27
ENDBRANCH  23  26
ENDBRANCH  11  22
TORSDOF 4
ENDMDL
MODEL 6
REMARK VINA RESULT:      -6.1      3.890      5.068
REMARK  4 active torsions:
REMARK  status: ('A' for Active; 'I' for Inactive)
REMARK    1  A    between atoms: C_11  and  N_14 
REMARK    2  A    between atoms: C_13  and  C_21 
REMARK       I    between atoms: N_14  and  C_15 
REMARK    3  A    between atoms: C_15  and  C_16 
REMARK    4  A    between atoms: C_16  and  C_17 
ROOT
HETATM    1  C   UNK     0       8.627  -6.482   6.787  0.00  0.00     0.016 A 
HETATM    2  C   UNK     0       8.356  -5.275   7.466  0.00  0.00     0.001 A 
HETATM    3  C   UNK     0       8.173  -4.073   6.747  0.00  0.00     0.001 A 
HETATM    4  C   UNK     0       8.248  -4.062   5.337  0.00  0.00     0.013 A 
HETATM    5  C   UNK     0       8.505  -5.276   4.669  0.00  0.00    -0.011 A 
HETATM    6  C   UNK     0       8.700  -6.462   5.382  0.00  0.00     0.026 A 
HETATM    7  C   UNK     0       8.623  -5.578   3.312  0.00  0.00    -0.008 A 
HETATM    8  C   UNK     0       8.933  -6.938   3.180  0.00  0.00     0.037 A 
HETATM    9  C   UNK     0       8.955  -7.491   4.474  0.00  0.00     0.195 A 
HETATM   10  C   UNK     0       8.460  -4.752   2.190  0.00  0.00     0.043 A 
HETATM   11  C   UNK     0       8.636  -5.296   0.895  0.00  0.00     0.036 A 
HETATM   12  C   UNK     0       8.972  -6.667   0.773  0.00  0.00     0.043 A 
HETATM   13  C   UNK     0       9.138  -7.513   1.902  0.00  0.00    -0.009 A 
HETATM   14  O   UNK     0       9.143  -8.689   4.789  0.00  0.00    -0.287 OA
ENDROOT
BRANCH  13  15
HETATM   15  C   UNK     0       9.510  -8.875   1.724  0.00  0.00    -0.022 A 
HETATM   16  C   UNK     0       8.538  -9.866   1.446  0.00  0.00     0.029 A 
HETATM   17  C   UNK     0       8.935 -11.206   1.290  0.00  0.00     0.088 A 
HETATM   18  N   UNK     0      10.244 -11.541   1.417  0.00  0.00    -0.375 N 
HETATM   19  C   UNK     0      11.208 -10.625   1.686  0.00  0.00     0.088 A 
HETATM   20  HN  UNK     0      10.512 -12.519   1.306  1.00  0.00     0.164 HD
HETATM   21  C   UNK     0      10.864  -9.270   1.841  0.00  0.00     0.029 A 
ENDBRANCH  13  15
BRANCH  11  22
HETATM   22  N   UNK     0       8.473  -4.579  -0.260  0.00  0.00    -0.327 N 
HETATM   23  C   UNK     0       7.322  -4.375  -0.970  0.00  0.00     0.223 C 
HETATM   24  O   UNK     0       6.204  -4.779  -0.571  0.00  0.00    -0.273 OA
HETATM   25  H   UNK     0       9.269  -4.143  -0.603  0.00  0.00     0.169 HD
BRANCH  23  26
HETATM   26  C   UNK     0       7.371  -3.616  -2.237  0.00  0.00     0.118 C 
BRANCH  26  27
HETATM   27  C   UNK     0       7.746  -4.516  -3.440  0.00  0.00     0.124 C 
HETATM   28 Cl   UNK     0       6.461  -5.665  -3.798  0.00  0.00    -0.130 Cl
ENDBRANCH  26  27
ENDBRANCH  23  26
ENDBRANCH  11  22
TORSDOF 4
ENDMDL
MODEL 7
REMARK VINA RESULT:      -6.0      3.913      5.499
REMARK  4 active torsions:
REMARK  status: ('A' for Active; 'I' for Inactive)
REMARK    1  A    between atoms: C_11  and  N_14 
REMARK    2  A    between atoms: C_13  and  C_21 
REMARK       I    between atoms: N_14  and  C_15 
REMARK    3  A    between atoms: C_15  and  C_16 
REMARK    4  A    between atoms: C_16  and  C_17 
ROOT
HETATM    1  C   UNK     0       8.462  -3.701   5.686  0.00  0.00     0.016 A 
HETATM    2  C   UNK     0       8.402  -4.095   7.040  0.00  0.00     0.001 A 
HETATM    3  C   UNK     0       8.340  -5.464   7.386  0.00  0.00     0.001 A 
HETATM    4  C   UNK     0       8.347  -6.459   6.384  0.00  0.00     0.013 A 
HETATM    5  C   UNK     0       8.420  -6.054   5.037  0.00  0.00    -0.011 A 
HETATM    6  C   UNK     0       8.467  -4.700   4.694  0.00  0.00     0.026 A 
HETATM    7  C   UNK     0       8.455  -6.788   3.851  0.00  0.00    -0.008 A 
HETATM    8  C   UNK     0       8.480  -5.897   2.771  0.00  0.00     0.037 A 
HETATM    9  C   UNK     0       8.513  -4.594   3.303  0.00  0.00     0.195 A 
HETATM   10  C   UNK     0       8.484  -8.177   3.654  0.00  0.00     0.043 A 
HETATM   11  C   UNK     0       8.516  -8.692   2.336  0.00  0.00     0.036 A 
HETATM   12  C   UNK     0       8.517  -7.782   1.250  0.00  0.00     0.043 A 
HETATM   13  C   UNK     0       8.489  -6.374   1.437  0.00  0.00    -0.009 A 
HETATM   14  O   UNK     0       8.593  -3.514   2.673  0.00  0.00    -0.287 OA
ENDROOT
BRANCH  13  15
HETATM   15  C   UNK     0       8.457  -5.505   0.311  0.00  0.00    -0.022 A 
HETATM   16  C   UNK     0       9.655  -5.024  -0.272  0.00  0.00     0.029 A 
HETATM   17  C   UNK     0       9.590  -4.155  -1.376  0.00  0.00     0.088 A 
HETATM   18  N   UNK     0       8.383  -3.776  -1.867  0.00  0.00    -0.375 N 
HETATM   19  C   UNK     0       7.212  -4.210  -1.338  0.00  0.00     0.088 A 
HETATM   20  HN  UNK     0       8.356  -3.140  -2.665  1.00  0.00     0.164 HD
HETATM   21  C   UNK     0       7.222  -5.089  -0.239  0.00  0.00     0.029 A 
ENDBRANCH  13  15
BRANCH  11  22
HETATM   22  N   UNK     0       8.573 -10.028   2.043  0.00  0.00    -0.327 N 
HETATM   23  C   UNK     0       9.683 -10.811   1.892  0.00  0.00     0.223 C 
HETATM   24  O   UNK     0      10.843 -10.383   2.100  0.00  0.00    -0.273 OA
HETATM   25  H   UNK     0       7.718 -10.479   1.954  0.00  0.00     0.169 HD
BRANCH  23  26
HETATM   26  C   UNK     0       9.529 -12.230   1.508  0.00  0.00     0.118 C 
BRANCH  26  27
HETATM   27  C   UNK     0       8.055 -12.597   1.214  0.00  0.00     0.124 C 
HETATM   28 Cl   UNK     0       7.750 -12.660  -0.519  0.00  0.00    -0.130 Cl
ENDBRANCH  26  27
ENDBRANCH  23  26
ENDBRANCH  11  22
TORSDOF 4
ENDMDL
MODEL 8
REMARK VINA RESULT:      -6.0      3.161      6.958
REMARK  4 active torsions:
REMARK  status: ('A' for Active; 'I' for Inactive)
REMARK    1  A    between atoms: C_11  and  N_14 
REMARK    2  A    between atoms: C_13  and  C_21 
REMARK       I    between atoms: N_14  and  C_15 
REMARK    3  A    between atoms: C_15  and  C_16 
REMARK    4  A    between atoms: C_16  and  C_17 
ROOT
HETATM    1  C   UNK     0       8.879  -5.186  -2.459  0.00  0.00     0.016 A 
HETATM    2  C   UNK     0       7.522  -5.474  -2.717  0.00  0.00     0.001 A 
HETATM    3  C   UNK     0       6.557  -5.360  -1.691  0.00  0.00     0.001 A 
HETATM    4  C   UNK     0       6.934  -4.947  -0.395  0.00  0.00     0.013 A 
HETATM    5  C   UNK     0       8.289  -4.649  -0.153  0.00  0.00    -0.011 A 
HETATM    6  C   UNK     0       9.245  -4.776  -1.163  0.00  0.00     0.026 A 
HETATM    7  C   UNK     0       8.950  -4.215   0.998  0.00  0.00    -0.008 A 
HETATM    8  C   UNK     0      10.318  -4.113   0.718  0.00  0.00     0.037 A 
HETATM    9  C   UNK     0      10.495  -4.440  -0.640  0.00  0.00     0.195 A 
HETATM   10  C   UNK     0       8.434  -3.889   2.261  0.00  0.00     0.043 A 
HETATM   11  C   UNK     0       9.317  -3.469   3.285  0.00  0.00     0.036 A 
HETATM   12  C   UNK     0      10.703  -3.391   2.998  0.00  0.00     0.043 A 
HETATM   13  C   UNK     0      11.236  -3.718   1.722  0.00  0.00    -0.009 A 
HETATM   14  O   UNK     0      11.561  -4.420  -1.297  0.00  0.00    -0.287 OA
ENDROOT
BRANCH  13  15
HETATM   15  C   UNK     0      12.639  -3.656   1.498  0.00  0.00    -0.022 A 
HETATM   16  C   UNK     0      13.255  -2.458   1.062  0.00  0.00     0.029 A 
HETATM   17  C   UNK     0      14.643  -2.431   0.836  0.00  0.00     0.088 A 
HETATM   18  N   UNK     0      15.380  -3.555   1.026  0.00  0.00    -0.375 N 
HETATM   19  C   UNK     0      14.830  -4.725   1.440  0.00  0.00     0.088 A 
HETATM   20  HN  UNK     0      16.384  -3.519   0.851  1.00  0.00     0.164 HD
HETATM   21  C   UNK     0      13.448  -4.801   1.690  0.00  0.00     0.029 A 
ENDBRANCH  13  15
BRANCH  11  22
HETATM   22  N   UNK     0       8.909  -3.103   4.539  0.00  0.00    -0.327 N 
HETATM   23  C   UNK     0       8.579  -3.916   5.588  0.00  0.00     0.223 C 
HETATM   24  O   UNK     0       8.702  -5.162   5.539  0.00  0.00    -0.273 OA
HETATM   25  H   UNK     0       8.871  -2.149   4.711  0.00  0.00     0.169 HD
BRANCH  23  26
HETATM   26  C   UNK     0       8.096  -3.318   6.850  0.00  0.00     0.118 C 
BRANCH  26  27
HETATM   27  C   UNK     0       7.778  -4.391   7.919  0.00  0.00     0.124 C 
HETATM   28 Cl   UNK     0       6.759  -3.735   9.196  0.00  0.00    -0.130 Cl
ENDBRANCH  26  27
ENDBRANCH  23  26
ENDBRANCH  11  22
TORSDOF 4
ENDMDL
MODEL 9
REMARK VINA RESULT:      -5.9     12.008     14.516
REMARK  4 active torsions:
REMARK  status: ('A' for Active; 'I' for Inactive)
REMARK    1  A    between atoms: C_11  and  N_14 
REMARK    2  A    between atoms: C_13  and  C_21 
REMARK       I    between atoms: N_14  and  C_15 
REMARK    3  A    between atoms: C_15  and  C_16 
REMARK    4  A    between atoms: C_16  and  C_17 
ROOT
HETATM    1  C   UNK     0      -4.257 -14.179   7.324  0.00  0.00     0.016 A 
HETATM    2  C   UNK     0      -5.638 -13.980   7.115  0.00  0.00     0.001 A 
HETATM    3  C   UNK     0      -6.104 -13.383   5.922  0.00  0.00     0.001 A 
HETATM    4  C   UNK     0      -5.197 -12.985   4.917  0.00  0.00     0.013 A 
HETATM    5  C   UNK     0      -3.821 -13.201   5.131  0.00  0.00    -0.011 A 
HETATM    6  C   UNK     0      -3.359 -13.778   6.316  0.00  0.00     0.026 A 
HETATM    7  C   UNK     0      -2.707 -12.930   4.335  0.00  0.00    -0.008 A 
HETATM    8  C   UNK     0      -1.553 -13.298   5.038  0.00  0.00     0.037 A 
HETATM    9  C   UNK     0      -1.966 -13.850   6.265  0.00  0.00     0.195 A 
HETATM   10  C   UNK     0      -2.637 -12.403   3.036  0.00  0.00     0.043 A 
HETATM   11  C   UNK     0      -1.372 -12.216   2.429  0.00  0.00     0.036 A 
HETATM   12  C   UNK     0      -0.209 -12.569   3.158  0.00  0.00     0.043 A 
HETATM   13  C   UNK     0      -0.268 -13.105   4.473  0.00  0.00    -0.009 A 
HETATM   14  O   UNK     0      -1.245 -14.347   7.159  0.00  0.00    -0.287 OA
ENDROOT
BRANCH  13  15
HETATM   15  C   UNK     0       0.932 -13.410   5.173  0.00  0.00    -0.022 A 
HETATM   16  C   UNK     0       1.637 -14.612   4.920  0.00  0.00     0.029 A 
HETATM   17  C   UNK     0       2.813 -14.892   5.639  0.00  0.00     0.088 A 
HETATM   18  N   UNK     0       3.257 -14.016   6.576  0.00  0.00    -0.375 N 
HETATM   19  C   UNK     0       2.612 -12.855   6.852  0.00  0.00     0.088 A 
HETATM   20  HN  UNK     0       4.109 -14.239   7.091  1.00  0.00     0.164 HD
HETATM   21  C   UNK     0       1.436 -12.523   6.154  0.00  0.00     0.029 A 
ENDBRANCH  13  15
BRANCH  11  22
HETATM   22  N   UNK     0      -1.201 -11.735   1.159  0.00  0.00    -0.327 N 
HETATM   23  C   UNK     0      -1.449 -10.473   0.696  0.00  0.00     0.223 C 
HETATM   24  O   UNK     0      -1.804  -9.536   1.449  0.00  0.00    -0.273 OA
HETATM   25  H   UNK     0      -0.838 -12.362   0.514  0.00  0.00     0.169 HD
BRANCH  23  26
HETATM   26  C   UNK     0      -1.258 -10.171  -0.739  0.00  0.00     0.118 C 
BRANCH  26  27
HETATM   27  C   UNK     0      -1.896  -8.820  -1.139  0.00  0.00     0.124 C 
HETATM   28 Cl   UNK     0      -1.305  -8.278  -2.707  0.00  0.00    -0.130 Cl
ENDBRANCH  26  27
ENDBRANCH  23  26
ENDBRANCH  11  22
TORSDOF 4
ENDMDL
