MODEL 1
REMARK VINA RESULT:      -6.5      0.000      0.000
REMARK  2 active torsions:
REMARK  status: ('A' for Active; 'I' for Inactive)
REMARK    1  A    between atoms: C_10  and  C_17 
REMARK    2  A    between atoms: C_12  and  N_14 
ROOT
HETATM    1  C   UNK     0       7.938  -5.828   6.753  0.00  0.00     0.013 A 
HETATM    2  C   UNK     0       7.206  -6.743   7.538  0.00  0.00     0.001 A 
HETATM    3  C   UNK     0       6.397  -7.726   6.926  0.00  0.00     0.001 A 
HETATM    4  C   UNK     0       6.304  -7.801   5.521  0.00  0.00     0.008 A 
HETATM    5  C   UNK     0       7.038  -6.883   4.744  0.00  0.00    -0.043 A 
HETATM    6  C   UNK     0       7.841  -5.912   5.351  0.00  0.00    -0.019 A 
HETATM    7  C   UNK     0       7.091  -6.785   3.281  0.00  0.00     0.080 A 
HETATM    8  C   UNK     0       8.029  -5.654   3.104  0.00  0.00    -0.032 A 
HETATM    9  C   UNK     0       8.433  -5.148   4.347  0.00  0.00    -0.016 A 
HETATM   10  C   UNK     0       8.483  -5.064   1.897  0.00  0.00    -0.016 A 
HETATM   11  C   UNK     0       9.316  -3.920   1.993  0.00  0.00     0.042 A 
HETATM   12  C   UNK     0       9.695  -3.392   3.249  0.00  0.00     0.027 A 
HETATM   13  C   UNK     0       9.270  -4.021   4.439  0.00  0.00     0.042 A 
ENDROOT
BRANCH  10  14
HETATM   14  C   UNK     0       8.091  -5.565   0.625  0.00  0.00    -0.023 A 
HETATM   15  C   UNK     0       8.878  -6.532  -0.038  0.00  0.00     0.029 A 
HETATM   16  C   UNK     0       8.503  -6.986  -1.316  0.00  0.00     0.090 A 
HETATM   17  N   UNK     0       7.380  -6.506  -1.936  0.00  0.00    -0.371 N 
HETATM   18  C   UNK     0       6.593  -5.581  -1.302  0.00  0.00     0.090 A 
HETATM   19  C   UNK     0       7.010  -6.997  -3.241  0.00  0.00     0.154 C 
HETATM   20  C   UNK     0       6.921  -5.106  -0.019  0.00  0.00     0.029 A 
ENDBRANCH  10  14
BRANCH  12  21
HETATM   21  N   UNK     0      10.446  -2.274   3.314  0.00  0.00    -0.399 N 
HETATM   22  H   UNK     0      11.170  -2.136   2.680  0.00  0.00     0.156 HD
HETATM   23  H   UNK     0      10.262  -1.601   3.988  0.00  0.00     0.156 HD
ENDBRANCH  12  21
TORSDOF 2
ENDMDL
MODEL 2
REMARK VINA RESULT:      -6.1      2.542      3.761
REMARK  2 active torsions:
REMARK  status: ('A' for Active; 'I' for Inactive)
REMARK    1  A    between atoms: C_10  and  C_17 
REMARK    2  A    between atoms: C_12  and  N_14 
ROOT
HETATM    1  C   UNK     0       8.603  -6.036   8.768  0.00  0.00     0.013 A 
HETATM    2  C   UNK     0       8.308  -4.956   9.628  0.00  0.00     0.001 A 
HETATM    3  C   UNK     0       7.907  -3.709   9.100  0.00  0.00     0.001 A 
HETATM    4  C   UNK     0       7.801  -3.524   7.706  0.00  0.00     0.008 A 
HETATM    5  C   UNK     0       8.097  -4.607   6.855  0.00  0.00    -0.043 A 
HETATM    6  C   UNK     0       8.492  -5.842   7.378  0.00  0.00    -0.019 A 
HETATM    7  C   UNK     0       8.049  -4.637   5.388  0.00  0.00     0.080 A 
HETATM    8  C   UNK     0       8.448  -6.035   5.117  0.00  0.00    -0.032 A 
HETATM    9  C   UNK     0       8.725  -6.711   6.314  0.00  0.00    -0.016 A 
HETATM   10  C   UNK     0       8.600  -6.684   3.865  0.00  0.00    -0.016 A 
HETATM   11  C   UNK     0       9.087  -8.016   3.865  0.00  0.00     0.042 A 
HETATM   12  C   UNK     0       9.397  -8.683   5.073  0.00  0.00     0.027 A 
HETATM   13  C   UNK     0       9.195  -8.037   6.311  0.00  0.00     0.042 A 
ENDROOT
BRANCH  10  14
HETATM   14  C   UNK     0       8.318  -6.020   2.639  0.00  0.00    -0.023 A 
HETATM   15  C   UNK     0       7.266  -6.464   1.809  0.00  0.00     0.029 A 
HETATM   16  C   UNK     0       7.027  -5.826   0.577  0.00  0.00     0.090 A 
HETATM   17  N   UNK     0       7.800  -4.773   0.164  0.00  0.00    -0.371 N 
HETATM   18  C   UNK     0       8.813  -4.315   0.964  0.00  0.00     0.090 A 
HETATM   19  C   UNK     0       7.526  -4.129  -1.097  0.00  0.00     0.154 C 
HETATM   20  C   UNK     0       9.083  -4.913   2.208  0.00  0.00     0.029 A 
ENDBRANCH  10  14
BRANCH  12  21
HETATM   21  N   UNK     0       9.906  -9.932   5.044  0.00  0.00    -0.399 N 
HETATM   22  H   UNK     0       9.937 -10.464   5.856  0.00  0.00     0.156 HD
HETATM   23  H   UNK     0      10.236 -10.305   4.211  0.00  0.00     0.156 HD
ENDBRANCH  12  21
TORSDOF 2
ENDMDL
MODEL 3
REMARK VINA RESULT:      -6.1      2.488      6.676
REMARK  2 active torsions:
REMARK  status: ('A' for Active; 'I' for Inactive)
REMARK    1  A    between atoms: C_10  and  C_17 
REMARK    2  A    between atoms: C_12  and  N_14 
ROOT
HETATM    1  C   UNK     0       8.578  -4.933  -3.106  0.00  0.00     0.013 A 
HETATM    2  C   UNK     0       7.364  -5.279  -3.736  0.00  0.00     0.001 A 
HETATM    3  C   UNK     0       6.188  -5.461  -2.975  0.00  0.00     0.001 A 
HETATM    4  C   UNK     0       6.213  -5.306  -1.573  0.00  0.00     0.008 A 
HETATM    5  C   UNK     0       7.430  -4.961  -0.952  0.00  0.00    -0.043 A 
HETATM    6  C   UNK     0       8.593  -4.778  -1.707  0.00  0.00    -0.019 A 
HETATM    7  C   UNK     0       7.680  -4.747   0.478  0.00  0.00     0.080 A 
HETATM    8  C   UNK     0       9.120  -4.405   0.469  0.00  0.00    -0.032 A 
HETATM    9  C   UNK     0       9.631  -4.456  -0.835  0.00  0.00    -0.016 A 
HETATM   10  C   UNK     0       9.961  -4.097   1.568  0.00  0.00    -0.016 A 
HETATM   11  C   UNK     0      11.341  -3.892   1.307  0.00  0.00     0.042 A 
HETATM   12  C   UNK     0      11.859  -3.977  -0.005  0.00  0.00     0.027 A 
HETATM   13  C   UNK     0      10.998  -4.240  -1.091  0.00  0.00     0.042 A 
ENDROOT
BRANCH  10  14
HETATM   14  C   UNK     0       9.462  -4.033   2.898  0.00  0.00    -0.023 A 
HETATM   15  C   UNK     0       9.656  -2.874   3.681  0.00  0.00     0.029 A 
HETATM   16  C   UNK     0       9.196  -2.841   5.011  0.00  0.00     0.090 A 
HETATM   17  N   UNK     0       8.558  -3.918   5.566  0.00  0.00    -0.371 N 
HETATM   18  C   UNK     0       8.343  -5.045   4.817  0.00  0.00     0.090 A 
HETATM   19  C   UNK     0       8.086  -3.854   6.927  0.00  0.00     0.154 C 
HETATM   20  C   UNK     0       8.775  -5.121   3.480  0.00  0.00     0.029 A 
ENDBRANCH  10  14
BRANCH  12  21
HETATM   21  N   UNK     0      13.182  -3.828  -0.220  0.00  0.00    -0.399 N 
HETATM   22  H   UNK     0      13.813  -3.972   0.505  0.00  0.00     0.156 HD
HETATM   23  H   UNK     0      13.509  -3.584  -1.100  0.00  0.00     0.156 HD
ENDBRANCH  12  21
TORSDOF 2
ENDMDL
MODEL 4
REMARK VINA RESULT:      -6.1      1.978      6.238
REMARK  2 active torsions:
REMARK  status: ('A' for Active; 'I' for Inactive)
REMARK    1  A    between atoms: C_10  and  C_17 
REMARK    2  A    between atoms: C_12  and  N_14 
ROOT
HETATM    1  C   UNK     0       8.424  -4.312  -2.517  0.00  0.00     0.013 A 
HETATM    2  C   UNK     0       7.395  -4.682  -3.408  0.00  0.00     0.001 A 
HETATM    3  C   UNK     0       6.271  -5.402  -2.945  0.00  0.00     0.001 A 
HETATM    4  C   UNK     0       6.166  -5.768  -1.587  0.00  0.00     0.008 A 
HETATM    5  C   UNK     0       7.199  -5.395  -0.704  0.00  0.00    -0.043 A 
HETATM    6  C   UNK     0       8.310  -4.679  -1.162  0.00  0.00    -0.019 A 
HETATM    7  C   UNK     0       7.291  -5.664   0.736  0.00  0.00     0.080 A 
HETATM    8  C   UNK     0       8.577  -5.012   1.067  0.00  0.00    -0.032 A 
HETATM    9  C   UNK     0       9.162  -4.460  -0.082  0.00  0.00    -0.016 A 
HETATM   10  C   UNK     0       9.231  -4.935   2.323  0.00  0.00    -0.016 A 
HETATM   11  C   UNK     0      10.513  -4.328   2.365  0.00  0.00     0.042 A 
HETATM   12  C   UNK     0      11.114  -3.803   1.199  0.00  0.00     0.027 A 
HETATM   13  C   UNK     0      10.428  -3.848  -0.033  0.00  0.00     0.042 A 
ENDROOT
BRANCH  10  14
HETATM   14  C   UNK     0       8.653  -5.480   3.503  0.00  0.00    -0.023 A 
HETATM   15  C   UNK     0       8.354  -6.858   3.583  0.00  0.00     0.029 A 
HETATM   16  C   UNK     0       7.740  -7.376   4.739  0.00  0.00     0.090 A 
HETATM   17  N   UNK     0       7.425  -6.565   5.797  0.00  0.00    -0.371 N 
HETATM   18  C   UNK     0       7.723  -5.229   5.746  0.00  0.00     0.090 A 
HETATM   19  C   UNK     0       6.808  -7.123   6.975  0.00  0.00     0.154 C 
HETATM   20  C   UNK     0       8.347  -4.668   4.617  0.00  0.00     0.029 A 
ENDBRANCH  10  14
BRANCH  12  21
HETATM   21  N   UNK     0      12.354  -3.277   1.256  0.00  0.00    -0.399 N 
HETATM   22  H   UNK     0      12.742  -2.857   0.470  0.00  0.00     0.156 HD
HETATM   23  H   UNK     0      12.860  -3.309   2.083  0.00  0.00     0.156 HD
ENDBRANCH  12  21
TORSDOF 2
ENDMDL
MODEL 5
REMARK VINA RESULT:      -6.1      2.145      6.874
REMARK  2 active torsions:
REMARK  status: ('A' for Active; 'I' for Inactive)
REMARK    1  A    between atoms: C_10  and  C_17 
REMARK    2  A    between atoms: C_12  and  N_14 
ROOT
HETATM    1  C   UNK     0       7.413  -6.654  -2.232  0.00  0.00     0.013 A 
HETATM    2  C   UNK     0       7.120  -5.641  -3.169  0.00  0.00     0.001 A 
HETATM    3  C   UNK     0       7.115  -4.284  -2.779  0.00  0.00     0.001 A 
HETATM    4  C   UNK     0       7.397  -3.923  -1.446  0.00  0.00     0.008 A 
HETATM    5  C   UNK     0       7.687  -4.940  -0.516  0.00  0.00    -0.043 A 
HETATM    6  C   UNK     0       7.695  -6.284  -0.903  0.00  0.00    -0.019 A 
HETATM    7  C   UNK     0       8.010  -4.791   0.908  0.00  0.00     0.080 A 
HETATM    8  C   UNK     0       8.220  -6.202   1.303  0.00  0.00    -0.032 A 
HETATM    9  C   UNK     0       8.003  -7.057   0.214  0.00  0.00    -0.016 A 
HETATM   10  C   UNK     0       8.553  -6.721   2.580  0.00  0.00    -0.016 A 
HETATM   11  C   UNK     0       8.609  -8.131   2.726  0.00  0.00     0.042 A 
HETATM   12  C   UNK     0       8.356  -8.992   1.634  0.00  0.00     0.027 A 
HETATM   13  C   UNK     0       8.072  -8.455   0.360  0.00  0.00     0.042 A 
ENDROOT
BRANCH  10  14
HETATM   14  C   UNK     0       8.784  -5.871   3.697  0.00  0.00    -0.023 A 
HETATM   15  C   UNK     0      10.061  -5.309   3.917  0.00  0.00     0.029 A 
HETATM   16  C   UNK     0      10.288  -4.507   5.051  0.00  0.00     0.090 A 
HETATM   17  N   UNK     0       9.288  -4.256   5.952  0.00  0.00    -0.371 N 
HETATM   18  C   UNK     0       8.037  -4.776   5.747  0.00  0.00     0.090 A 
HETATM   19  C   UNK     0       9.543  -3.420   7.099  0.00  0.00     0.154 C 
HETATM   20  C   UNK     0       7.759  -5.575   4.622  0.00  0.00     0.029 A 
ENDBRANCH  10  14
BRANCH  12  21
HETATM   21  N   UNK     0       8.366 -10.329   1.810  0.00  0.00    -0.399 N 
HETATM   22  H   UNK     0       7.691 -10.752   2.366  0.00  0.00     0.156 HD
HETATM   23  H   UNK     0       9.042 -10.873   1.377  0.00  0.00     0.156 HD
ENDBRANCH  12  21
TORSDOF 2
ENDMDL
MODEL 6
REMARK VINA RESULT:      -6.0      2.947      7.464
REMARK  2 active torsions:
REMARK  status: ('A' for Active; 'I' for Inactive)
REMARK    1  A    between atoms: C_10  and  C_17 
REMARK    2  A    between atoms: C_12  and  N_14 
ROOT
HETATM    1  C   UNK     0       8.536  -5.948   1.270  0.00  0.00     0.013 A 
HETATM    2  C   UNK     0       9.187  -5.220   0.251  0.00  0.00     0.001 A 
HETATM    3  C   UNK     0       9.929  -4.060   0.561  0.00  0.00     0.001 A 
HETATM    4  C   UNK     0      10.024  -3.608   1.894  0.00  0.00     0.008 A 
HETATM    5  C   UNK     0       9.371  -4.339   2.905  0.00  0.00    -0.043 A 
HETATM    6  C   UNK     0       8.639  -5.491   2.597  0.00  0.00    -0.019 A 
HETATM    7  C   UNK     0       9.342  -4.054   4.345  0.00  0.00     0.080 A 
HETATM    8  C   UNK     0       8.520  -5.180   4.842  0.00  0.00    -0.032 A 
HETATM    9  C   UNK     0       8.103  -5.995   3.781  0.00  0.00    -0.016 A 
HETATM   10  C   UNK     0       8.120  -5.459   6.174  0.00  0.00    -0.016 A 
HETATM   11  C   UNK     0       7.248  -6.558   6.385  0.00  0.00     0.042 A 
HETATM   12  C   UNK     0       6.802  -7.358   5.308  0.00  0.00     0.027 A 
HETATM   13  C   UNK     0       7.248  -7.091   3.996  0.00  0.00     0.042 A 
ENDROOT
BRANCH  10  14
HETATM   14  C   UNK     0       8.538  -4.651   7.267  0.00  0.00    -0.023 A 
HETATM   15  C   UNK     0       9.743  -4.931   7.946  0.00  0.00     0.029 A 
HETATM   16  C   UNK     0      10.122  -4.150   9.055  0.00  0.00     0.090 A 
HETATM   17  N   UNK     0       9.339  -3.115   9.491  0.00  0.00    -0.371 N 
HETATM   18  C   UNK     0       8.175  -2.815   8.834  0.00  0.00     0.090 A 
HETATM   19  C   UNK     0       9.755  -2.322  10.622  0.00  0.00     0.154 C 
HETATM   20  C   UNK     0       7.761  -3.559   7.714  0.00  0.00     0.029 A 
ENDBRANCH  10  14
BRANCH  12  21
HETATM   21  N   UNK     0       5.933  -8.365   5.528  0.00  0.00    -0.399 N 
HETATM   22  H   UNK     0       6.053  -8.955   6.290  0.00  0.00     0.156 HD
HETATM   23  H   UNK     0       5.181  -8.499   4.930  0.00  0.00     0.156 HD
ENDBRANCH  12  21
TORSDOF 2
ENDMDL
MODEL 7
REMARK VINA RESULT:      -6.0      2.347      6.670
REMARK  2 active torsions:
REMARK  status: ('A' for Active; 'I' for Inactive)
REMARK    1  A    between atoms: C_10  and  C_17 
REMARK    2  A    between atoms: C_12  and  N_14 
ROOT
HETATM    1  C   UNK     0       6.581  -6.213  -0.399  0.00  0.00     0.013 A 
HETATM    2  C   UNK     0       6.587  -5.560  -1.650  0.00  0.00     0.001 A 
HETATM    3  C   UNK     0       7.430  -4.449  -1.873  0.00  0.00     0.001 A 
HETATM    4  C   UNK     0       8.272  -3.973  -0.847  0.00  0.00     0.008 A 
HETATM    5  C   UNK     0       8.260  -4.630   0.399  0.00  0.00    -0.043 A 
HETATM    6  C   UNK     0       7.427  -5.733   0.618  0.00  0.00    -0.019 A 
HETATM    7  C   UNK     0       9.051  -4.310   1.593  0.00  0.00     0.080 A 
HETATM    8  C   UNK     0       8.593  -5.360   2.529  0.00  0.00    -0.032 A 
HETATM    9  C   UNK     0       7.618  -6.167   1.928  0.00  0.00    -0.016 A 
HETATM   10  C   UNK     0       8.990  -5.578   3.873  0.00  0.00    -0.016 A 
HETATM   11  C   UNK     0       8.332  -6.604   4.598  0.00  0.00     0.042 A 
HETATM   12  C   UNK     0       7.325  -7.395   3.999  0.00  0.00     0.027 A 
HETATM   13  C   UNK     0       6.977  -7.193   2.647  0.00  0.00     0.042 A 
ENDROOT
BRANCH  10  14
HETATM   14  C   UNK     0       9.983  -4.775   4.500  0.00  0.00    -0.023 A 
HETATM   15  C   UNK     0      11.354  -5.022   4.271  0.00  0.00     0.029 A 
HETATM   16  C   UNK     0      12.327  -4.250   4.933  0.00  0.00     0.090 A 
HETATM   17  N   UNK     0      11.968  -3.254   5.802  0.00  0.00    -0.371 N 
HETATM   18  C   UNK     0      10.643  -2.986   6.024  0.00  0.00     0.090 A 
HETATM   19  C   UNK     0      12.984  -2.469   6.459  0.00  0.00     0.154 C 
HETATM   20  C   UNK     0       9.635  -3.724   5.377  0.00  0.00     0.029 A 
ENDBRANCH  10  14
BRANCH  12  21
HETATM   21  N   UNK     0       6.679  -8.331   4.725  0.00  0.00    -0.399 N 
HETATM   22  H   UNK     0       6.976  -9.256   4.702  0.00  0.00     0.156 HD
HETATM   23  H   UNK     0       5.922  -8.082   5.278  0.00  0.00     0.156 HD
ENDBRANCH  12  21
TORSDOF 2
ENDMDL
MODEL 8
REMARK VINA RESULT:      -5.9      2.289      6.235
REMARK  2 active torsions:
REMARK  status: ('A' for Active; 'I' for Inactive)
REMARK    1  A    between atoms: C_10  and  C_17 
REMARK    2  A    between atoms: C_12  and  N_14 
ROOT
HETATM    1  C   UNK     0       8.469  -5.900  -1.047  0.00  0.00     0.013 A 
HETATM    2  C   UNK     0       7.536  -6.794  -1.614  0.00  0.00     0.001 A 
HETATM    3  C   UNK     0       6.633  -7.504  -0.792  0.00  0.00     0.001 A 
HETATM    4  C   UNK     0       6.656  -7.334   0.608  0.00  0.00     0.008 A 
HETATM    5  C   UNK     0       7.591  -6.440   1.166  0.00  0.00    -0.043 A 
HETATM    6  C   UNK     0       8.483  -5.735   0.351  0.00  0.00    -0.019 A 
HETATM    7  C   UNK     0       7.784  -6.111   2.583  0.00  0.00     0.080 A 
HETATM    8  C   UNK     0       8.882  -5.123   2.500  0.00  0.00    -0.032 A 
HETATM    9  C   UNK     0       9.286  -4.943   1.169  0.00  0.00    -0.016 A 
HETATM   10  C   UNK     0       9.531  -4.433   3.555  0.00  0.00    -0.016 A 
HETATM   11  C   UNK     0      10.629  -3.597   3.223  0.00  0.00     0.042 A 
HETATM   12  C   UNK     0      11.054  -3.445   1.883  0.00  0.00     0.027 A 
HETATM   13  C   UNK     0      10.366  -4.104   0.842  0.00  0.00     0.042 A 
ENDROOT
BRANCH  10  14
HETATM   14  C   UNK     0       9.134  -4.594   4.911  0.00  0.00    -0.023 A 
HETATM   15  C   UNK     0       8.502  -3.538   5.603  0.00  0.00     0.029 A 
HETATM   16  C   UNK     0       8.155  -3.697   6.959  0.00  0.00     0.090 A 
HETATM   17  N   UNK     0       8.419  -4.864   7.625  0.00  0.00    -0.371 N 
HETATM   18  C   UNK     0       9.014  -5.906   6.966  0.00  0.00     0.090 A 
HETATM   19  C   UNK     0       8.041  -5.004   9.010  0.00  0.00     0.154 C 
HETATM   20  C   UNK     0       9.369  -5.800   5.609  0.00  0.00     0.029 A 
ENDBRANCH  10  14
BRANCH  12  21
HETATM   21  N   UNK     0      12.132  -2.685   1.598  0.00  0.00    -0.399 N 
HETATM   22  H   UNK     0      12.030  -1.870   1.079  0.00  0.00     0.156 HD
HETATM   23  H   UNK     0      13.010  -2.946   1.917  0.00  0.00     0.156 HD
ENDBRANCH  12  21
TORSDOF 2
ENDMDL
MODEL 9
REMARK VINA RESULT:      -5.9     14.489     16.859
REMARK  2 active torsions:
REMARK  status: ('A' for Active; 'I' for Inactive)
REMARK    1  A    between atoms: C_10  and  C_17 
REMARK    2  A    between atoms: C_12  and  N_14 
ROOT
HETATM    1  C   UNK     0      -5.632   1.070  12.171  0.00  0.00     0.013 A 
HETATM    2  C   UNK     0      -5.059   2.081  12.971  0.00  0.00     0.001 A 
HETATM    3  C   UNK     0      -4.026   1.773  13.883  0.00  0.00     0.001 A 
HETATM    4  C   UNK     0      -3.558   0.449  14.013  0.00  0.00     0.008 A 
HETATM    5  C   UNK     0      -4.136  -0.555  13.212  0.00  0.00    -0.043 A 
HETATM    6  C   UNK     0      -5.157  -0.248  12.306  0.00  0.00    -0.019 A 
HETATM    7  C   UNK     0      -3.803  -1.984  13.181  0.00  0.00     0.080 A 
HETATM    8  C   UNK     0      -4.737  -2.473  12.143  0.00  0.00    -0.032 A 
HETATM    9  C   UNK     0      -5.537  -1.426  11.665  0.00  0.00    -0.016 A 
HETATM   10  C   UNK     0      -4.906  -3.796  11.660  0.00  0.00    -0.016 A 
HETATM   11  C   UNK     0      -5.942  -4.028  10.718  0.00  0.00     0.042 A 
HETATM   12  C   UNK     0      -6.769  -2.976  10.264  0.00  0.00     0.027 A 
HETATM   13  C   UNK     0      -6.555  -1.658  10.721  0.00  0.00     0.042 A 
ENDROOT
BRANCH  10  14
HETATM   14  C   UNK     0      -4.100  -4.871  12.125  0.00  0.00    -0.023 A 
HETATM   15  C   UNK     0      -2.692  -4.777  12.096  0.00  0.00     0.029 A 
HETATM   16  C   UNK     0      -1.907  -5.866  12.517  0.00  0.00     0.090 A 
HETATM   17  N   UNK     0      -2.485  -7.026  12.960  0.00  0.00    -0.371 N 
HETATM   18  C   UNK     0      -3.850  -7.131  13.013  0.00  0.00     0.090 A 
HETATM   19  C   UNK     0      -1.658  -8.123  13.397  0.00  0.00     0.154 C 
HETATM   20  C   UNK     0      -4.676  -6.065  12.614  0.00  0.00     0.029 A 
ENDBRANCH  10  14
BRANCH  12  21
HETATM   21  N   UNK     0      -7.779  -3.232   9.407  0.00  0.00    -0.399 N 
HETATM   22  H   UNK     0      -8.635  -2.787   9.517  0.00  0.00     0.156 HD
HETATM   23  H   UNK     0      -7.651  -3.855   8.675  0.00  0.00     0.156 HD
ENDBRANCH  12  21
TORSDOF 2
ENDMDL
