MODEL 1
REMARK VINA RESULT:      -6.4      0.000      0.000
REMARK  4 active torsions:
REMARK  status: ('A' for Active; 'I' for Inactive)
REMARK    1  A    between atoms: C_11  and  N_14 
REMARK    2  A    between atoms: C_13  and  C_21 
REMARK       I    between atoms: N_14  and  C_15 
REMARK    3  A    between atoms: C_15  and  C_16 
REMARK    4  A    between atoms: C_16  and  C_17 
ROOT
HETATM    1  C   UNK     0      13.614  -4.304  -0.907  0.00  0.00     0.008 A 
HETATM    2  C   UNK     0      14.828  -3.825  -0.372  0.00  0.00     0.001 A 
HETATM    3  C   UNK     0      14.866  -3.260   0.920  0.00  0.00     0.001 A 
HETATM    4  C   UNK     0      13.688  -3.156   1.687  0.00  0.00     0.013 A 
HETATM    5  C   UNK     0      12.481  -3.632   1.139  0.00  0.00    -0.019 A 
HETATM    6  C   UNK     0      12.440  -4.201  -0.136  0.00  0.00    -0.043 A 
HETATM    7  C   UNK     0      11.192  -3.658   1.661  0.00  0.00    -0.016 A 
HETATM    8  C   UNK     0      10.327  -4.233   0.723  0.00  0.00    -0.032 A 
HETATM    9  C   UNK     0      11.076  -4.627  -0.493  0.00  0.00     0.080 A 
HETATM   10  C   UNK     0      10.732  -3.227   2.917  0.00  0.00     0.042 A 
HETATM   11  C   UNK     0       9.364  -3.375   3.246  0.00  0.00     0.036 A 
HETATM   12  C   UNK     0       8.491  -3.966   2.298  0.00  0.00     0.042 A 
HETATM   13  C   UNK     0       8.947  -4.394   1.021  0.00  0.00    -0.016 A 
ENDROOT
BRANCH  13  14
HETATM   14  C   UNK     0       8.038  -4.972   0.094  0.00  0.00    -0.023 A 
HETATM   15  C   UNK     0       7.567  -4.237  -1.021  0.00  0.00     0.029 A 
HETATM   16  C   UNK     0       6.689  -4.842  -1.937  0.00  0.00     0.088 A 
HETATM   17  N   UNK     0       6.278  -6.119  -1.739  0.00  0.00    -0.375 N 
HETATM   18  C   UNK     0       6.683  -6.855  -0.672  0.00  0.00     0.088 A 
HETATM   19  HN  UNK     0       5.643  -6.543  -2.416  1.00  0.00     0.164 HD
HETATM   20  C   UNK     0       7.569  -6.297   0.270  0.00  0.00     0.029 A 
ENDBRANCH  13  14
BRANCH  11  21
HETATM   21  N   UNK     0       8.850  -3.028   4.469  0.00  0.00    -0.327 N 
HETATM   22  C   UNK     0       8.742  -3.798   5.593  0.00  0.00     0.223 C 
HETATM   23  O   UNK     0       9.276  -4.930   5.687  0.00  0.00    -0.273 OA
HETATM   24  H   UNK     0       8.534  -2.114   4.552  0.00  0.00     0.169 HD
BRANCH  22  25
HETATM   25  C   UNK     0       7.983  -3.283   6.753  0.00  0.00     0.118 C 
BRANCH  25  26
HETATM   26  C   UNK     0       8.083  -4.244   7.964  0.00  0.00     0.124 C 
HETATM   27 Cl   UNK     0       6.736  -4.013   9.073  0.00  0.00    -0.130 Cl
ENDBRANCH  25  26
ENDBRANCH  22  25
ENDBRANCH  11  21
TORSDOF 4
ENDMDL
MODEL 2
REMARK VINA RESULT:      -6.3      3.920      8.713
REMARK  4 active torsions:
REMARK  status: ('A' for Active; 'I' for Inactive)
REMARK    1  A    between atoms: C_11  and  N_14 
REMARK    2  A    between atoms: C_13  and  C_21 
REMARK       I    between atoms: N_14  and  C_15 
REMARK    3  A    between atoms: C_15  and  C_16 
REMARK    4  A    between atoms: C_16  and  C_17 
ROOT
HETATM    1  C   UNK     0      11.419  -7.530  10.615  0.00  0.00     0.008 A 
HETATM    2  C   UNK     0      12.377  -8.421  10.086  0.00  0.00     0.001 A 
HETATM    3  C   UNK     0      12.650  -8.437   8.702  0.00  0.00     0.001 A 
HETATM    4  C   UNK     0      11.960  -7.571   7.830  0.00  0.00     0.013 A 
HETATM    5  C   UNK     0      11.002  -6.691   8.370  0.00  0.00    -0.019 A 
HETATM    6  C   UNK     0      10.735  -6.665   9.741  0.00  0.00    -0.043 A 
HETATM    7  C   UNK     0      10.188  -5.744   7.757  0.00  0.00    -0.016 A 
HETATM    8  C   UNK     0       9.397  -5.119   8.727  0.00  0.00    -0.032 A 
HETATM    9  C   UNK     0       9.703  -5.667  10.070  0.00  0.00     0.080 A 
HETATM   10  C   UNK     0      10.111  -5.380   6.402  0.00  0.00     0.042 A 
HETATM   11  C   UNK     0       9.215  -4.360   6.003  0.00  0.00     0.036 A 
HETATM   12  C   UNK     0       8.422  -3.723   6.990  0.00  0.00     0.042 A 
HETATM   13  C   UNK     0       8.486  -4.092   8.361  0.00  0.00    -0.016 A 
ENDROOT
BRANCH  13  14
HETATM   14  C   UNK     0       7.665  -3.436   9.318  0.00  0.00    -0.023 A 
HETATM   15  C   UNK     0       8.152  -2.334  10.064  0.00  0.00     0.029 A 
HETATM   16  C   UNK     0       7.310  -1.688  10.985  0.00  0.00     0.088 A 
HETATM   17  N   UNK     0       6.043  -2.132  11.174  0.00  0.00    -0.375 N 
HETATM   18  C   UNK     0       5.541  -3.199  10.500  0.00  0.00     0.088 A 
HETATM   19  HN  UNK     0       5.446  -1.648  11.844  1.00  0.00     0.164 HD
HETATM   20  C   UNK     0       6.341  -3.876   9.560  0.00  0.00     0.029 A 
ENDBRANCH  13  14
BRANCH  11  21
HETATM   21  N   UNK     0       9.122  -3.914   4.711  0.00  0.00    -0.327 N 
HETATM   22  C   UNK     0       8.463  -4.490   3.661  0.00  0.00     0.223 C 
HETATM   23  O   UNK     0       7.692  -5.469   3.806  0.00  0.00    -0.273 OA
HETATM   24  H   UNK     0       9.570  -3.075   4.518  0.00  0.00     0.169 HD
BRANCH  22  25
HETATM   25  C   UNK     0       8.646  -3.938   2.301  0.00  0.00     0.118 C 
BRANCH  25  26
HETATM   26  C   UNK     0       8.467  -5.032   1.219  0.00  0.00     0.124 C 
HETATM   27 Cl   UNK     0       7.083  -4.687   0.188  0.00  0.00    -0.130 Cl
ENDBRANCH  25  26
ENDBRANCH  22  25
ENDBRANCH  11  21
TORSDOF 4
ENDMDL
MODEL 3
REMARK VINA RESULT:      -6.1      4.238      7.143
REMARK  4 active torsions:
REMARK  status: ('A' for Active; 'I' for Inactive)
REMARK    1  A    between atoms: C_11  and  N_14 
REMARK    2  A    between atoms: C_13  and  C_21 
REMARK       I    between atoms: N_14  and  C_15 
REMARK    3  A    between atoms: C_15  and  C_16 
REMARK    4  A    between atoms: C_16  and  C_17 
ROOT
HETATM    1  C   UNK     0      10.549  -9.986   4.091  0.00  0.00     0.008 A 
HETATM    2  C   UNK     0      10.689 -11.068   3.196  0.00  0.00     0.001 A 
HETATM    3  C   UNK     0      10.440 -10.892   1.818  0.00  0.00     0.001 A 
HETATM    4  C   UNK     0      10.036  -9.636   1.322  0.00  0.00     0.013 A 
HETATM    5  C   UNK     0       9.894  -8.566   2.227  0.00  0.00    -0.019 A 
HETATM    6  C   UNK     0      10.149  -8.732   3.590  0.00  0.00    -0.043 A 
HETATM    7  C   UNK     0       9.518  -7.243   2.020  0.00  0.00    -0.016 A 
HETATM    8  C   UNK     0       9.523  -6.566   3.245  0.00  0.00    -0.032 A 
HETATM    9  C   UNK     0       9.937  -7.480   4.335  0.00  0.00     0.080 A 
HETATM   10  C   UNK     0       9.190  -6.588   0.821  0.00  0.00     0.042 A 
HETATM   11  C   UNK     0       8.857  -5.213   0.845  0.00  0.00     0.036 A 
HETATM   12  C   UNK     0       8.872  -4.528   2.086  0.00  0.00     0.042 A 
HETATM   13  C   UNK     0       9.191  -5.186   3.305  0.00  0.00    -0.016 A 
ENDROOT
BRANCH  13  14
HETATM   14  C   UNK     0       9.184  -4.465   4.531  0.00  0.00    -0.023 A 
HETATM   15  C   UNK     0      10.334  -3.766   4.973  0.00  0.00     0.029 A 
HETATM   16  C   UNK     0      10.291  -3.041   6.176  0.00  0.00     0.088 A 
HETATM   17  N   UNK     0       9.157  -3.028   6.920  0.00  0.00    -0.375 N 
HETATM   18  C   UNK     0       8.038  -3.702   6.548  0.00  0.00     0.088 A 
HETATM   19  HN  UNK     0       9.144  -2.493   7.788  1.00  0.00     0.164 HD
HETATM   20  C   UNK     0       8.028  -4.438   5.348  0.00  0.00     0.029 A 
ENDBRANCH  13  14
BRANCH  11  21
HETATM   21  N   UNK     0       8.578  -4.494  -0.287  0.00  0.00    -0.327 N 
HETATM   22  C   UNK     0       7.379  -4.351  -0.928  0.00  0.00     0.223 C 
HETATM   23  O   UNK     0       6.300  -4.758  -0.433  0.00  0.00    -0.273 OA
HETATM   24  H   UNK     0       9.326  -4.013  -0.680  0.00  0.00     0.169 HD
BRANCH  22  25
HETATM   25  C   UNK     0       7.337  -3.679  -2.245  0.00  0.00     0.118 C 
BRANCH  25  26
HETATM   26  C   UNK     0       7.661  -4.667  -3.392  0.00  0.00     0.124 C 
HETATM   27 Cl   UNK     0       6.323  -5.776  -3.674  0.00  0.00    -0.130 Cl
ENDBRANCH  25  26
ENDBRANCH  22  25
ENDBRANCH  11  21
TORSDOF 4
ENDMDL
MODEL 4
REMARK VINA RESULT:      -6.1      3.457      6.112
REMARK  4 active torsions:
REMARK  status: ('A' for Active; 'I' for Inactive)
REMARK    1  A    between atoms: C_11  and  N_14 
REMARK    2  A    between atoms: C_13  and  C_21 
REMARK       I    between atoms: N_14  and  C_15 
REMARK    3  A    between atoms: C_15  and  C_16 
REMARK    4  A    between atoms: C_16  and  C_17 
ROOT
HETATM    1  C   UNK     0       6.268  -5.576  -1.367  0.00  0.00     0.008 A 
HETATM    2  C   UNK     0       6.546  -5.048  -2.645  0.00  0.00     0.001 A 
HETATM    3  C   UNK     0       7.717  -4.292  -2.867  0.00  0.00     0.001 A 
HETATM    4  C   UNK     0       8.616  -4.046  -1.811  0.00  0.00     0.013 A 
HETATM    5  C   UNK     0       8.324  -4.573  -0.538  0.00  0.00    -0.019 A 
HETATM    6  C   UNK     0       7.171  -5.330  -0.315  0.00  0.00    -0.043 A 
HETATM    7  C   UNK     0       9.020  -4.490   0.664  0.00  0.00    -0.016 A 
HETATM    8  C   UNK     0       8.314  -5.183   1.654  0.00  0.00    -0.032 A 
HETATM    9  C   UNK     0       7.080  -5.776   1.086  0.00  0.00     0.080 A 
HETATM   10  C   UNK     0      10.246  -3.862   0.941  0.00  0.00     0.042 A 
HETATM   11  C   UNK     0      10.784  -3.927   2.248  0.00  0.00     0.036 A 
HETATM   12  C   UNK     0      10.071  -4.637   3.246  0.00  0.00     0.042 A 
HETATM   13  C   UNK     0       8.825  -5.266   2.977  0.00  0.00    -0.016 A 
ENDROOT
BRANCH  13  14
HETATM   14  C   UNK     0       8.136  -5.959   4.010  0.00  0.00    -0.023 A 
HETATM   15  C   UNK     0       7.583  -7.243   3.782  0.00  0.00     0.029 A 
HETATM   16  C   UNK     0       6.929  -7.917   4.829  0.00  0.00     0.088 A 
HETATM   17  N   UNK     0       6.811  -7.329   6.045  0.00  0.00    -0.375 N 
HETATM   18  C   UNK     0       7.303  -6.089   6.302  0.00  0.00     0.088 A 
HETATM   19  HN  UNK     0       6.336  -7.834   6.793  1.00  0.00     0.164 HD
HETATM   20  C   UNK     0       7.974  -5.376   5.290  0.00  0.00     0.029 A 
ENDBRANCH  13  14
BRANCH  11  21
HETATM   21  N   UNK     0      11.998  -3.386   2.581  0.00  0.00    -0.327 N 
HETATM   22  C   UNK     0      13.244  -3.911   2.384  0.00  0.00     0.223 C 
HETATM   23  O   UNK     0      13.439  -4.940   1.692  0.00  0.00    -0.273 OA
HETATM   24  H   UNK     0      11.971  -2.510   3.001  0.00  0.00     0.169 HD
BRANCH  22  25
HETATM   25  C   UNK     0      14.416  -3.244   2.991  0.00  0.00     0.118 C 
BRANCH  25  26
HETATM   26  C   UNK     0      15.322  -2.603   1.911  0.00  0.00     0.124 C 
HETATM   27 Cl   UNK     0      14.395  -1.561   0.838  0.00  0.00    -0.130 Cl
ENDBRANCH  25  26
ENDBRANCH  22  25
ENDBRANCH  11  21
TORSDOF 4
ENDMDL
MODEL 5
REMARK VINA RESULT:      -6.1      2.436      5.304
REMARK  4 active torsions:
REMARK  status: ('A' for Active; 'I' for Inactive)
REMARK    1  A    between atoms: C_11  and  N_14 
REMARK    2  A    between atoms: C_13  and  C_21 
REMARK       I    between atoms: N_14  and  C_15 
REMARK    3  A    between atoms: C_15  and  C_16 
REMARK    4  A    between atoms: C_16  and  C_17 
ROOT
HETATM    1  C   UNK     0       8.572  -4.371  -2.644  0.00  0.00     0.008 A 
HETATM    2  C   UNK     0       7.288  -4.561  -3.197  0.00  0.00     0.001 A 
HETATM    3  C   UNK     0       6.262  -5.158  -2.433  0.00  0.00     0.001 A 
HETATM    4  C   UNK     0       6.512  -5.581  -1.112  0.00  0.00     0.013 A 
HETATM    5  C   UNK     0       7.800  -5.390  -0.574  0.00  0.00    -0.019 A 
HETATM    6  C   UNK     0       8.816  -4.792  -1.323  0.00  0.00    -0.043 A 
HETATM    7  C   UNK     0       8.319  -5.704   0.678  0.00  0.00    -0.016 A 
HETATM    8  C   UNK     0       9.663  -5.317   0.730  0.00  0.00    -0.032 A 
HETATM    9  C   UNK     0      10.069  -4.697  -0.554  0.00  0.00     0.080 A 
HETATM   10  C   UNK     0       7.681  -6.290   1.785  0.00  0.00     0.042 A 
HETATM   11  C   UNK     0       8.408  -6.496   2.980  0.00  0.00     0.036 A 
HETATM   12  C   UNK     0       9.767  -6.095   3.033  0.00  0.00     0.042 A 
HETATM   13  C   UNK     0      10.422  -5.511   1.915  0.00  0.00    -0.016 A 
ENDROOT
BRANCH  13  14
HETATM   14  C   UNK     0      11.790  -5.132   2.004  0.00  0.00    -0.023 A 
HETATM   15  C   UNK     0      12.162  -3.854   2.488  0.00  0.00     0.029 A 
HETATM   16  C   UNK     0      13.522  -3.514   2.591  0.00  0.00     0.088 A 
HETATM   17  N   UNK     0      14.473  -4.402   2.207  0.00  0.00    -0.375 N 
HETATM   18  C   UNK     0      14.163  -5.629   1.714  0.00  0.00     0.088 A 
HETATM   19  HN  UNK     0      15.455  -4.140   2.291  1.00  0.00     0.164 HD
HETATM   20  C   UNK     0      12.815  -6.020   1.599  0.00  0.00     0.029 A 
ENDBRANCH  13  14
BRANCH  11  21
HETATM   21  N   UNK     0       7.843  -7.012   4.117  0.00  0.00    -0.327 N 
HETATM   22  C   UNK     0       7.286  -6.340   5.168  0.00  0.00     0.223 C 
HETATM   23  O   UNK     0       7.074  -5.103   5.139  0.00  0.00    -0.273 OA
HETATM   24  H   UNK     0       7.823  -7.982   4.179  0.00  0.00     0.169 HD
BRANCH  22  25
HETATM   25  C   UNK     0       6.899  -7.088   6.384  0.00  0.00     0.118 C 
BRANCH  25  26
HETATM   26  C   UNK     0       7.897  -6.838   7.541  0.00  0.00     0.124 C 
HETATM   27 Cl   UNK     0       7.376  -5.494   8.551  0.00  0.00    -0.130 Cl
ENDBRANCH  25  26
ENDBRANCH  22  25
ENDBRANCH  11  21
TORSDOF 4
ENDMDL
MODEL 6
REMARK VINA RESULT:      -6.1     13.983     17.366
REMARK  4 active torsions:
REMARK  status: ('A' for Active; 'I' for Inactive)
REMARK    1  A    between atoms: C_11  and  N_14 
REMARK    2  A    between atoms: C_13  and  C_21 
REMARK       I    between atoms: N_14  and  C_15 
REMARK    3  A    between atoms: C_15  and  C_16 
REMARK    4  A    between atoms: C_16  and  C_17 
ROOT
HETATM    1  C   UNK     0       1.667  -0.514 -11.973  0.00  0.00     0.008 A 
HETATM    2  C   UNK     0       0.526  -0.801 -12.752  0.00  0.00     0.001 A 
HETATM    3  C   UNK     0      -0.517   0.143 -12.866  0.00  0.00     0.001 A 
HETATM    4  C   UNK     0      -0.436   1.379 -12.193  0.00  0.00     0.013 A 
HETATM    5  C   UNK     0       0.705   1.650 -11.414  0.00  0.00    -0.019 A 
HETATM    6  C   UNK     0       1.745   0.723 -11.305  0.00  0.00    -0.043 A 
HETATM    7  C   UNK     0       1.046   2.766 -10.657  0.00  0.00    -0.016 A 
HETATM    8  C   UNK     0       2.294   2.554 -10.058  0.00  0.00    -0.032 A 
HETATM    9  C   UNK     0       2.828   1.226 -10.444  0.00  0.00     0.080 A 
HETATM   10  C   UNK     0       0.340   3.968 -10.474  0.00  0.00     0.042 A 
HETATM   11  C   UNK     0       0.897   4.989  -9.669  0.00  0.00     0.036 A 
HETATM   12  C   UNK     0       2.165   4.775  -9.072  0.00  0.00     0.042 A 
HETATM   13  C   UNK     0       2.880   3.558  -9.243  0.00  0.00    -0.016 A 
ENDROOT
BRANCH  13  14
HETATM   14  C   UNK     0       4.145   3.378  -8.618  0.00  0.00    -0.023 A 
HETATM   15  C   UNK     0       5.056   4.455  -8.491  0.00  0.00     0.029 A 
HETATM   16  C   UNK     0       6.288   4.255  -7.845  0.00  0.00     0.088 A 
HETATM   17  N   UNK     0       6.611   3.028  -7.365  0.00  0.00    -0.375 N 
HETATM   18  C   UNK     0       5.780   1.961  -7.486  0.00  0.00     0.088 A 
HETATM   19  HN  UNK     0       7.509   2.902  -6.897  1.00  0.00     0.164 HD
HETATM   20  C   UNK     0       4.530   2.111  -8.117  0.00  0.00     0.029 A 
ENDBRANCH  13  14
BRANCH  11  21
HETATM   21  N   UNK     0       0.295   6.206  -9.488  0.00  0.00    -0.327 N 
HETATM   22  C   UNK     0       0.338   7.304 -10.301  0.00  0.00     0.223 C 
HETATM   23  O   UNK     0       0.835   7.269 -11.452  0.00  0.00    -0.273 OA
HETATM   24  H   UNK     0      -0.243   6.298  -8.684  0.00  0.00     0.169 HD
BRANCH  22  25
HETATM   25  C   UNK     0      -0.233   8.582  -9.823  0.00  0.00     0.118 C 
BRANCH  25  26
HETATM   26  C   UNK     0       0.594   9.166  -8.651  0.00  0.00     0.124 C 
HETATM   27 Cl   UNK     0       2.321   9.061  -8.976  0.00  0.00    -0.130 Cl
ENDBRANCH  25  26
ENDBRANCH  22  25
ENDBRANCH  11  21
TORSDOF 4
ENDMDL
MODEL 7
REMARK VINA RESULT:      -6.0      2.960      5.844
REMARK  4 active torsions:
REMARK  status: ('A' for Active; 'I' for Inactive)
REMARK    1  A    between atoms: C_11  and  N_14 
REMARK    2  A    between atoms: C_13  and  C_21 
REMARK       I    between atoms: N_14  and  C_15 
REMARK    3  A    between atoms: C_15  and  C_16 
REMARK    4  A    between atoms: C_16  and  C_17 
ROOT
HETATM    1  C   UNK     0       7.290  -6.678   5.841  0.00  0.00     0.008 A 
HETATM    2  C   UNK     0       7.774  -6.432   7.143  0.00  0.00     0.001 A 
HETATM    3  C   UNK     0       8.901  -5.606   7.342  0.00  0.00     0.001 A 
HETATM    4  C   UNK     0       9.563  -5.027   6.241  0.00  0.00     0.013 A 
HETATM    5  C   UNK     0       9.074  -5.285   4.946  0.00  0.00    -0.019 A 
HETATM    6  C   UNK     0       7.953  -6.095   4.744  0.00  0.00    -0.043 A 
HETATM    7  C   UNK     0       9.520  -4.854   3.701  0.00  0.00    -0.016 A 
HETATM    8  C   UNK     0       8.695  -5.389   2.705  0.00  0.00    -0.032 A 
HETATM    9  C   UNK     0       7.627  -6.218   3.313  0.00  0.00     0.080 A 
HETATM   10  C   UNK     0      10.593  -4.003   3.386  0.00  0.00     0.042 A 
HETATM   11  C   UNK     0      10.850  -3.676   2.034  0.00  0.00     0.036 A 
HETATM   12  C   UNK     0      10.008  -4.213   1.028  0.00  0.00     0.042 A 
HETATM   13  C   UNK     0       8.928  -5.083   1.337  0.00  0.00    -0.016 A 
ENDROOT
BRANCH  13  14
HETATM   14  C   UNK     0       8.113  -5.610   0.297  0.00  0.00    -0.023 A 
HETATM   15  C   UNK     0       8.407  -6.861  -0.297  0.00  0.00     0.029 A 
HETATM   16  C   UNK     0       7.569  -7.369  -1.305  0.00  0.00     0.088 A 
HETATM   17  N   UNK     0       6.494  -6.652  -1.719  0.00  0.00    -0.375 N 
HETATM   18  C   UNK     0       6.188  -5.437  -1.196  0.00  0.00     0.088 A 
HETATM   19  HN  UNK     0       5.896  -7.038  -2.450  1.00  0.00     0.164 HD
HETATM   20  C   UNK     0       6.991  -4.888  -0.178  0.00  0.00     0.029 A 
ENDBRANCH  13  14
BRANCH  11  21
HETATM   21  N   UNK     0      11.844  -2.813   1.652  0.00  0.00    -0.327 N 
HETATM   22  C   UNK     0      13.062  -3.109   1.106  0.00  0.00     0.223 C 
HETATM   23  O   UNK     0      13.364  -4.265   0.724  0.00  0.00    -0.273 OA
HETATM   24  H   UNK     0      11.654  -1.868   1.773  0.00  0.00     0.169 HD
BRANCH  22  25
HETATM   25  C   UNK     0      14.062  -2.032   0.941  0.00  0.00     0.118 C 
BRANCH  25  26
HETATM   26  C   UNK     0      15.408  -2.406   1.610  0.00  0.00     0.124 C 
HETATM   27 Cl   UNK     0      15.185  -2.811   3.308  0.00  0.00    -0.130 Cl
ENDBRANCH  25  26
ENDBRANCH  22  25
ENDBRANCH  11  21
TORSDOF 4
ENDMDL
MODEL 8
REMARK VINA RESULT:      -6.0     14.067     15.454
REMARK  4 active torsions:
REMARK  status: ('A' for Active; 'I' for Inactive)
REMARK    1  A    between atoms: C_11  and  N_14 
REMARK    2  A    between atoms: C_13  and  C_21 
REMARK       I    between atoms: N_14  and  C_15 
REMARK    3  A    between atoms: C_15  and  C_16 
REMARK    4  A    between atoms: C_16  and  C_17 
ROOT
HETATM    1  C   UNK     0       5.214   9.940  -1.541  0.00  0.00     0.008 A 
HETATM    2  C   UNK     0       4.729  10.767  -2.576  0.00  0.00     0.001 A 
HETATM    3  C   UNK     0       3.348  11.039  -2.685  0.00  0.00     0.001 A 
HETATM    4  C   UNK     0       2.437  10.478  -1.768  0.00  0.00     0.013 A 
HETATM    5  C   UNK     0       2.933   9.649  -0.744  0.00  0.00    -0.019 A 
HETATM    6  C   UNK     0       4.300   9.384  -0.626  0.00  0.00    -0.043 A 
HETATM    7  C   UNK     0       2.277   8.975   0.281  0.00  0.00    -0.016 A 
HETATM    8  C   UNK     0       3.215   8.275   1.047  0.00  0.00    -0.032 A 
HETATM    9  C   UNK     0       4.581   8.499   0.517  0.00  0.00     0.080 A 
HETATM   10  C   UNK     0       0.908   8.953   0.597  0.00  0.00     0.042 A 
HETATM   11  C   UNK     0       0.462   8.208   1.714  0.00  0.00     0.036 A 
HETATM   12  C   UNK     0       1.416   7.507   2.493  0.00  0.00     0.042 A 
HETATM   13  C   UNK     0       2.801   7.515   2.174  0.00  0.00    -0.016 A 
ENDROOT
BRANCH  13  14
HETATM   14  C   UNK     0       3.725   6.790   2.975  0.00  0.00    -0.023 A 
HETATM   15  C   UNK     0       4.147   5.489   2.605  0.00  0.00     0.029 A 
HETATM   16  C   UNK     0       5.081   4.805   3.402  0.00  0.00     0.088 A 
HETATM   17  N   UNK     0       5.559   5.382   4.533  0.00  0.00    -0.375 N 
HETATM   18  C   UNK     0       5.165   6.617   4.940  0.00  0.00     0.088 A 
HETATM   19  HN  UNK     0       6.239   4.872   5.097  1.00  0.00     0.164 HD
HETATM   20  C   UNK     0       4.237   7.346   4.172  0.00  0.00     0.029 A 
ENDBRANCH  13  14
BRANCH  11  21
HETATM   21  N   UNK     0      -0.848   8.180   2.116  0.00  0.00    -0.327 N 
HETATM   22  C   UNK     0      -1.871   7.421   1.621  0.00  0.00     0.223 C 
HETATM   23  O   UNK     0      -1.683   6.494   0.797  0.00  0.00    -0.273 OA
HETATM   24  H   UNK     0      -1.077   8.766   2.856  0.00  0.00     0.169 HD
BRANCH  22  25
HETATM   25  C   UNK     0      -3.254   7.684   2.077  0.00  0.00     0.118 C 
BRANCH  25  26
HETATM   26  C   UNK     0      -3.416   9.140   2.577  0.00  0.00     0.124 C 
HETATM   27 Cl   UNK     0      -4.152   9.186   4.175  0.00  0.00    -0.130 Cl
ENDBRANCH  25  26
ENDBRANCH  22  25
ENDBRANCH  11  21
TORSDOF 4
ENDMDL
MODEL 9
REMARK VINA RESULT:      -6.0      4.364      7.019
REMARK  4 active torsions:
REMARK  status: ('A' for Active; 'I' for Inactive)
REMARK    1  A    between atoms: C_11  and  N_14 
REMARK    2  A    between atoms: C_13  and  C_21 
REMARK       I    between atoms: N_14  and  C_15 
REMARK    3  A    between atoms: C_15  and  C_16 
REMARK    4  A    between atoms: C_16  and  C_17 
ROOT
HETATM    1  C   UNK     0       8.616  -6.824   6.737  0.00  0.00     0.008 A 
HETATM    2  C   UNK     0       8.320  -5.643   7.450  0.00  0.00     0.001 A 
HETATM    3  C   UNK     0       8.098  -4.430   6.763  0.00  0.00     0.001 A 
HETATM    4  C   UNK     0       8.182  -4.382   5.357  0.00  0.00     0.013 A 
HETATM    5  C   UNK     0       8.484  -5.567   4.658  0.00  0.00    -0.019 A 
HETATM    6  C   UNK     0       8.696  -6.772   5.332  0.00  0.00    -0.043 A 
HETATM    7  C   UNK     0       8.627  -5.808   3.295  0.00  0.00    -0.016 A 
HETATM    8  C   UNK     0       8.936  -7.159   3.096  0.00  0.00    -0.032 A 
HETATM    9  C   UNK     0       8.993  -7.870   4.396  0.00  0.00     0.080 A 
HETATM   10  C   UNK     0       8.483  -4.922   2.214  0.00  0.00     0.042 A 
HETATM   11  C   UNK     0       8.652  -5.400   0.893  0.00  0.00     0.036 A 
HETATM   12  C   UNK     0       8.956  -6.770   0.695  0.00  0.00     0.042 A 
HETATM   13  C   UNK     0       9.115  -7.670   1.783  0.00  0.00    -0.016 A 
ENDROOT
BRANCH  13  14
HETATM   14  C   UNK     0       9.431  -9.036   1.542  0.00  0.00    -0.023 A 
HETATM   15  C   UNK     0       8.413  -9.984   1.277  0.00  0.00     0.029 A 
HETATM   16  C   UNK     0       8.755 -11.322   1.017  0.00  0.00     0.088 A 
HETATM   17  N   UNK     0      10.056 -11.706   1.041  0.00  0.00    -0.375 N 
HETATM   18  C   UNK     0      11.064 -10.838   1.314  0.00  0.00     0.088 A 
HETATM   19  HN  UNK     0      10.286 -12.681   0.847  1.00  0.00     0.164 HD
HETATM   20  C   UNK     0      10.773  -9.484   1.574  0.00  0.00     0.029 A 
ENDBRANCH  13  14
BRANCH  11  21
HETATM   21  N   UNK     0       8.476  -4.610  -0.213  0.00  0.00    -0.327 N 
HETATM   22  C   UNK     0       7.320  -4.350  -0.894  0.00  0.00     0.223 C 
HETATM   23  O   UNK     0       6.194  -4.700  -0.466  0.00  0.00    -0.273 OA
HETATM   24  H   UNK     0       9.272  -4.167  -0.549  0.00  0.00     0.169 HD
BRANCH  22  25
HETATM   25  C   UNK     0       7.384  -3.616  -2.177  0.00  0.00     0.118 C 
BRANCH  25  26
HETATM   26  C   UNK     0       7.769  -4.556  -3.345  0.00  0.00     0.124 C 
HETATM   27 Cl   UNK     0       6.569  -5.825  -3.563  0.00  0.00    -0.130 Cl
ENDBRANCH  25  26
ENDBRANCH  22  25
ENDBRANCH  11  21
TORSDOF 4
ENDMDL
