MODEL 1
REMARK VINA RESULT:      -6.0      0.000      0.000
REMARK  4 active torsions:
REMARK  status: ('A' for Active; 'I' for Inactive)
REMARK    1  A    between atoms: C_11  and  N_19 
REMARK    2  A    between atoms: C_13  and  C_14 
REMARK       I    between atoms: N_19  and  C_21 
REMARK    3  A    between atoms: C_21  and  C_22 
REMARK    4  A    between atoms: C_22  and  C_23 
ROOT
HETATM    1  C   UNK     0       8.441  -4.321  -2.724  0.00  0.00     0.008 A 
HETATM    2  C   UNK     0       7.159  -4.624  -3.226  0.00  0.00     0.001 A 
HETATM    3  C   UNK     0       6.215  -5.288  -2.413  0.00  0.00     0.001 A 
HETATM    4  C   UNK     0       6.540  -5.650  -1.090  0.00  0.00     0.013 A 
HETATM    5  C   UNK     0       7.821  -5.332  -0.598  0.00  0.00    -0.019 A 
HETATM    6  C   UNK     0       8.761  -4.690  -1.405  0.00  0.00    -0.043 A 
HETATM    7  C   UNK     0       8.396  -5.536   0.649  0.00  0.00    -0.016 A 
HETATM    8  C   UNK     0       9.710  -5.044   0.638  0.00  0.00    -0.031 A 
HETATM    9  C   UNK     0      10.032  -4.492  -0.698  0.00  0.00     0.080 A 
HETATM   10  C   UNK     0       7.830  -6.103   1.801  0.00  0.00     0.042 A 
HETATM   11  C   UNK     0       8.603  -6.185   2.981  0.00  0.00     0.036 A 
HETATM   12  C   UNK     0       9.919  -5.661   2.971  0.00  0.00     0.043 A 
HETATM   13  C   UNK     0      10.509  -5.089   1.811  0.00  0.00    -0.009 A 
ENDROOT
BRANCH  13  14
HETATM   14  C   UNK     0      11.843  -4.588   1.876  0.00  0.00     0.015 A 
HETATM   15  C   UNK     0      12.315  -3.282   1.654  0.00  0.00     0.020 A 
HETATM   16  C   UNK     0      13.700  -3.087   1.778  0.00  0.00     0.008 A 
HETATM   17  C   UNK     0      14.432  -4.232   2.088  0.00  0.00     0.050 A 
HETATM   18  S   UNK     0      13.279  -5.542   2.228  0.00  0.00    -0.101 SA
ENDBRANCH  13  14
BRANCH  11  19
HETATM   19  N   UNK     0       8.164  -6.724   4.161  0.00  0.00    -0.327 N 
HETATM   20  C   UNK     0       7.473  -6.121   5.173  0.00  0.00     0.223 C 
HETATM   21  O   UNK     0       7.104  -4.924   5.126  0.00  0.00    -0.273 OA
HETATM   22  H   UNK     0       8.333  -7.673   4.277  0.00  0.00     0.169 HD
BRANCH  20  23
HETATM   23  C   UNK     0       7.092  -6.913   6.362  0.00  0.00     0.118 C 
BRANCH  23  24
HETATM   24  C   UNK     0       7.556  -6.242   7.674  0.00  0.00     0.124 C 
HETATM   25 Cl   UNK     0       9.285  -6.474   7.912  0.00  0.00    -0.130 Cl
ENDBRANCH  23  24
ENDBRANCH  20  23
ENDBRANCH  11  19
TORSDOF 4
ENDMDL
MODEL 2
REMARK VINA RESULT:      -5.9      3.176      5.554
REMARK  4 active torsions:
REMARK  status: ('A' for Active; 'I' for Inactive)
REMARK    1  A    between atoms: C_11  and  N_19 
REMARK    2  A    between atoms: C_13  and  C_14 
REMARK       I    between atoms: N_19  and  C_21 
REMARK    3  A    between atoms: C_21  and  C_22 
REMARK    4  A    between atoms: C_22  and  C_23 
ROOT
HETATM    1  C   UNK     0       6.298  -5.587  -1.433  0.00  0.00     0.008 A 
HETATM    2  C   UNK     0       6.587  -5.017  -2.690  0.00  0.00     0.001 A 
HETATM    3  C   UNK     0       7.740  -4.220  -2.863  0.00  0.00     0.001 A 
HETATM    4  C   UNK     0       8.619  -3.992  -1.784  0.00  0.00     0.013 A 
HETATM    5  C   UNK     0       8.324  -4.578  -0.537  0.00  0.00    -0.019 A 
HETATM    6  C   UNK     0       7.177  -5.352  -0.361  0.00  0.00    -0.043 A 
HETATM    7  C   UNK     0       9.012  -4.550   0.669  0.00  0.00    -0.016 A 
HETATM    8  C   UNK     0       8.297  -5.288   1.625  0.00  0.00    -0.031 A 
HETATM    9  C   UNK     0       7.056  -5.827   1.023  0.00  0.00     0.080 A 
HETATM   10  C   UNK     0      10.238  -3.938   0.973  0.00  0.00     0.042 A 
HETATM   11  C   UNK     0      10.767  -4.065   2.278  0.00  0.00     0.036 A 
HETATM   12  C   UNK     0      10.055  -4.835   3.229  0.00  0.00     0.043 A 
HETATM   13  C   UNK     0       8.809  -5.455   2.938  0.00  0.00    -0.009 A 
ENDROOT
BRANCH  13  14
HETATM   14  C   UNK     0       8.146  -6.210   3.953  0.00  0.00     0.015 A 
HETATM   15  C   UNK     0       7.583  -7.496   3.879  0.00  0.00     0.020 A 
HETATM   16  C   UNK     0       6.978  -7.982   5.050  0.00  0.00     0.008 A 
HETATM   17  C   UNK     0       6.999  -7.106   6.133  0.00  0.00     0.050 A 
HETATM   18  S   UNK     0       7.832  -5.663   5.594  0.00  0.00    -0.101 SA
ENDBRANCH  13  14
BRANCH  11  19
HETATM   19  N   UNK     0      11.946  -3.508   2.694  0.00  0.00    -0.327 N 
HETATM   20  C   UNK     0      13.222  -3.957   2.501  0.00  0.00     0.223 C 
HETATM   21  O   UNK     0      13.486  -4.992   1.844  0.00  0.00    -0.273 OA
HETATM   22  H   UNK     0      11.868  -2.659   3.157  0.00  0.00     0.169 HD
BRANCH  20  23
HETATM   23  C   UNK     0      14.354  -3.176   3.040  0.00  0.00     0.118 C 
BRANCH  23  24
HETATM   24  C   UNK     0      15.234  -2.586   1.915  0.00  0.00     0.124 C 
HETATM   25 Cl   UNK     0      14.261  -1.626   0.804  0.00  0.00    -0.130 Cl
ENDBRANCH  23  24
ENDBRANCH  20  23
ENDBRANCH  11  19
TORSDOF 4
ENDMDL
MODEL 3
REMARK VINA RESULT:      -5.9      3.845      7.150
REMARK  4 active torsions:
REMARK  status: ('A' for Active; 'I' for Inactive)
REMARK    1  A    between atoms: C_11  and  N_19 
REMARK    2  A    between atoms: C_13  and  C_14 
REMARK       I    between atoms: N_19  and  C_21 
REMARK    3  A    between atoms: C_21  and  C_22 
REMARK    4  A    between atoms: C_22  and  C_23 
ROOT
HETATM    1  C   UNK     0       8.709  -6.135   6.931  0.00  0.00     0.008 A 
HETATM    2  C   UNK     0       8.455  -4.891   7.543  0.00  0.00     0.001 A 
HETATM    3  C   UNK     0       8.274  -3.733   6.756  0.00  0.00     0.001 A 
HETATM    4  C   UNK     0       8.338  -3.809   5.349  0.00  0.00     0.013 A 
HETATM    5  C   UNK     0       8.582  -5.061   4.750  0.00  0.00    -0.019 A 
HETATM    6  C   UNK     0       8.777  -6.202   5.528  0.00  0.00    -0.043 A 
HETATM    7  C   UNK     0       8.666  -5.432   3.415  0.00  0.00    -0.016 A 
HETATM    8  C   UNK     0       8.935  -6.806   3.335  0.00  0.00    -0.031 A 
HETATM    9  C   UNK     0       9.049  -7.380   4.695  0.00  0.00     0.080 A 
HETATM   10  C   UNK     0       8.496  -4.644   2.266  0.00  0.00     0.042 A 
HETATM   11  C   UNK     0       8.603  -5.248   0.993  0.00  0.00     0.036 A 
HETATM   12  C   UNK     0       8.847  -6.642   0.919  0.00  0.00     0.043 A 
HETATM   13  C   UNK     0       9.027  -7.452   2.074  0.00  0.00    -0.009 A 
ENDROOT
BRANCH  13  14
HETATM   14  C   UNK     0       9.276  -8.849   1.919  0.00  0.00     0.015 A 
HETATM   15  C   UNK     0       8.446  -9.846   1.378  0.00  0.00     0.020 A 
HETATM   16  C   UNK     0       8.961 -11.153   1.368  0.00  0.00     0.008 A 
HETATM   17  C   UNK     0      10.232 -11.290   1.923  0.00  0.00     0.050 A 
HETATM   18  S   UNK     0      10.733  -9.691   2.431  0.00  0.00    -0.101 SA
ENDBRANCH  13  14
BRANCH  11  19
HETATM   19  N   UNK     0       8.466  -4.583  -0.196  0.00  0.00    -0.327 N 
HETATM   20  C   UNK     0       7.338  -4.382  -0.940  0.00  0.00     0.223 C 
HETATM   21  O   UNK     0       6.206  -4.783  -0.581  0.00  0.00    -0.273 OA
HETATM   22  H   UNK     0       9.272  -4.166  -0.537  0.00  0.00     0.169 HD
BRANCH  20  23
HETATM   23  C   UNK     0       7.430  -3.615  -2.200  0.00  0.00     0.118 C 
BRANCH  23  24
HETATM   24  C   UNK     0       7.847  -4.510  -3.389  0.00  0.00     0.124 C 
HETATM   25 Cl   UNK     0       6.540  -5.606  -3.830  0.00  0.00    -0.130 Cl
ENDBRANCH  23  24
ENDBRANCH  20  23
ENDBRANCH  11  19
TORSDOF 4
ENDMDL
MODEL 4
REMARK VINA RESULT:      -5.9      1.877      2.037
REMARK  4 active torsions:
REMARK  status: ('A' for Active; 'I' for Inactive)
REMARK    1  A    between atoms: C_11  and  N_19 
REMARK    2  A    between atoms: C_13  and  C_14 
REMARK       I    between atoms: N_19  and  C_21 
REMARK    3  A    between atoms: C_21  and  C_22 
REMARK    4  A    between atoms: C_22  and  C_23 
ROOT
HETATM    1  C   UNK     0       9.053  -5.029  -2.351  0.00  0.00     0.008 A 
HETATM    2  C   UNK     0       7.700  -5.280  -2.661  0.00  0.00     0.001 A 
HETATM    3  C   UNK     0       6.708  -5.168  -1.663  0.00  0.00     0.001 A 
HETATM    4  C   UNK     0       7.056  -4.798  -0.347  0.00  0.00     0.013 A 
HETATM    5  C   UNK     0       8.410  -4.539  -0.055  0.00  0.00    -0.019 A 
HETATM    6  C   UNK     0       9.393  -4.665  -1.036  0.00  0.00    -0.043 A 
HETATM    7  C   UNK     0       9.027  -4.135   1.122  0.00  0.00    -0.016 A 
HETATM    8  C   UNK     0      10.408  -4.021   0.903  0.00  0.00    -0.031 A 
HETATM    9  C   UNK     0      10.729  -4.382  -0.497  0.00  0.00     0.080 A 
HETATM   10  C   UNK     0       8.449  -3.837   2.366  0.00  0.00     0.042 A 
HETATM   11  C   UNK     0       9.280  -3.414   3.428  0.00  0.00     0.036 A 
HETATM   12  C   UNK     0      10.669  -3.274   3.192  0.00  0.00     0.043 A 
HETATM   13  C   UNK     0      11.270  -3.578   1.940  0.00  0.00    -0.009 A 
ENDROOT
BRANCH  13  14
HETATM   14  C   UNK     0      12.679  -3.418   1.780  0.00  0.00     0.015 A 
HETATM   15  C   UNK     0      13.388  -2.434   1.068  0.00  0.00     0.020 A 
HETATM   16  C   UNK     0      14.789  -2.541   1.077  0.00  0.00     0.008 A 
HETATM   17  C   UNK     0      15.292  -3.633   1.782  0.00  0.00     0.050 A 
HETATM   18  S   UNK     0      13.911  -4.489   2.435  0.00  0.00    -0.101 SA
ENDBRANCH  13  14
BRANCH  11  19
HETATM   19  N   UNK     0       8.835  -3.105   4.685  0.00  0.00    -0.327 N 
HETATM   20  C   UNK     0       8.589  -3.940   5.737  0.00  0.00     0.223 C 
HETATM   21  O   UNK     0       8.787  -5.178   5.684  0.00  0.00    -0.273 OA
HETATM   22  H   UNK     0       8.714  -2.159   4.866  0.00  0.00     0.169 HD
BRANCH  20  23
HETATM   23  C   UNK     0       8.118  -3.373   7.018  0.00  0.00     0.118 C 
BRANCH  23  24
HETATM   24  C   UNK     0       7.759  -4.476   8.039  0.00  0.00     0.124 C 
HETATM   25 Cl   UNK     0       6.665  -3.850   9.270  0.00  0.00    -0.130 Cl
ENDBRANCH  23  24
ENDBRANCH  20  23
ENDBRANCH  11  19
TORSDOF 4
ENDMDL
MODEL 5
REMARK VINA RESULT:      -5.9      2.347      5.219
REMARK  4 active torsions:
REMARK  status: ('A' for Active; 'I' for Inactive)
REMARK    1  A    between atoms: C_11  and  N_19 
REMARK    2  A    between atoms: C_13  and  C_14 
REMARK       I    between atoms: N_19  and  C_21 
REMARK    3  A    between atoms: C_21  and  C_22 
REMARK    4  A    between atoms: C_22  and  C_23 
ROOT
HETATM    1  C   UNK     0      13.825  -4.133  -0.697  0.00  0.00     0.008 A 
HETATM    2  C   UNK     0      15.017  -3.670  -0.103  0.00  0.00     0.001 A 
HETATM    3  C   UNK     0      14.998  -3.120   1.197  0.00  0.00     0.001 A 
HETATM    4  C   UNK     0      13.789  -3.033   1.919  0.00  0.00     0.013 A 
HETATM    5  C   UNK     0      12.608  -3.509   1.317  0.00  0.00    -0.019 A 
HETATM    6  C   UNK     0      12.622  -4.039   0.026  0.00  0.00    -0.043 A 
HETATM    7  C   UNK     0      11.306  -3.578   1.794  0.00  0.00    -0.016 A 
HETATM    8  C   UNK     0      10.480  -4.131   0.803  0.00  0.00    -0.031 A 
HETATM    9  C   UNK     0      11.278  -4.437  -0.406  0.00  0.00     0.080 A 
HETATM   10  C   UNK     0      10.804  -3.207   3.052  0.00  0.00     0.042 A 
HETATM   11  C   UNK     0       9.431  -3.393   3.328  0.00  0.00     0.036 A 
HETATM   12  C   UNK     0       8.609  -3.978   2.334  0.00  0.00     0.043 A 
HETATM   13  C   UNK     0       9.101  -4.353   1.054  0.00  0.00    -0.009 A 
ENDROOT
BRANCH  13  14
HETATM   14  C   UNK     0       8.209  -4.931   0.101  0.00  0.00     0.015 A 
HETATM   15  C   UNK     0       7.533  -4.320  -0.970  0.00  0.00     0.020 A 
HETATM   16  C   UNK     0       6.701  -5.149  -1.740  0.00  0.00     0.008 A 
HETATM   17  C   UNK     0       6.641  -6.477  -1.322  0.00  0.00     0.050 A 
HETATM   18  S   UNK     0       7.695  -6.613   0.070  0.00  0.00    -0.101 SA
ENDBRANCH  13  14
BRANCH  11  19
HETATM   19  N   UNK     0       8.826  -3.063   4.512  0.00  0.00    -0.327 N 
HETATM   20  C   UNK     0       8.619  -3.843   5.614  0.00  0.00     0.223 C 
HETATM   21  O   UNK     0       9.015  -5.030   5.692  0.00  0.00    -0.273 OA
HETATM   22  H   UNK     0       8.540  -2.140   4.593  0.00  0.00     0.169 HD
BRANCH  20  23
HETATM   23  C   UNK     0       7.945  -3.263   6.795  0.00  0.00     0.118 C 
BRANCH  23  24
HETATM   24  C   UNK     0       8.099  -4.159   8.044  0.00  0.00     0.124 C 
HETATM   25 Cl   UNK     0       6.722  -3.960   9.124  0.00  0.00    -0.130 Cl
ENDBRANCH  23  24
ENDBRANCH  20  23
ENDBRANCH  11  19
TORSDOF 4
ENDMDL
MODEL 6
REMARK VINA RESULT:      -5.8      2.769      3.999
REMARK  4 active torsions:
REMARK  status: ('A' for Active; 'I' for Inactive)
REMARK    1  A    between atoms: C_11  and  N_19 
REMARK    2  A    between atoms: C_13  and  C_14 
REMARK       I    between atoms: N_19  and  C_21 
REMARK    3  A    between atoms: C_21  and  C_22 
REMARK    4  A    between atoms: C_22  and  C_23 
ROOT
HETATM    1  C   UNK     0       7.598  -6.098  -2.882  0.00  0.00     0.008 A 
HETATM    2  C   UNK     0       7.304  -4.791  -3.320  0.00  0.00     0.001 A 
HETATM    3  C   UNK     0       7.311  -3.715  -2.406  0.00  0.00     0.001 A 
HETATM    4  C   UNK     0       7.618  -3.934  -1.047  0.00  0.00     0.013 A 
HETATM    5  C   UNK     0       7.920  -5.243  -0.625  0.00  0.00    -0.019 A 
HETATM    6  C   UNK     0       7.898  -6.310  -1.524  0.00  0.00    -0.043 A 
HETATM    7  C   UNK     0       8.280  -5.740   0.620  0.00  0.00    -0.016 A 
HETATM    8  C   UNK     0       8.470  -7.127   0.527  0.00  0.00    -0.031 A 
HETATM    9  C   UNK     0       8.209  -7.581  -0.858  0.00  0.00     0.080 A 
HETATM   10  C   UNK     0       8.477  -5.047   1.825  0.00  0.00     0.042 A 
HETATM   11  C   UNK     0       8.873  -5.764   2.977  0.00  0.00     0.036 A 
HETATM   12  C   UNK     0       9.090  -7.159   2.868  0.00  0.00     0.043 A 
HETATM   13  C   UNK     0       8.889  -7.876   1.657  0.00  0.00    -0.009 A 
ENDROOT
BRANCH  13  14
HETATM   14  C   UNK     0       9.122  -9.284   1.628  0.00  0.00     0.015 A 
HETATM   15  C   UNK     0       8.435 -10.285   0.919  0.00  0.00     0.020 A 
HETATM   16  C   UNK     0       8.887 -11.603   1.098  0.00  0.00     0.008 A 
HETATM   17  C   UNK     0       9.956 -11.745   1.981  0.00  0.00     0.050 A 
HETATM   18  S   UNK     0      10.357 -10.137   2.546  0.00  0.00    -0.101 SA
ENDBRANCH  13  14
BRANCH  11  19
HETATM   19  N   UNK     0       9.086  -5.201   4.206  0.00  0.00    -0.327 N 
HETATM   20  C   UNK     0       8.176  -4.890   5.176  0.00  0.00     0.223 C 
HETATM   21  O   UNK     0       6.950  -5.129   5.060  0.00  0.00    -0.273 OA
HETATM   22  H   UNK     0      10.014  -5.036   4.436  0.00  0.00     0.169 HD
BRANCH  20  23
HETATM   23  C   UNK     0       8.644  -4.291   6.443  0.00  0.00     0.118 C 
BRANCH  23  24
HETATM   24  C   UNK     0       7.686  -3.188   6.947  0.00  0.00     0.124 C 
HETATM   25 Cl   UNK     0       7.311  -3.422   8.652  0.00  0.00    -0.130 Cl
ENDBRANCH  23  24
ENDBRANCH  20  23
ENDBRANCH  11  19
TORSDOF 4
ENDMDL
MODEL 7
REMARK VINA RESULT:      -5.7      3.169      7.014
REMARK  4 active torsions:
REMARK  status: ('A' for Active; 'I' for Inactive)
REMARK    1  A    between atoms: C_11  and  N_19 
REMARK    2  A    between atoms: C_13  and  C_14 
REMARK       I    between atoms: N_19  and  C_21 
REMARK    3  A    between atoms: C_21  and  C_22 
REMARK    4  A    between atoms: C_22  and  C_23 
ROOT
HETATM    1  C   UNK     0       7.272  -6.805   5.756  0.00  0.00     0.008 A 
HETATM    2  C   UNK     0       7.742  -6.617   7.072  0.00  0.00     0.001 A 
HETATM    3  C   UNK     0       8.887  -5.827   7.314  0.00  0.00     0.001 A 
HETATM    4  C   UNK     0       9.570  -5.212   6.244  0.00  0.00     0.013 A 
HETATM    5  C   UNK     0       9.083  -5.400   4.935  0.00  0.00    -0.019 A 
HETATM    6  C   UNK     0       7.961  -6.194   4.694  0.00  0.00    -0.043 A 
HETATM    7  C   UNK     0       9.526  -4.902   3.717  0.00  0.00    -0.016 A 
HETATM    8  C   UNK     0       8.703  -5.391   2.692  0.00  0.00    -0.031 A 
HETATM    9  C   UNK     0       7.659  -6.275   3.259  0.00  0.00     0.080 A 
HETATM   10  C   UNK     0      10.592  -4.026   3.456  0.00  0.00     0.042 A 
HETATM   11  C   UNK     0      10.846  -3.628   2.124  0.00  0.00     0.036 A 
HETATM   12  C   UNK     0       9.993  -4.103   1.097  0.00  0.00     0.043 A 
HETATM   13  C   UNK     0       8.914  -4.994   1.345  0.00  0.00    -0.009 A 
ENDROOT
BRANCH  13  14
HETATM   14  C   UNK     0       8.103  -5.435   0.257  0.00  0.00     0.015 A 
HETATM   15  C   UNK     0       6.939  -4.853  -0.278  0.00  0.00     0.020 A 
HETATM   16  C   UNK     0       6.340  -5.527  -1.355  0.00  0.00     0.008 A 
HETATM   17  C   UNK     0       6.974  -6.707  -1.739  0.00  0.00     0.050 A 
HETATM   18  S   UNK     0       8.360  -6.898  -0.685  0.00  0.00    -0.101 SA
ENDBRANCH  13  14
BRANCH  11  19
HETATM   19  N   UNK     0      11.858  -2.788   1.745  0.00  0.00    -0.327 N 
HETATM   20  C   UNK     0      13.106  -3.102   1.287  0.00  0.00     0.223 C 
HETATM   21  O   UNK     0      13.491  -4.283   1.118  0.00  0.00    -0.273 OA
HETATM   22  H   UNK     0      11.647  -1.841   1.767  0.00  0.00     0.169 HD
BRANCH  20  23
HETATM   23  C   UNK     0      14.039  -2.015   0.924  0.00  0.00     0.118 C 
BRANCH  23  24
HETATM   24  C   UNK     0      15.463  -2.273   1.463  0.00  0.00     0.124 C 
HETATM   25 Cl   UNK     0      15.449  -2.401   3.220  0.00  0.00    -0.130 Cl
ENDBRANCH  23  24
ENDBRANCH  20  23
ENDBRANCH  11  19
TORSDOF 4
ENDMDL
MODEL 8
REMARK VINA RESULT:      -5.7      1.610      4.908
REMARK  4 active torsions:
REMARK  status: ('A' for Active; 'I' for Inactive)
REMARK    1  A    between atoms: C_11  and  N_19 
REMARK    2  A    between atoms: C_13  and  C_14 
REMARK       I    between atoms: N_19  and  C_21 
REMARK    3  A    between atoms: C_21  and  C_22 
REMARK    4  A    between atoms: C_22  and  C_23 
ROOT
HETATM    1  C   UNK     0      13.289  -3.488   0.217  0.00  0.00     0.008 A 
HETATM    2  C   UNK     0      14.352  -3.303   1.124  0.00  0.00     0.001 A 
HETATM    3  C   UNK     0      14.216  -3.703   2.471  0.00  0.00     0.001 A 
HETATM    4  C   UNK     0      13.020  -4.298   2.923  0.00  0.00     0.013 A 
HETATM    5  C   UNK     0      11.970  -4.487   2.003  0.00  0.00    -0.019 A 
HETATM    6  C   UNK     0      12.097  -4.077   0.675  0.00  0.00    -0.043 A 
HETATM    7  C   UNK     0      10.715  -5.062   2.156  0.00  0.00    -0.016 A 
HETATM    8  C   UNK     0      10.029  -5.004   0.934  0.00  0.00    -0.031 A 
HETATM    9  C   UNK     0      10.871  -4.341  -0.088  0.00  0.00     0.080 A 
HETATM   10  C   UNK     0      10.148  -5.655   3.295  0.00  0.00     0.042 A 
HETATM   11  C   UNK     0       8.850  -6.207   3.211  0.00  0.00     0.036 A 
HETATM   12  C   UNK     0       8.174  -6.170   1.967  0.00  0.00     0.043 A 
HETATM   13  C   UNK     0       8.732  -5.567   0.806  0.00  0.00    -0.009 A 
ENDROOT
BRANCH  13  14
HETATM   14  C   UNK     0       7.987  -5.563  -0.411  0.00  0.00     0.015 A 
HETATM   15  C   UNK     0       7.352  -4.490  -1.061  0.00  0.00     0.020 A 
HETATM   16  C   UNK     0       6.673  -4.794  -2.253  0.00  0.00     0.008 A 
HETATM   17  C   UNK     0       6.704  -6.137  -2.624  0.00  0.00     0.050 A 
HETATM   18  S   UNK     0       7.641  -6.973  -1.404  0.00  0.00    -0.101 SA
ENDBRANCH  13  14
BRANCH  11  19
HETATM   19  N   UNK     0       8.191  -6.802   4.252  0.00  0.00    -0.327 N 
HETATM   20  C   UNK     0       7.433  -6.223   5.230  0.00  0.00     0.223 C 
HETATM   21  O   UNK     0       7.209  -4.990   5.276  0.00  0.00    -0.273 OA
HETATM   22  H   UNK     0       8.236  -7.771   4.277  0.00  0.00     0.169 HD
BRANCH  20  23
HETATM   23  C   UNK     0       6.802  -7.077   6.258  0.00  0.00     0.118 C 
BRANCH  23  24
HETATM   24  C   UNK     0       7.224  -6.667   7.687  0.00  0.00     0.124 C 
HETATM   25 Cl   UNK     0       8.980  -6.609   7.823  0.00  0.00    -0.130 Cl
ENDBRANCH  23  24
ENDBRANCH  20  23
ENDBRANCH  11  19
TORSDOF 4
ENDMDL
MODEL 9
REMARK VINA RESULT:      -5.7      3.163      5.223
REMARK  4 active torsions:
REMARK  status: ('A' for Active; 'I' for Inactive)
REMARK    1  A    between atoms: C_11  and  N_19 
REMARK    2  A    between atoms: C_13  and  C_14 
REMARK       I    between atoms: N_19  and  C_21 
REMARK    3  A    between atoms: C_21  and  C_22 
REMARK    4  A    between atoms: C_22  and  C_23 
ROOT
HETATM    1  C   UNK     0       9.596 -10.911   0.052  0.00  0.00     0.008 A 
HETATM    2  C   UNK     0      10.142 -11.852   0.948  0.00  0.00     0.001 A 
HETATM    3  C   UNK     0      10.470 -11.473   2.268  0.00  0.00     0.001 A 
HETATM    4  C   UNK     0      10.248 -10.151   2.707  0.00  0.00     0.013 A 
HETATM    5  C   UNK     0       9.692  -9.224   1.805  0.00  0.00    -0.019 A 
HETATM    6  C   UNK     0       9.383  -9.593   0.495  0.00  0.00    -0.043 A 
HETATM    7  C   UNK     0       9.343  -7.889   1.967  0.00  0.00    -0.016 A 
HETATM    8  C   UNK     0       8.829  -7.396   0.758  0.00  0.00    -0.031 A 
HETATM    9  C   UNK     0       8.849  -8.461  -0.271  0.00  0.00     0.080 A 
HETATM   10  C   UNK     0       9.425  -7.088   3.117  0.00  0.00     0.042 A 
HETATM   11  C   UNK     0       8.982  -5.748   3.056  0.00  0.00     0.036 A 
HETATM   12  C   UNK     0       8.439  -5.264   1.840  0.00  0.00     0.043 A 
HETATM   13  C   UNK     0       8.355  -6.062   0.666  0.00  0.00    -0.009 A 
ENDROOT
BRANCH  13  14
HETATM   14  C   UNK     0       7.801  -5.502  -0.524  0.00  0.00     0.015 A 
HETATM   15  C   UNK     0       6.563  -5.764  -1.138  0.00  0.00     0.020 A 
HETATM   16  C   UNK     0       6.291  -5.063  -2.324  0.00  0.00     0.008 A 
HETATM   17  C   UNK     0       7.306  -4.208  -2.750  0.00  0.00     0.050 A 
HETATM   18  S   UNK     0       8.593  -4.330  -1.570  0.00  0.00    -0.101 SA
ENDBRANCH  13  14
BRANCH  11  19
HETATM   19  N   UNK     0       9.020  -4.869   4.105  0.00  0.00    -0.327 N 
HETATM   20  C   UNK     0       8.062  -4.617   5.046  0.00  0.00     0.223 C 
HETATM   21  O   UNK     0       6.967  -5.227   5.082  0.00  0.00    -0.273 OA
HETATM   22  H   UNK     0       9.855  -4.388   4.219  0.00  0.00     0.169 HD
BRANCH  20  23
HETATM   23  C   UNK     0       8.331  -3.622   6.105  0.00  0.00     0.118 C 
BRANCH  23  24
HETATM   24  C   UNK     0       8.062  -4.193   7.515  0.00  0.00     0.124 C 
HETATM   25 Cl   UNK     0       7.997  -2.898   8.707  0.00  0.00    -0.130 Cl
ENDBRANCH  23  24
ENDBRANCH  20  23
ENDBRANCH  11  19
TORSDOF 4
ENDMDL
