REMARK  Name = 1046
REMARK  1 active torsions:
REMARK  status: ('A' for Active; 'I' for Inactive)
REMARK    1  A    between atoms: C_3  and  C_9
REMARK                            x       y       z     vdW  Elec       q    Type
REMARK                         _______ _______ _______ _____ _____    ______ ____
ROOT
ATOM      1  N   UNL     1       0.302  -1.192  -0.001  0.00  0.00    -0.236 NA
ATOM      2  N   UNL     1       1.845   1.151   0.002  0.00  0.00    -0.239 NA
ATOM      3  C   UNL     1      -0.261   0.033   0.002  0.00  0.00    +0.153 C 
ATOM      4  C   UNL     1       0.497   1.184   0.004  0.00  0.00    +0.123 C 
ATOM      5  C   UNL     1       1.649  -1.224  -0.003  0.00  0.00    +0.120 C 
ATOM      6  C   UNL     1       2.407  -0.074  -0.002  0.00  0.00    +0.120 C 
ENDROOT
BRANCH   3   9
ATOM      7  O   UNL     1      -2.326   1.165  -0.008  0.00  0.00    -0.269 OA
ATOM      8  N   UNL     1      -2.403  -1.126   0.003  0.00  0.00    -0.324 N 
ATOM      9  C   UNL     1      -1.710   0.083   0.004  0.00  0.00    +0.262 C 
ATOM     10  H   UNL     1      -3.388  -1.130   0.004  0.00  0.00    +0.145 HD
ATOM     11  H   UNL     1      -1.908  -1.977   0.000  0.00  0.00    +0.145 HD
ENDBRANCH   3   9
TORSDOF 1
