REMARK  Name = 4091
REMARK  2 active torsions:
REMARK  status: ('A' for Active; 'I' for Inactive)
REMARK    1  A    between atoms: N_1  and  C_4
REMARK    2  A    between atoms: N_1  and  C_13
REMARK                            x       y       z     vdW  Elec       q    Type
REMARK                         _______ _______ _______ _____ _____    ______ ____
ROOT
ATOM      1  N   UNL     1       0.717   0.215  -0.819  0.00  0.00    -0.180 NA
ENDROOT
BRANCH   1   4
ATOM      2  N   UNL     1       2.901  -0.448  -0.336  0.00  0.00    -0.370 N 
ATOM      3  N   UNL     1       1.520  -0.030   1.435  0.00  0.00    -0.370 N 
ATOM      4  C   UNL     1       1.642  -0.066   0.063  0.00  0.00    +0.196 C 
ATOM      5  H   UNL     1       3.114  -0.512  -1.295  0.00  0.00    +0.159 HD
ATOM      6  H   UNL     1       3.588  -0.656   0.337  0.00  0.00    +0.159 HD
ATOM      7  H   UNL     1       0.664   0.230   1.846  0.00  0.00    +0.159 HD
ATOM      8  H   UNL     1       2.289  -0.262   2.004  0.00  0.00    +0.159 HD
ENDBRANCH   1   4
BRANCH   1  13
ATOM      9  N   UNL     1      -1.516  -0.360  -0.079  0.00  0.00    -0.315 N 
ATOM     10  N   UNL     1      -0.660   1.874  -0.162  0.00  0.00    -0.267 NA
ATOM     11  C   UNL     1      -1.298  -1.784  -0.308  0.00  0.00    +0.128 C 
ATOM     12  C   UNL     1      -2.780   0.005   0.551  0.00  0.00    +0.128 C 
ATOM     13  C   UNL     1      -0.526   0.593  -0.345  0.00  0.00    +0.224 C 
ATOM     14  H   UNL     1      -1.512   2.237   0.173  0.00  0.00    +0.190 HD
ENDBRANCH   1  13
TORSDOF 2
