REMARK  Name = 3341
REMARK  4 active torsions:
REMARK  status: ('A' for Active; 'I' for Inactive)
REMARK    1  A    between atoms: C_3  and  C_15
REMARK    2  A    between atoms: C_11  and  O_23
REMARK    3  A    between atoms: C_12  and  O_25
REMARK    4  A    between atoms: C_20  and  O_21
REMARK                            x       y       z     vdW  Elec       q    Type
REMARK                         _______ _______ _______ _____ _____    ______ ____
ROOT
ATOM      1 CL   UNL     1      -3.202   0.924   2.432  0.00  0.00    -0.079 Cl
ATOM      2  N   UNL     1       0.841   2.837  -0.590  0.00  0.00    +0.384 N 
ATOM      3  C   UNL     1       0.533   0.423  -1.358  0.00  0.00    +0.023 C 
ATOM      4  C   UNL     1      -0.811   0.054  -0.732  0.00  0.00    -0.021 C 
ATOM      5  C   UNL     1       0.550   1.935  -1.705  0.00  0.00    -0.073 C 
ATOM      6  C   UNL     1      -1.286   0.651   0.454  0.00  0.00    -0.014 C 
ATOM      7  C   UNL     1      -0.501   1.708   1.190  0.00  0.00    +0.004 C 
ATOM      8  C   UNL     1      -0.260   2.967   0.361  0.00  0.00    -0.077 C 
ATOM      9  C   UNL     1      -1.599  -0.929  -1.363  0.00  0.00    +0.035 C 
ATOM     10  C   UNL     1      -2.527   0.244   0.977  0.00  0.00    +0.090 C 
ATOM     11  C   UNL     1      -2.828  -1.317  -0.833  0.00  0.00    +0.168 C 
ATOM     12  C   UNL     1      -3.292  -0.731   0.338  0.00  0.00    +0.178 C 
ATOM     13  H   UNL     1       1.051   3.761  -0.968  0.00  0.00    -0.084 HD
ATOM     14  H   UNL     1       1.630   2.437  -0.081  0.00  0.00    -0.084 HD
ENDROOT
BRANCH   3  15
ATOM     15  C   UNL     1       1.768  -0.127  -0.634  0.00  0.00    -0.020 C 
ATOM     16  C   UNL     1       2.990   0.532  -0.748  0.00  0.00    -0.001 C 
ATOM     17  C   UNL     1       1.663  -1.283   0.135  0.00  0.00    -0.001 C 
ATOM     18  C   UNL     1       4.113   0.032  -0.090  0.00  0.00    +0.036 C 
ATOM     19  C   UNL     1       2.787  -1.784   0.794  0.00  0.00    +0.036 C 
ATOM     20  C   UNL     1       4.011  -1.126   0.681  0.00  0.00    +0.134 C 
BRANCH  20  21
ATOM     21  O   UNL     1       5.108  -1.613   1.324  0.00  0.00    -0.506 OA
ATOM     22  H   UNL     1       5.931  -1.171   1.248  0.00  0.00    +0.292 HD
ENDBRANCH  20  21
ENDBRANCH   3  15
BRANCH  11  23
ATOM     23  O   UNL     1      -3.560  -2.271  -1.472  0.00  0.00    -0.503 OA
ATOM     24  H   UNL     1      -3.236  -2.659  -2.261  0.00  0.00    +0.292 HD
ENDBRANCH  11  23
BRANCH  12  25
ATOM     25  O   UNL     1      -4.499  -1.128   0.838  0.00  0.00    -0.502 OA
ATOM     26  H   UNL     1      -4.828  -0.745   1.627  0.00  0.00    +0.292 HD
ENDBRANCH  12  25
TORSDOF 4
