REMARK  Name = 5991
REMARK  3 active torsions:
REMARK  status: ('A' for Active; 'I' for Inactive)
REMARK    1  A    between atoms: C_4  and  O_19
REMARK    2  A    between atoms: C_4  and  C_23
REMARK    3  A    between atoms: C_18  and  O_21
REMARK                            x       y       z     vdW  Elec       q    Type
REMARK                         _______ _______ _______ _____ _____    ______ ____
ROOT
ATOM      1  C   UNL     1      -2.246   0.388  -0.590  0.00  0.00    +0.033 C 
ATOM      2  C   UNL     1      -1.569  -0.781   0.161  0.00  0.00    +0.004 C 
ATOM      3  C   UNL     1      -0.066  -0.864  -0.117  0.00  0.00    +0.004 C 
ATOM      4  C   UNL     1      -3.737   0.140  -0.210  0.00  0.00    +0.142 C 
ATOM      5  C   UNL     1       0.610   0.456   0.360  0.00  0.00    +0.022 C 
ATOM      6  C   UNL     1      -1.607   1.702  -0.107  0.00  0.00    +0.004 C 
ATOM      7  C   UNL     1      -2.447  -1.982  -0.181  0.00  0.00    +0.004 C 
ATOM      8  C   UNL     1      -0.074   1.697  -0.271  0.00  0.00    +0.004 C 
ATOM      9  C   UNL     1      -3.870  -1.402  -0.313  0.00  0.00    +0.039 C 
ATOM     10  C   UNL     1       0.596  -2.047   0.594  0.00  0.00    +0.005 C 
ATOM     11  C   UNL     1      -2.089   0.310  -2.138  0.00  0.00    +0.003 C 
ATOM     12  C   UNL     1       2.126   0.396   0.187  0.00  0.00    -0.026 C 
ATOM     13  C   UNL     1       2.054  -2.162   0.159  0.00  0.00    +0.026 C 
ATOM     14  C   UNL     1       2.793  -0.847   0.135  0.00  0.00    -0.023 C 
ATOM     15  C   UNL     1       2.902   1.568   0.163  0.00  0.00    -0.001 C 
ATOM     16  C   UNL     1       4.193  -0.886   0.009  0.00  0.00    +0.032 C 
ATOM     17  C   UNL     1       4.293   1.515   0.047  0.00  0.00    +0.036 C 
ATOM     18  C   UNL     1       4.939   0.288  -0.036  0.00  0.00    +0.133 C 
ENDROOT
BRANCH   4  19
ATOM     19  O   UNL     1      -4.639   0.755  -1.120  0.00  0.00    -0.375 OA
ATOM     20  H   UNL     1      -4.425   0.477  -2.024  0.00  0.00    +0.211 HD
ENDBRANCH   4  19
BRANCH  18  21
ATOM     21  O   UNL     1       6.293   0.234  -0.153  0.00  0.00    -0.506 OA
ATOM     22  H   UNL     1       6.726  -0.595  -0.209  0.00  0.00    +0.292 HD
ENDBRANCH  18  21
BRANCH   4  23
ATOM     23  C   UNL     1      -4.086   0.581   1.155  0.00  0.00    -0.053 C 
ATOM     24  C   UNL     1      -4.369   0.940   2.266  0.00  0.00    -0.012 C 
ENDBRANCH   4  23
TORSDOF 3
