REMARK  Name = 3157
REMARK  3 active torsions:
REMARK  status: ('A' for Active; 'I' for Inactive)
REMARK    1  A    between atoms: C_11  and  C_24
REMARK    2  A    between atoms: C_18  and  O_32
REMARK    3  A    between atoms: C_19  and  O_34
REMARK                            x       y       z     vdW  Elec       q    Type
REMARK                         _______ _______ _______ _____ _____    ______ ____
ROOT
ATOM      1  O   UNL     1      -4.154   2.466   0.866  0.00  0.00    -0.271 OA
ATOM      2  N   UNL     1      -2.221   1.229   0.501  0.00  0.00    -0.273 N 
ATOM      3  N   UNL     1       0.651   1.036   0.197  0.00  0.00    -0.231 N 
ATOM      4  N   UNL     1       2.632  -0.255   0.262  0.00  0.00    -0.332 NA
ATOM      5  N   UNL     1       2.693   2.061  -0.404  0.00  0.00    -0.313 NA
ATOM      6  N   UNL     1       4.725   3.085  -1.002  0.00  0.00    -0.332 N 
ATOM      7  C   UNL     1      -1.569  -0.031   0.137  0.00  0.00    +0.116 C 
ATOM      8  C   UNL     1      -1.338   2.352   0.805  0.00  0.00    +0.116 C 
ATOM      9  C   UNL     1      -0.129  -0.121   0.642  0.00  0.00    +0.125 C 
ATOM     10  C   UNL     1      -0.051   2.305  -0.014  0.00  0.00    +0.125 C 
ATOM     11  C   UNL     1      -3.604   1.405   0.559  0.00  0.00    +0.270 C 
ATOM     12  C   UNL     1       2.029   0.947   0.013  0.00  0.00    +0.204 C 
ATOM     13  C   UNL     1       3.962  -0.348   0.087  0.00  0.00    +0.134 C 
ATOM     14  C   UNL     1       4.724   0.751  -0.340  0.00  0.00    +0.074 C 
ATOM     15  C   UNL     1       4.023   1.932  -0.569  0.00  0.00    +0.193 C 
ATOM     16  C   UNL     1       4.628  -1.548   0.326  0.00  0.00    +0.127 C 
ATOM     17  C   UNL     1       6.114   0.642  -0.520  0.00  0.00    +0.046 C 
ATOM     18  C   UNL     1       6.011  -1.664   0.149  0.00  0.00    +0.157 C 
ATOM     19  C   UNL     1       6.754  -0.569  -0.274  0.00  0.00    +0.169 C 
ATOM     20  H   UNL     1       4.239   3.925  -1.166  0.00  0.00    +0.145 HD
ATOM     21  H   UNL     1       5.699   3.045  -1.138  0.00  0.00    +0.145 HD
ENDROOT
BRANCH  11  24
ATOM     22  O   UNL     1      -5.603   0.742  -0.396  0.00  0.00    -0.463 OA
ATOM     23  O   UNL     1      -5.599  -1.699   1.140  0.00  0.00    -0.468 OA
ATOM     24  C   UNL     1      -4.435   0.211   0.230  0.00  0.00    +0.284 C 
ATOM     25  C   UNL     1      -4.809  -0.557   1.483  0.00  0.00    +0.258 C 
ATOM     26  C   UNL     1      -6.599  -0.195  -0.488  0.00  0.00    +0.173 C 
ATOM     27  C   UNL     1      -6.591  -1.383   0.248  0.00  0.00    +0.172 C 
ATOM     28  C   UNL     1      -7.656   0.083  -1.354  0.00  0.00    +0.040 C 
ATOM     29  C   UNL     1      -7.618  -2.313   0.085  0.00  0.00    +0.040 C 
ATOM     30  C   UNL     1      -8.690  -0.841  -1.506  0.00  0.00    +0.003 C 
ATOM     31  C   UNL     1      -8.668  -2.040  -0.792  0.00  0.00    +0.003 C 
ENDBRANCH  11  24
BRANCH  18  32
ATOM     32  O   UNL     1       6.616  -2.860   0.397  0.00  0.00    -0.472 OA
ATOM     33  C   UNL     1       6.731  -3.777  -0.672  0.00  0.00    +0.252 C 
ENDBRANCH  18  32
BRANCH  19  34
ATOM     34  O   UNL     1       8.101  -0.668  -0.449  0.00  0.00    -0.469 OA
ATOM     35  C   UNL     1       8.937  -0.380   0.653  0.00  0.00    +0.253 C 
ENDBRANCH  19  34
TORSDOF 3
