REMARK  Name = 5284603
REMARK  2 active torsions:
REMARK  status: ('A' for Active; 'I' for Inactive)
REMARK    1  A    between atoms: C_5  and  O_22
REMARK    2  A    between atoms: C_19  and  O_24
REMARK                            x       y       z     vdW  Elec       q    Type
REMARK                         _______ _______ _______ _____ _____    ______ ____
ROOT
ATOM      1  O   UNL     1      -1.573   1.105  -1.249  0.00  0.00    -0.469 OA
ATOM      2  O   UNL     1      -1.484   3.295   0.338  0.00  0.00    -0.292 OA
ATOM      3  N   UNL     1       2.988  -1.263  -0.469  0.00  0.00    +0.389 N 
ATOM      4  C   UNL     1       0.689   0.503  -0.644  0.00  0.00    +0.084 C 
ATOM      5  C   UNL     1       1.819   0.738   0.369  0.00  0.00    +0.079 C 
ATOM      6  C   UNL     1       2.370  -0.678   0.750  0.00  0.00    -0.028 C 
ATOM      7  C   UNL     1      -0.255   1.673  -0.965  0.00  0.00    +0.228 C 
ATOM      8  C   UNL     1       1.263  -0.164  -1.916  0.00  0.00    -0.013 C 
ATOM      9  C   UNL     1      -0.339  -0.397  -0.049  0.00  0.00    +0.016 C 
ATOM     10  C   UNL     1       1.351   1.581   1.569  0.00  0.00    +0.033 C 
ATOM     11  C   UNL     1       1.277  -1.583   1.422  0.00  0.00    +0.008 C 
ATOM     12  C   UNL     1       2.065  -1.438  -1.594  0.00  0.00    -0.077 C 
ATOM     13  C   UNL     1      -0.109  -1.415   0.856  0.00  0.00    -0.025 C 
ATOM     14  C   UNL     1       0.746   2.903   1.101  0.00  0.00    +0.071 C 
ATOM     15  C   UNL     1      -0.437   2.661   0.191  0.00  0.00    +0.191 C 
ATOM     16  C   UNL     1      -1.598  -0.041  -0.488  0.00  0.00    +0.169 C 
ATOM     17  C   UNL     1       3.756  -2.476  -0.211  0.00  0.00    -0.100 C 
ATOM     18  C   UNL     1      -1.219  -2.159   1.258  0.00  0.00    -0.001 C 
ATOM     19  C   UNL     1      -2.704  -0.770  -0.116  0.00  0.00    +0.172 C 
ATOM     20  C   UNL     1      -2.503  -1.847   0.759  0.00  0.00    +0.040 C 
ATOM     21  H   UNL     1       3.653  -0.547  -0.762  0.00  0.00    -0.080 HD
ENDROOT
BRANCH   5  22
ATOM     22  O   UNL     1       2.871   1.489  -0.261  0.00  0.00    -0.388 OA
ATOM     23  H   UNL     1       3.203   0.998  -1.028  0.00  0.00    +0.210 HD
ENDBRANCH   5  22
BRANCH  19  24
ATOM     24  O   UNL     1      -3.947  -0.447  -0.548  0.00  0.00    -0.468 OA
ATOM     25  C   UNL     1      -5.029  -1.269  -0.103  0.00  0.00    +0.253 C 
ENDBRANCH  19  24
TORSDOF 2
