REMARK  Name = 2267
REMARK  3 active torsions:
REMARK  status: ('A' for Active; 'I' for Inactive)
REMARK    1  A    between atoms: N_2  and  C_13
REMARK    2  A    between atoms: C_6  and  C_21
REMARK    3  A    between atoms: C_21  and  C_23
REMARK                            x       y       z     vdW  Elec       q    Type
REMARK                         _______ _______ _______ _____ _____    ______ ____
ROOT
ATOM      1  O   UNL     1       1.950  -3.016   0.157  0.00  0.00    -0.266 OA
ATOM      2  N   UNL     1       0.610  -1.122   0.101  0.00  0.00    -0.219 N 
ATOM      3  N   UNL     1       0.494   0.237   0.035  0.00  0.00    -0.171 NA
ATOM      4  C   UNL     1       1.831  -1.794   0.098  0.00  0.00    +0.276 A 
ATOM      5  C   UNL     1       3.047  -0.964   0.019  0.00  0.00    +0.059 A 
ATOM      6  C   UNL     1       1.559   0.971  -0.035  0.00  0.00    +0.083 A 
ATOM      7  C   UNL     1       2.924   0.419  -0.047  0.00  0.00    +0.020 A 
ATOM      8  C   UNL     1       4.314  -1.558   0.012  0.00  0.00    +0.005 C 
ATOM      9  C   UNL     1       4.067   1.221  -0.121  0.00  0.00    +0.001 C 
ATOM     10  C   UNL     1       5.454  -0.758  -0.062  0.00  0.00    +0.000 C 
ATOM     11  C   UNL     1       5.330   0.628  -0.128  0.00  0.00    +0.000 C 
ENDROOT
BRANCH   2  13
ATOM     12  N   UNL     1      -3.213  -3.280  -0.340  0.00  0.00    +0.386 N 
ATOM     13  C   UNL     1      -0.649  -1.835   0.177  0.00  0.00    +0.106 C 
ATOM     14  C   UNL     1      -1.381  -1.413   1.455  0.00  0.00    +0.022 C 
ATOM     15  C   UNL     1      -1.481  -1.540  -1.074  0.00  0.00    +0.002 C 
ATOM     16  C   UNL     1      -2.618  -2.236   1.805  0.00  0.00    -0.021 C 
ATOM     17  C   UNL     1      -2.498  -2.626  -1.441  0.00  0.00    -0.075 C 
ATOM     18  C   UNL     1      -3.673  -2.364   0.704  0.00  0.00    -0.077 C 
ATOM     19  C   UNL     1      -4.317  -4.082  -0.871  0.00  0.00    -0.101 C 
ATOM     20  H   UNL     1      -2.538  -3.888   0.123  0.00  0.00    -0.080 HD
ENDBRANCH   2  13
BRANCH   6  21
ATOM     21  C   UNL     1       1.368   2.468  -0.105  0.00  0.00    +0.074 C 
BRANCH  21  23
ATOM     22 CL   UNL     1      -4.472   3.848  -0.003  0.00  0.00    -0.082 Cl
ATOM     23  C   UNL     1      -0.087   2.813  -0.080  0.00  0.00    -0.016 C 
ATOM     24  C   UNL     1      -0.726   3.034   1.138  0.00  0.00    -0.003 C 
ATOM     25  C   UNL     1      -0.798   2.910  -1.274  0.00  0.00    -0.003 C 
ATOM     26  C   UNL     1      -2.083   3.355   1.162  0.00  0.00    +0.011 C 
ATOM     27  C   UNL     1      -2.155   3.230  -1.250  0.00  0.00    +0.011 C 
ATOM     28  C   UNL     1      -2.798   3.453  -0.032  0.00  0.00    +0.058 C 
ENDBRANCH  21  23
ENDBRANCH   6  21
TORSDOF 3
