REMARK  Name = 5584
REMARK  4 active torsions:
REMARK  status: ('A' for Active; 'I' for Inactive)
REMARK    1  A    between atoms: N_1  and  C_16
REMARK    2  A    between atoms: C_16  and  C_17
REMARK    3  A    between atoms: C_17  and  C_19
REMARK    4  A    between atoms: C_19  and  N_20
REMARK                            x       y       z     vdW  Elec       q    Type
REMARK                         _______ _______ _______ _____ _____    ______ ____
ROOT
ATOM      1  N   UNL     1      -0.394  -0.009  -0.768  0.00  0.00    -0.287 N 
ATOM      2  C   UNL     1       0.275  -1.233  -0.488  0.00  0.00    +0.048 C 
ATOM      3  C   UNL     1      -1.726   0.357  -0.440  0.00  0.00    +0.048 C 
ATOM      4  C   UNL     1      -1.052  -1.794   1.689  0.00  0.00    +0.032 C 
ATOM      5  C   UNL     1      -1.358  -0.329   1.957  0.00  0.00    +0.032 C 
ATOM      6  C   UNL     1      -0.033  -2.077   0.606  0.00  0.00    -0.008 C 
ATOM      7  C   UNL     1      -2.229   0.219   0.864  0.00  0.00    -0.008 C 
ATOM      8  C   UNL     1       1.290  -1.688  -1.372  0.00  0.00    +0.015 C 
ATOM      9  C   UNL     1      -2.590   0.885  -1.424  0.00  0.00    +0.015 C 
ATOM     10  C   UNL     1       0.642  -3.316   0.748  0.00  0.00    -0.003 C 
ATOM     11  C   UNL     1      -3.549   0.602   1.160  0.00  0.00    -0.003 C 
ATOM     12  C   UNL     1       1.958  -2.903  -1.202  0.00  0.00    +0.001 C 
ATOM     13  C   UNL     1      -3.900   1.262  -1.124  0.00  0.00    +0.001 C 
ATOM     14  C   UNL     1       1.629  -3.723  -0.141  0.00  0.00    -0.000 C 
ATOM     15  C   UNL     1      -4.380   1.121   0.171  0.00  0.00    -0.000 C 
ENDROOT
BRANCH   1  16
ATOM     16  C   UNL     1       0.293   0.963  -1.633  0.00  0.00    +0.093 C 
BRANCH  16  17
ATOM     17  C   UNL     1       1.668   1.362  -1.068  0.00  0.00    -0.001 C 
ATOM     18  C   UNL     1       2.388   2.343  -2.000  0.00  0.00    -0.000 C 
BRANCH  17  19
ATOM     19  C   UNL     1       1.603   1.946   0.356  0.00  0.00    -0.076 C 
BRANCH  19  20
ATOM     20  N   UNL     1       2.930   2.207   0.902  0.00  0.00    +0.384 N 
ATOM     21  C   UNL     1       3.704   0.968   0.990  0.00  0.00    -0.101 C 
ATOM     22  C   UNL     1       2.830   2.838   2.219  0.00  0.00    -0.101 C 
ATOM     23  H   UNL     1       3.414   2.847   0.272  0.00  0.00    -0.080 HD
ENDBRANCH  19  20
ENDBRANCH  17  19
ENDBRANCH  16  17
ENDBRANCH   1  16
TORSDOF 4
