2727
  -OEChem-10051719203D

 30 30  0     0  0  0  0  0  0999 V2000
    4.2498   -2.8279   -0.1742 Cl  0  0  0  0  0  0  0  0  0  0  0  0
    0.3928    2.0876    0.1512 S   0  0  0  0  0  0  0  0  0  0  0  0
    0.2245    2.6187   -1.1877 O   0  0  0  0  0  0  0  0  0  0  0  0
    0.8819    2.9342    1.2221 O   0  0  0  0  0  0  0  0  0  0  0  0
   -1.8268    0.6013   -1.4333 O   0  0  0  0  0  0  0  0  0  0  0  0
   -1.0584    1.3325    0.6475 N   0  0  0  0  0  0  0  0  0  0  0  0
   -3.0756    0.1610    0.4616 N   0  0  0  0  0  0  0  0  0  0  0  0
   -4.1500   -0.5466   -0.1941 C   0  0  0  0  0  0  0  0  0  0  0  0
    1.4824    0.6989    0.0592 C   0  0  0  0  0  0  0  0  0  0  0  0
   -3.8887   -2.0454   -0.2830 C   0  0  0  0  0  0  0  0  0  0  0  0
   -1.9921    0.6815   -0.2198 C   0  0  0  0  0  0  0  0  0  0  0  0
    1.5900    0.0020   -1.1318 C   0  0  0  0  0  0  0  0  0  0  0  0
    2.2081    0.3339    1.1801 C   0  0  0  0  0  0  0  0  0  0  0  0
   -3.7448   -2.6996    1.0838 C   0  0  0  0  0  0  0  0  0  0  0  0
    2.4498   -1.0939   -1.2043 C   0  0  0  0  0  0  0  0  0  0  0  0
    3.0680   -0.7621    1.1075 C   0  0  0  0  0  0  0  0  0  0  0  0
    3.1889   -1.4760   -0.0846 C   0  0  0  0  0  0  0  0  0  0  0  0
   -4.2872   -0.1360   -1.2003 H   0  0  0  0  0  0  0  0  0  0  0  0
   -5.0636   -0.3500    0.3769 H   0  0  0  0  0  0  0  0  0  0  0  0
   -4.7180   -2.5201   -0.8198 H   0  0  0  0  0  0  0  0  0  0  0  0
   -2.9782   -2.2330   -0.8644 H   0  0  0  0  0  0  0  0  0  0  0  0
   -1.2938    1.3884    1.6465 H   0  0  0  0  0  0  0  0  0  0  0  0
   -3.1174    0.2749    1.4697 H   0  0  0  0  0  0  0  0  0  0  0  0
    1.0207    0.2812   -2.0129 H   0  0  0  0  0  0  0  0  0  0  0  0
    2.1223    0.8712    2.1195 H   0  0  0  0  0  0  0  0  0  0  0  0
   -4.6344   -2.5257    1.6974 H   0  0  0  0  0  0  0  0  0  0  0  0
   -3.6173   -3.7810    0.9710 H   0  0  0  0  0  0  0  0  0  0  0  0
   -2.8730   -2.3156    1.6226 H   0  0  0  0  0  0  0  0  0  0  0  0
    2.5332   -1.6417   -2.1395 H   0  0  0  0  0  0  0  0  0  0  0  0
    3.6364   -1.0495    1.9884 H   0  0  0  0  0  0  0  0  0  0  0  0
  1 17  1  0  0  0  0
  2  3  2  0  0  0  0
  2  4  2  0  0  0  0
  2  6  1  0  0  0  0
  2  9  1  0  0  0  0
  5 11  2  0  0  0  0
  6 11  1  0  0  0  0
  6 22  1  0  0  0  0
  7  8  1  0  0  0  0
  7 11  1  0  0  0  0
  7 23  1  0  0  0  0
  8 10  1  0  0  0  0
  8 18  1  0  0  0  0
  8 19  1  0  0  0  0
  9 12  2  0  0  0  0
  9 13  1  0  0  0  0
 10 14  1  0  0  0  0
 10 20  1  0  0  0  0
 10 21  1  0  0  0  0
 12 15  1  0  0  0  0
 12 24  1  0  0  0  0
 13 16  2  0  0  0  0
 13 25  1  0  0  0  0
 14 26  1  0  0  0  0
 14 27  1  0  0  0  0
 14 28  1  0  0  0  0
 15 17  2  0  0  0  0
 15 29  1  0  0  0  0
 16 17  1  0  0  0  0
 16 30  1  0  0  0  0
M  END
> <DATABASE_ID>
DB00672

> <DATABASE_NAME>
drugbank

> <ORIGINAL_SOURCE>
PUBCHEM

> <ORIGINAL_SOURCE_URL>
https://pubchem.ncbi.nlm.nih.gov/rest/pug/compound/inchikey/RKWGIWYCVPQPMF-UHFFFAOYSA-N/SDF?record_type=3d

> <SMILES>
CCCNC(=O)NS(=O)(=O)C1=CC=C(Cl)C=C1

> <INCHI_IDENTIFIER>
InChI=1S/C10H13ClN2O3S/c1-2-7-12-10(14)13-17(15,16)9-5-3-8(11)4-6-9/h3-6H,2,7H2,1H3,(H2,12,13,14)

> <INCHI_KEY>
RKWGIWYCVPQPMF-UHFFFAOYSA-N

> <FORMULA>
C10H13ClN2O3S

> <MOLECULAR_WEIGHT>
276.74

> <EXACT_MASS>
276.033540689

> <JCHEM_ACCEPTOR_COUNT>
3

> <JCHEM_AVERAGE_POLARIZABILITY>
27.057008511382723

> <JCHEM_BIOAVAILABILITY>
1

> <JCHEM_DONOR_COUNT>
2

> <JCHEM_FORMAL_CHARGE>
0

> <JCHEM_GHOSE_FILTER>
1

> <JCHEM_IUPAC>
1-(4-chlorobenzenesulfonyl)-3-propylurea

> <ALOGPS_LOGP>
2.15

> <JCHEM_LOGP>
1.941390449333333

> <ALOGPS_LOGS>
-3.25

> <JCHEM_MDDR_LIKE_RULE>
0

> <JCHEM_NUMBER_OF_RINGS>
1

> <JCHEM_PHYSIOLOGICAL_CHARGE>
-1

> <JCHEM_PKA>
17.070932277227744

> <JCHEM_PKA_STRONGEST_ACIDIC>
4.32916679400861

> <JCHEM_POLAR_SURFACE_AREA>
75.27

> <JCHEM_REFRACTIVITY>
65.43260000000001

> <JCHEM_ROTATABLE_BOND_COUNT>
3

> <JCHEM_RULE_OF_FIVE>
1

> <ALOGPS_SOLUBILITY>
1.57e-01 g/l

> <JCHEM_TRADITIONAL_IUPAC>
chlorpropamide

> <JCHEM_VEBER_RULE>
0

> <DRUGBANK_ID>
DB00672

> <SECONDARY_ACCESSION_NUMBERS>
APRD00029

> <DRUG_GROUPS>
approved; investigational

> <GENERIC_NAME>
Chlorpropamide

> <SYNONYMS>
1-(p-chlorobenzenesulfonyl)-3-propylurea; 1-(p-chlorophenylsulfonyl)-3-propylurea; 1-propyl-3-(p-chlorobenzenesulfonyl)urea; 4-chloro-N-((propylamino)carbonyl)benzenesulfonamide; 4-chloro-N-[(propylamino)carbonyl]benzenesulfonamide; Chlorpropamid; Chlorpropamide; Chlorpropamidum; Clorpropamida; N-(4-chlorophenylsulfonyl)-N'-propylurea; N-(p-chlorobenzenesulfonyl)-N'-propylurea; n-propyl-N'-(p-chlorobenzenesulfonyl)urea; n-propyl-N'-p-chlorophenylsulfonylcarbamide

> <PRODUCTS>
Apo Chlorpropamide Tab 100mg; Apo Chlorpropamide Tab 250mg; Chlorpropamide; Chlorpropamide 100 Tab USP; Chlorpropamide Tab 250mg; Diabinese; Diabinese Tab 100mg; Diabinese Tab 250mg; Novo-propamide 250mg

> <INTERNATIONAL_BRANDS>
Abemide; Chloronase; Dabinese; Diabeedol; Diabemide; Diabezin; Diabitex; Dibecon; Glycemin; Hypomide; Litangen; Propamide; Trane

$$$$
