REMARK  Name = 60961
REMARK  5 active torsions:
REMARK  status: ('A' for Active; 'I' for Inactive)
REMARK    1  A    between atoms: N9_1  and  C1*_12
REMARK    2  A    between atoms: C2*_11  and  O2*_15
REMARK    3  A    between atoms: C3*_13  and  O3*_17
REMARK    4  A    between atoms: C4*_14  and  C5*_19
REMARK    5  A    between atoms: C5*_19  and  O5*_20
REMARK                            x       y       z     vdW  Elec       q    Type
REMARK                         _______ _______ _______ _____ _____    ______ ____
ROOT
ATOM      1  N9  A   A   1      -0.213  -0.259  -0.138  0.00  0.00    -0.247 N 
ATOM      2  N7  A   A   1      -1.640  -1.891   0.391  0.00  0.00    -0.242 NA
ATOM      3  N3  A   A   1      -1.785   1.547  -0.551  0.00  0.00    -0.228 NA
ATOM      4  N1  A   A   1      -4.089   0.812  -0.221  0.00  0.00    -0.229 NA
ATOM      5  C4  A   A   1      -1.464   0.287  -0.220  0.00  0.00    +0.152 C 
ATOM      6  C8  A   A   1      -0.373  -1.569   0.232  0.00  0.00    +0.223 C 
ATOM      7  C5  A   A   1      -2.333  -0.740   0.112  0.00  0.00    +0.140 C 
ATOM      8  C6  A   A   1      -3.692  -0.442   0.104  0.00  0.00    +0.143 C 
ATOM      9  C2  A   A   1      -3.125   1.715  -0.524  0.00  0.00    +0.253 C 
ATOM     10  N6  A   A   1      -4.644  -1.423   0.429  0.00  0.00    -0.342 N 
ATOM     11  H61 A   A   1      -5.603  -1.201   0.421  0.00  0.00    +0.144 HD
ATOM     12  H62 A   A   1      -4.352  -2.333   0.666  0.00  0.00    +0.144 HD
ENDROOT
BRANCH   1  15
ATOM     13  O4* A   A   1       2.000  -0.520  -0.952  0.00  0.00    -0.333 OA
ATOM     14  C2* A   A   1       1.717   0.988   0.852  0.00  0.00    +0.187 C 
ATOM     15  C1* A   A   1       1.058   0.415  -0.394  0.00  0.00    +0.225 C 
ATOM     16  C3* A   A   1       3.174   1.017   0.435  0.00  0.00    +0.171 C 
ATOM     17  C4* A   A   1       3.304  -0.264  -0.383  0.00  0.00    +0.175 C 
BRANCH  14  18
ATOM     18  O2* A   A   1       1.208   2.265   1.177  0.00  0.00    -0.378 OA
ATOM     19  H2* A   A   1       0.277   2.186   1.435  0.00  0.00    +0.211 HD
ENDBRANCH  14  18
BRANCH  16  20
ATOM     20  O3* A   A   1       3.401   2.135  -0.423  0.00  0.00    -0.379 OA
ATOM     21  H3* A   A   1       3.321   2.956   0.087  0.00  0.00    +0.211 HD
ENDBRANCH  16  20
BRANCH  17  22
ATOM     22  C5* A   A   1       3.705  -1.467   0.459  0.00  0.00    +0.169 C 
BRANCH  22  23
ATOM     23  O5* A   A   1       3.789  -2.603  -0.384  0.00  0.00    -0.379 OA
ATOM     24  H5* A   A   1       4.044  -3.377   0.142  0.00  0.00    +0.211 HD
ENDBRANCH  22  23
ENDBRANCH  17  22
ENDBRANCH   1  15
TORSDOF 5
