REMARK  Name = 6919009
REMARK  3 active torsions:
REMARK  status: ('A' for Active; 'I' for Inactive)
REMARK    1  A    between atoms: N_3  and  C_24
REMARK    2  A    between atoms: C_4  and  N_14
REMARK    3  A    between atoms: C_12  and  C_23
REMARK                            x       y       z     vdW  Elec       q    Type
REMARK                         _______ _______ _______ _____ _____    ______ ____
ROOT
ATOM      1  F   UNL     1      -1.792  -2.693   0.396  0.00  0.00    -0.203 F 
ATOM      2  O   UNL     1       3.219  -2.285   0.288  0.00  0.00    -0.286 OA
ATOM      3  N   UNL     1       1.830   1.504  -0.304  0.00  0.00    -0.286 N 
ATOM      4  C   UNL     1      -1.403  -0.383   0.024  0.00  0.00    +0.077 C 
ATOM      5  C   UNL     1      -0.505   0.675  -0.152  0.00  0.00    +0.032 C 
ATOM      6  C   UNL     1       0.886   0.465  -0.130  0.00  0.00    +0.056 C 
ATOM      7  C   UNL     1      -0.935  -1.676   0.227  0.00  0.00    +0.153 C 
ATOM      8  C   UNL     1       1.335  -0.860   0.078  0.00  0.00    +0.055 C 
ATOM      9  C   UNL     1       0.435  -1.919   0.255  0.00  0.00    +0.035 C 
ATOM     10  C   UNL     1       2.794  -1.150   0.112  0.00  0.00    +0.204 C 
ATOM     11  C   UNL     1       3.180   1.206  -0.268  0.00  0.00    +0.075 C 
ATOM     12  C   UNL     1       3.713  -0.004  -0.079  0.00  0.00    +0.133 C 
ENDROOT
BRANCH   4  14
ATOM     13  N   UNL     1      -5.552   0.441  -0.253  0.00  0.00    +0.388 N 
ATOM     14  N   UNL     1      -2.781  -0.134  -0.004  0.00  0.00    -0.310 N 
ATOM     15  C   UNL     1      -5.032  -0.932  -0.596  0.00  0.00    -0.056 C 
ATOM     16  C   UNL     1      -4.749   1.058   0.863  0.00  0.00    -0.056 C 
ATOM     17  C   UNL     1      -3.576  -0.824  -1.028  0.00  0.00    +0.068 C 
ATOM     18  C   UNL     1      -3.291   1.168   0.437  0.00  0.00    +0.068 C 
ATOM     19  C   UNL     1      -7.022   0.422   0.057  0.00  0.00    -0.101 C 
ATOM     20  H   UNL     1      -5.436   1.030  -1.078  0.00  0.00    -0.080 HD
ENDBRANCH   4  14
BRANCH  12  23
ATOM     21  O   UNL     1       5.643  -1.325   0.116  0.00  0.00    -0.240 OA
ATOM     22  O   UNL     1       5.862   0.923  -0.245  0.00  0.00    -0.240 OA
ATOM     23  C   UNL     1       5.217  -0.149  -0.069  0.00  0.00    +0.392 C 
ENDBRANCH  12  23
BRANCH   3  24
ATOM     24  C   UNL     1       1.348   2.866  -0.518  0.00  0.00    +0.096 C 
ATOM     25  C   UNL     1       1.175   3.606   0.792  0.00  0.00    +0.024 C 
ENDBRANCH   3  24
TORSDOF 3
