REMARK  Name = 68740
REMARK  9 active torsions:
REMARK  status: ('A' for Active; 'I' for Inactive)
REMARK    1  A    between atoms: C_1  and  P_2
REMARK    2  A    between atoms: C_1  and  P_8
REMARK    3  A    between atoms: C_1  and  O_14
REMARK    4  A    between atoms: C_1  and  C_16
REMARK    5  A    between atoms: P_2  and  O_4
REMARK    6  A    between atoms: P_2  and  O_6
REMARK    7  A    between atoms: P_8  and  O_10
REMARK    8  A    between atoms: P_8  and  O_12
REMARK    9  A    between atoms: C_16  and  N_17
REMARK                            x       y       z     vdW  Elec       q    Type
REMARK                         _______ _______ _______ _____ _____    ______ ____
ROOT
ATOM      1  C   UNL     1      -0.779  -0.158   0.152  0.00  0.00    +0.293 C 
ENDROOT
BRANCH   1   2
ATOM      2  P   UNL     1      -0.368   1.625   0.124  0.00  0.00    +0.373 P 
ATOM      3  O   UNL     1       0.961   1.976   0.724  0.00  0.00    -0.255 OA
BRANCH   2   4
ATOM      4  O   UNL     1      -1.640   2.321   0.841  0.00  0.00    -0.322 OA
ATOM      5  H   UNL     1      -1.508   3.281   0.871  0.00  0.00    +0.220 HD
ENDBRANCH   2   4
BRANCH   2   6
ATOM      6  O   UNL     1      -0.560   2.038  -1.426  0.00  0.00    -0.322 OA
ATOM      7  H   UNL     1      -0.360   2.981  -1.536  0.00  0.00    +0.220 HD
ENDBRANCH   2   6
ENDBRANCH   1   2
BRANCH   1   8
ATOM      8  P   UNL     1      -2.486  -0.765  -0.093  0.00  0.00    +0.373 P 
ATOM      9  O   UNL     1      -3.542   0.009   0.640  0.00  0.00    -0.255 OA
BRANCH   8  10
ATOM     10  O   UNL     1      -2.394  -2.334   0.281  0.00  0.00    -0.322 OA
ATOM     11  H   UNL     1      -3.267  -2.743   0.177  0.00  0.00    +0.220 HD
ENDBRANCH   8  10
BRANCH   8  12
ATOM     12  O   UNL     1      -2.657  -0.788  -1.701  0.00  0.00    -0.322 OA
ATOM     13  H   UNL     1      -3.546  -1.101  -1.927  0.00  0.00    +0.220 HD
ENDBRANCH   8  12
ENDBRANCH   1   8
BRANCH   1  14
ATOM     14  O   UNL     1      -0.557  -0.463   1.539  0.00  0.00    -0.365 OA
ATOM     15  H   UNL     1      -1.183   0.039   2.084  0.00  0.00    +0.212 HD
ENDBRANCH   1  14
BRANCH   1  16
ATOM     16  C   UNL     1       0.257  -0.999  -0.629  0.00  0.00    +0.148 C 
BRANCH  16  17
ATOM     17  N   UNL     1       1.653  -0.729  -0.313  0.00  0.00    -0.264 N 
ATOM     18  N   UNL     1       3.656   0.194  -0.420  0.00  0.00    -0.225 NA
ATOM     19  C   UNL     1       2.386  -1.351   0.647  0.00  0.00    +0.088 C 
ATOM     20  C   UNL     1       2.444   0.187  -0.930  0.00  0.00    +0.168 C 
ATOM     21  C   UNL     1       3.626  -0.763   0.563  0.00  0.00    +0.117 C 
ENDBRANCH  16  17
ENDBRANCH   1  16
TORSDOF 9
