REMARK  Name = 4771
REMARK  3 active torsions:
REMARK  status: ('A' for Active; 'I' for Inactive)
REMARK    1  A    between atoms: C_1  and  N_4
REMARK    2  A    between atoms: C_1  and  C_8
REMARK    3  A    between atoms: C_8  and  C_9
REMARK                            x       y       z     vdW  Elec       q    Type
REMARK                         _______ _______ _______ _____ _____    ______ ____
ROOT
ATOM      1  C   UNL     1       2.083   0.000   0.083  0.00  0.00    -0.045 C 
ATOM      2  C   UNL     1       1.998   1.231   0.996  0.00  0.00    -0.022 C 
ATOM      3  C   UNL     1       2.066  -1.279   0.931  0.00  0.00    -0.022 C 
ENDROOT
BRANCH   1   4
ATOM      4  N   UNL     1       3.389   0.053  -0.598  0.00  0.00    +0.383 N 
ATOM      5  H   UNL     1       3.438   0.893  -1.174  0.00  0.00    -0.089 HD
ATOM      6  H   UNL     1       3.498  -0.772  -1.189  0.00  0.00    -0.089 HD
ATOM      7  H   UNL     1       4.134   0.073   0.098  0.00  0.00    -0.089 HD
ENDBRANCH   1   4
BRANCH   1   8
ATOM      8  C   UNL     1       0.980  -0.001  -1.008  0.00  0.00    +0.006 C 
BRANCH   8   9
ATOM      9  C   UNL     1      -0.449  -0.001  -0.516  0.00  0.00    -0.024 C 
ATOM     10  C   UNL     1      -1.090  -1.209  -0.294  0.00  0.00    -0.004 C 
ATOM     11  C   UNL     1      -1.090   1.207  -0.297  0.00  0.00    -0.004 C 
ATOM     12  C   UNL     1      -2.409  -1.208   0.160  0.00  0.00    -0.000 C 
ATOM     13  C   UNL     1      -2.409   1.208   0.157  0.00  0.00    -0.000 C 
ATOM     14  C   UNL     1      -3.068   0.000   0.386  0.00  0.00    -0.000 C 
ENDBRANCH   8   9
ENDBRANCH   1   8
TORSDOF 3
