REMARK  Name = 4493
REMARK  3 active torsions:
REMARK  status: ('A' for Active; 'I' for Inactive)
REMARK    1  A    between atoms: C_1  and  N_9
REMARK    2  A    between atoms: C_4  and  C_20
REMARK    3  A    between atoms: C_5  and  N_23
REMARK                            x       y       z     vdW  Elec       q    Type
REMARK                         _______ _______ _______ _____ _____    ______ ____
ROOT
ATOM      1  C   UNL     1       0.474  -0.561   0.022  0.00  0.00    +0.062 C 
ATOM      2  C   UNL     1      -0.365   0.546  -0.133  0.00  0.00    +0.021 C 
ATOM      3  C   UNL     1      -0.082  -1.824   0.239  0.00  0.00    +0.017 C 
ATOM      4  C   UNL     1      -1.750   0.390  -0.071  0.00  0.00    +0.095 C 
ATOM      5  C   UNL     1      -2.300  -0.873   0.146  0.00  0.00    +0.147 C 
ATOM      6  C   UNL     1      -1.466  -1.980   0.301  0.00  0.00    +0.025 C 
ENDROOT
BRANCH   1   9
ATOM      7  O   UNL     1       2.067   1.780   0.772  0.00  0.00    -0.272 OA
ATOM      8  O   UNL     1       2.484  -2.505  -0.881  0.00  0.00    -0.252 OA
ATOM      9  N   UNL     1       1.854  -0.406  -0.039  0.00  0.00    -0.191 N 
ATOM     10  N   UNL     1       4.029  -0.835  -0.378  0.00  0.00    -0.283 N 
ATOM     11  C   UNL     1       4.043   0.517   0.112  0.00  0.00    +0.128 C 
ATOM     12  C   UNL     1       2.547   0.740   0.336  0.00  0.00    +0.252 C 
ATOM     13  C   UNL     1       4.574   1.481  -0.942  0.00  0.00    +0.029 C 
ATOM     14  C   UNL     1       4.802   0.621   1.428  0.00  0.00    +0.029 C 
ATOM     15  C   UNL     1       2.748  -1.379  -0.479  0.00  0.00    +0.314 C 
ATOM     16  H   UNL     1       4.845  -1.330  -0.618  0.00  0.00    +0.151 HD
ENDBRANCH   1   9
BRANCH   4  20
ATOM     17  F   UNL     1      -1.888   2.722  -0.441  0.00  0.00    -0.166 F 
ATOM     18  F   UNL     1      -3.455   1.484  -1.299  0.00  0.00    -0.166 F 
ATOM     19  F   UNL     1      -3.382   1.806   0.855  0.00  0.00    -0.166 F 
ATOM     20  C   UNL     1      -2.616   1.596  -0.242  0.00  0.00    +0.420 C 
ENDBRANCH   4  20
BRANCH   5  23
ATOM     21  O   UNL     1      -4.157  -2.209   0.408  0.00  0.00    -0.126 OA
ATOM     22  O   UNL     1      -4.452  -0.056   0.072  0.00  0.00    -0.126 OA
ATOM     23  N   UNL     1      -3.710  -1.056   0.212  0.00  0.00    +0.058 N 
ENDBRANCH   5  23
TORSDOF 3
