REMARK  Name = 3415
REMARK  4 active torsions:
REMARK  status: ('A' for Active; 'I' for Inactive)
REMARK    1  A    between atoms: P_1  and  O_3
REMARK    2  A    between atoms: P_1  and  O_5
REMARK    3  A    between atoms: P_1  and  C_8
REMARK    4  A    between atoms: C_8  and  O_9
REMARK                            x       y       z     vdW  Elec       q    Type
REMARK                         _______ _______ _______ _____ _____    ______ ____
ROOT
ATOM      1  P   UNL     1      -0.710  -0.015  -0.092  0.00  0.00    +0.434 P 
ATOM      2  O   UNL     1      -1.254  -0.044  -1.492  0.00  0.00    -0.247 OA
ENDROOT
BRANCH   1   3
ATOM      3  O   UNL     1      -1.160  -1.292   0.799  0.00  0.00    -0.316 OA
ATOM      4  H   UNL     1      -2.127  -1.371   0.784  0.00  0.00    +0.220 HD
ENDBRANCH   1   3
BRANCH   1   5
ATOM      5  O   UNL     1      -1.274   1.221   0.792  0.00  0.00    -0.316 OA
ATOM      6  H   UNL     1      -2.243   1.213   0.776  0.00  0.00    +0.220 HD
ENDBRANCH   1   5
BRANCH   1   8
ATOM      7  O   UNL     1       1.586   1.168   0.004  0.00  0.00    -0.237 OA
ATOM      8  C   UNL     1       1.062   0.064  -0.016  0.00  0.00    +0.418 C 
BRANCH   8   9
ATOM      9  O   UNL     1       1.750  -1.103   0.005  0.00  0.00    -0.472 OA
ATOM     10  H   UNL     1       1.289  -1.919  -0.013  0.00  0.00    +0.296 HD
ENDBRANCH   8   9
ENDBRANCH   1   8
TORSDOF 4
