REMARK  Name = 3394
REMARK  4 active torsions:
REMARK  status: ('A' for Active; 'I' for Inactive)
REMARK    1  A    between atoms: C_2  and  C_14
REMARK    2  A    between atoms: C_3  and  C_8
REMARK    3  A    between atoms: C_14  and  C_17
REMARK    4  A    between atoms: C_17  and  O_18
REMARK                            x       y       z     vdW  Elec       q    Type
REMARK                         _______ _______ _______ _____ _____    ______ ____
ROOT
ATOM      1  F   UNL     1      -0.717  -0.925   1.920  0.00  0.00    -0.204 F 
ATOM      2  C   UNL     1       1.862   0.511  -0.199  0.00  0.00    -0.010 C 
ATOM      3  C   UNL     1      -0.912   0.219  -0.156  0.00  0.00    +0.027 C 
ATOM      4  C   UNL     1       1.246  -0.145   0.866  0.00  0.00    +0.026 C 
ATOM      5  C   UNL     1       1.091   1.022  -1.243  0.00  0.00    -0.004 C 
ATOM      6  C   UNL     1      -0.141  -0.291   0.888  0.00  0.00    +0.140 C 
ATOM      7  C   UNL     1      -0.296   0.876  -1.222  0.00  0.00    +0.002 C 
ENDROOT
BRANCH   3   8
ATOM      8  C   UNL     1      -2.351   0.070  -0.138  0.00  0.00    +0.002 C 
ATOM      9  C   UNL     1      -2.944  -1.052  -0.717  0.00  0.00    +0.000 C 
ATOM     10  C   UNL     1      -3.146   1.050   0.458  0.00  0.00    +0.000 C 
ATOM     11  C   UNL     1      -4.332  -1.194  -0.701  0.00  0.00    +0.000 C 
ATOM     12  C   UNL     1      -4.533   0.907   0.474  0.00  0.00    +0.000 C 
ATOM     13  C   UNL     1      -5.126  -0.214  -0.105  0.00  0.00    +0.000 C 
ENDBRANCH   3   8
BRANCH   2  14
ATOM     14  C   UNL     1       3.345   0.668  -0.222  0.00  0.00    +0.121 C 
ATOM     15  C   UNL     1       3.907   1.479   0.963  0.00  0.00    +0.016 C 
BRANCH  14  17
ATOM     16  O   UNL     1       3.530  -1.767  -0.279  0.00  0.00    -0.250 OA
ATOM     17  C   UNL     1       4.083  -0.675  -0.276  0.00  0.00    +0.317 C 
BRANCH  17  18
ATOM     18  O   UNL     1       5.435  -0.539  -0.310  0.00  0.00    -0.480 OA
ATOM     19  H   UNL     1       5.821   0.315  -0.306  0.00  0.00    +0.295 HD
ENDBRANCH  17  18
ENDBRANCH  14  17
ENDBRANCH   2  14
TORSDOF 4
