REMARK  Name = 171548
REMARK  6 active torsions:
REMARK  status: ('A' for Active; 'I' for Inactive)
REMARK    1  A    between atoms: C_7  and  C_12
REMARK    2  A    between atoms: C_12  and  C_13
REMARK    3  A    between atoms: C_13  and  C_14
REMARK    4  A    between atoms: C_14  and  C_15
REMARK    5  A    between atoms: C_15  and  C_17
REMARK    6  A    between atoms: C_17  and  O_18
REMARK                            x       y       z     vdW  Elec       q    Type
REMARK                         _______ _______ _______ _____ _____    ______ ____
ROOT
ATOM      1  S   UNL     1      -2.461   1.956   1.026  0.00  0.00    -0.138 S 
ATOM      2  O   UNL     1      -3.028  -2.775   0.786  0.00  0.00    -0.253 OA
ATOM      3  N   UNL     1      -1.639  -1.078  -0.038  0.00  0.00    -0.288 N 
ATOM      4  N   UNL     1      -3.865  -0.876  -0.302  0.00  0.00    -0.288 N 
ATOM      5  C   UNL     1      -1.796   0.156  -0.785  0.00  0.00    +0.102 C 
ATOM      6  C   UNL     1      -3.327   0.333  -0.895  0.00  0.00    +0.103 C 
ATOM      7  C   UNL     1      -1.176   1.386  -0.116  0.00  0.00    +0.067 C 
ATOM      8  C   UNL     1      -3.788   1.577  -0.140  0.00  0.00    +0.079 C 
ATOM      9  C   UNL     1      -2.864  -1.703   0.220  0.00  0.00    +0.301 C 
ATOM     10  H   UNL     1      -0.769  -1.434   0.254  0.00  0.00    +0.151 HD
ATOM     11  H   UNL     1      -4.826  -1.091  -0.269  0.00  0.00    +0.151 HD
ENDROOT
BRANCH   7  12
ATOM     12  C   UNL     1       0.151   1.155   0.586  0.00  0.00    +0.013 C 
BRANCH  12  13
ATOM     13  C   UNL     1       1.254   0.637  -0.341  0.00  0.00    +0.001 C 
BRANCH  13  14
ATOM     14  C   UNL     1       2.627   0.438   0.307  0.00  0.00    +0.012 C 
BRANCH  14  15
ATOM     15  C   UNL     1       3.702  -0.023  -0.676  0.00  0.00    +0.109 C 
BRANCH  15  17
ATOM     16  O   UNL     1       5.234  -0.156   1.212  0.00  0.00    -0.250 OA
ATOM     17  C   UNL     1       5.017  -0.299   0.017  0.00  0.00    +0.314 C 
BRANCH  17  18
ATOM     18  O   UNL     1       5.960  -0.729  -0.863  0.00  0.00    -0.480 OA
ATOM     19  H   UNL     1       5.746  -0.823  -1.770  0.00  0.00    +0.295 HD
ENDBRANCH  17  18
ENDBRANCH  15  17
ENDBRANCH  14  15
ENDBRANCH  13  14
ENDBRANCH  12  13
ENDBRANCH   7  12
TORSDOF 6
