REMARK  Name = 5734
REMARK  3 active torsions:
REMARK  status: ('A' for Active; 'I' for Inactive)
REMARK    1  A    between atoms: C_3  and  C_10
REMARK    2  A    between atoms: C_10  and  S_11
REMARK    3  A    between atoms: S_11  and  N_14
REMARK                            x       y       z     vdW  Elec       q    Type
REMARK                         _______ _______ _______ _____ _____    ______ ____
ROOT
ATOM      1  O   UNL     1       1.161  -2.031  -0.130  0.00  0.00    -0.354 OA
ATOM      2  N   UNL     1      -0.160  -1.917   0.287  0.00  0.00    -0.080 NA
ATOM      3  C   UNL     1      -0.333  -0.620   0.559  0.00  0.00    +0.126 A 
ATOM      4  C   UNL     1       0.834   0.136   0.335  0.00  0.00    +0.056 A 
ATOM      5  C   UNL     1       1.751  -0.805  -0.100  0.00  0.00    +0.177 A 
ATOM      6  C   UNL     1       1.231   1.477   0.442  0.00  0.00    +0.004 C 
ATOM      7  C   UNL     1       3.067  -0.514  -0.447  0.00  0.00    +0.040 C 
ATOM      8  C   UNL     1       2.551   1.805   0.100  0.00  0.00    +0.000 C 
ATOM      9  C   UNL     1       3.450   0.826  -0.336  0.00  0.00    +0.003 C 
ENDROOT
BRANCH   3  10
ATOM     10  C   UNL     1      -1.643  -0.144   1.035  0.00  0.00    +0.217 C 
BRANCH  10  11
ATOM     11  S   UNL     1      -2.699   0.333  -0.306  0.00  0.00    +0.044 S 
ATOM     12  O   UNL     1      -2.114   1.498  -0.942  0.00  0.00    -0.157 OA
ATOM     13  O   UNL     1      -3.017  -0.858  -1.070  0.00  0.00    -0.157 OA
BRANCH  11  14
ATOM     14  N   UNL     1      -4.077   0.813   0.573  0.00  0.00    -0.207 NA
ATOM     15  H   UNL     1      -4.801   1.126  -0.073  0.00  0.00    +0.144 HD
ATOM     16  H   UNL     1      -3.830   1.578   1.202  0.00  0.00    +0.144 HD
ENDBRANCH  11  14
ENDBRANCH  10  11
ENDBRANCH   3  10
TORSDOF 3
