REMARK  Name = 3964
REMARK  0 active torsions:
REMARK  status: ('A' for Active; 'I' for Inactive)
REMARK                            x       y       z     vdW  Elec       q    Type
REMARK                         _______ _______ _______ _____ _____    ______ ____
ROOT
ATOM      1 CL   UNL     1       1.752   4.027   1.461  0.00  0.00    -0.082 Cl
ATOM      2  O   UNL     1      -2.132   0.615  -1.336  0.00  0.00    -0.451 OA
ATOM      3  N   UNL     1       1.524  -1.017  -0.399  0.00  0.00    -0.288 N 
ATOM      4  N   UNL     1       4.344  -1.377  -0.200  0.00  0.00    +0.388 N 
ATOM      5  N   UNL     1      -0.688  -1.592  -0.132  0.00  0.00    -0.384 NA
ATOM      6  C   UNL     1       2.419  -0.256  -1.270  0.00  0.00    +0.070 C 
ATOM      7  C   UNL     1       2.064  -2.287   0.084  0.00  0.00    +0.070 C 
ATOM      8  C   UNL     1       3.782  -0.079  -0.598  0.00  0.00    -0.056 C 
ATOM      9  C   UNL     1       3.434  -2.066   0.727  0.00  0.00    -0.056 C 
ATOM     10  C   UNL     1       0.223  -0.657  -0.201  0.00  0.00    +0.186 C 
ATOM     11  C   UNL     1       5.662  -1.202   0.408  0.00  0.00    -0.101 C 
ATOM     12  C   UNL     1      -0.061   0.803  -0.084  0.00  0.00    +0.079 C 
ATOM     13  C   UNL     1      -1.198   1.368  -0.667  0.00  0.00    +0.149 C 
ATOM     14  C   UNL     1      -2.053  -1.345   0.080  0.00  0.00    +0.167 C 
ATOM     15  C   UNL     1       0.850   1.635   0.580  0.00  0.00    +0.018 C 
ATOM     16  C   UNL     1      -2.760  -0.303  -0.529  0.00  0.00    +0.171 C 
ATOM     17  C   UNL     1      -1.409   2.749  -0.624  0.00  0.00    +0.038 C 
ATOM     18  C   UNL     1       0.628   3.012   0.641  0.00  0.00    +0.058 C 
ATOM     19  C   UNL     1      -0.496   3.569   0.036  0.00  0.00    +0.015 C 
ATOM     20  C   UNL     1      -2.767  -2.248   0.879  0.00  0.00    +0.031 C 
ATOM     21  C   UNL     1      -4.142  -0.169  -0.364  0.00  0.00    +0.019 C 
ATOM     22  C   UNL     1      -4.144  -2.108   1.067  0.00  0.00    -0.019 C 
ATOM     23  C   UNL     1      -4.832  -1.071   0.442  0.00  0.00    +0.055 C 
ATOM     24  H   UNL     1       4.452  -1.953  -1.035  0.00  0.00    -0.080 HD
ENDROOT
TORSDOF 0
