REMARK  Name = 3059
REMARK  4 active torsions:
REMARK  status: ('A' for Active; 'I' for Inactive)
REMARK    1  A    between atoms: C_1  and  C_9
REMARK    2  A    between atoms: C_4  and  C_18
REMARK    3  A    between atoms: C_5  and  O_15
REMARK    4  A    between atoms: C_18  and  O_19
REMARK                            x       y       z     vdW  Elec       q    Type
REMARK                         _______ _______ _______ _____ _____    ______ ____
ROOT
ATOM      1  C   UNL     1       0.059   0.477   0.187  0.00  0.00    +0.003 C 
ATOM      2  C   UNL     1       0.983  -0.555   0.029  0.00  0.00    +0.010 C 
ATOM      3  C   UNL     1       0.501   1.789   0.357  0.00  0.00    +0.003 C 
ATOM      4  C   UNL     1       2.350  -0.276   0.041  0.00  0.00    +0.109 C 
ATOM      5  C   UNL     1       2.792   1.036   0.211  0.00  0.00    +0.140 C 
ATOM      6  C   UNL     1       1.867   2.069   0.369  0.00  0.00    +0.037 C 
ENDROOT
BRANCH   1   9
ATOM      7  F   UNL     1      -1.454   0.501  -2.180  0.00  0.00    -0.204 F 
ATOM      8  F   UNL     1      -5.404  -0.638   0.157  0.00  0.00    -0.204 F 
ATOM      9  C   UNL     1      -1.359   0.188   0.176  0.00  0.00    +0.028 C 
ATOM     10  C   UNL     1      -2.069   0.210  -1.025  0.00  0.00    +0.142 C 
ATOM     11  C   UNL     1      -2.015  -0.114   1.369  0.00  0.00    +0.005 C 
ATOM     12  C   UNL     1      -3.436  -0.069  -1.031  0.00  0.00    +0.059 C 
ATOM     13  C   UNL     1      -3.381  -0.393   1.362  0.00  0.00    +0.030 C 
ATOM     14  C   UNL     1      -4.092  -0.370   0.162  0.00  0.00    +0.142 C 
ENDBRANCH   1   9
BRANCH   5  15
ATOM     15  O   UNL     1       4.123   1.330   0.225  0.00  0.00    -0.505 OA
ATOM     16  H   UNL     1       4.754   0.646   0.120  0.00  0.00    +0.292 HD
ENDBRANCH   5  15
BRANCH   4  18
ATOM     17  O   UNL     1       4.415  -1.271  -0.642  0.00  0.00    -0.245 OA
ATOM     18  C   UNL     1       3.299  -1.368  -0.126  0.00  0.00    +0.341 C 
BRANCH  18  19
ATOM     19  O   UNL     1       2.823  -2.547   0.359  0.00  0.00    -0.477 OA
ATOM     20  H   UNL     1       1.970  -2.584   0.745  0.00  0.00    +0.295 HD
ENDBRANCH  18  19
ENDBRANCH   4  18
TORSDOF 4
