REMARK  Name = 5311304
REMARK  5 active torsions:
REMARK  status: ('A' for Active; 'I' for Inactive)
REMARK    1  A    between atoms: N_2  and  C_26
REMARK    2  A    between atoms: C_4  and  O_20
REMARK    3  A    between atoms: C_10  and  O_22
REMARK    4  A    between atoms: C_17  and  O_24
REMARK    5  A    between atoms: C_26  and  C_27
REMARK                            x       y       z     vdW  Elec       q    Type
REMARK                         _______ _______ _______ _____ _____    ______ ____
ROOT
ATOM      1  O   UNL     1      -3.111  -0.474   1.147  0.00  0.00    -0.474 OA
ATOM      2  N   UNL     1       2.009   0.272   0.844  0.00  0.00    +0.390 N 
ATOM      3  C   UNL     1      -0.735  -0.676   0.741  0.00  0.00    +0.079 C 
ATOM      4  C   UNL     1       0.370  -1.276  -0.140  0.00  0.00    +0.078 C 
ATOM      5  C   UNL     1       1.374  -0.114  -0.445  0.00  0.00    -0.028 C 
ATOM      6  C   UNL     1      -2.048  -1.467   0.912  0.00  0.00    +0.198 C 
ATOM      7  C   UNL     1      -0.122  -0.212   2.087  0.00  0.00    -0.013 C 
ATOM      8  C   UNL     1      -1.341   0.516   0.088  0.00  0.00    +0.016 C 
ATOM      9  C   UNL     1      -0.196  -1.979  -1.382  0.00  0.00    +0.028 C 
ATOM     10  C   UNL     1      -2.447  -2.377  -0.282  0.00  0.00    +0.151 C 
ATOM     11  C   UNL     1       0.698   1.073  -1.217  0.00  0.00    +0.008 C 
ATOM     12  C   UNL     1       1.077   0.735   1.879  0.00  0.00    -0.077 C 
ATOM     13  C   UNL     1      -1.248  -3.025  -0.973  0.00  0.00    +0.035 C 
ATOM     14  C   UNL     1      -0.704   1.393  -0.768  0.00  0.00    -0.025 C 
ATOM     15  C   UNL     1      -2.672   0.625   0.439  0.00  0.00    +0.168 C 
ATOM     16  C   UNL     1      -1.453   2.478  -1.223  0.00  0.00    -0.001 C 
ATOM     17  C   UNL     1      -3.424   1.697   0.016  0.00  0.00    +0.167 C 
ATOM     18  C   UNL     1      -2.797   2.635  -0.817  0.00  0.00    +0.039 C 
ATOM     19  H   UNL     1       2.383  -0.613   1.188  0.00  0.00    -0.080 HD
ENDROOT
BRANCH   4  20
ATOM     20  O   UNL     1       1.066  -2.316   0.573  0.00  0.00    -0.388 OA
ATOM     21  H   UNL     1       1.457  -1.948   1.380  0.00  0.00    +0.210 HD
ENDBRANCH   4  20
BRANCH  10  22
ATOM     22  O   UNL     1      -3.164  -1.661  -1.291  0.00  0.00    -0.381 OA
ATOM     23  H   UNL     1      -3.938  -1.232  -0.894  0.00  0.00    +0.210 HD
ENDBRANCH  10  22
BRANCH  17  24
ATOM     24  O   UNL     1      -4.730   1.828   0.352  0.00  0.00    -0.503 OA
ATOM     25  H   UNL     1      -5.137   1.194   0.909  0.00  0.00    +0.292 HD
ENDBRANCH  17  24
BRANCH   2  26
ATOM     26  C   UNL     1       3.136   1.185   0.690  0.00  0.00    -0.077 C 
BRANCH  26  27
ATOM     27  C   UNL     1       4.116   0.686  -0.349  0.00  0.00    -0.021 C 
ATOM     28  C   UNL     1       4.742  -0.690  -0.044  0.00  0.00    -0.002 C 
ATOM     29  C   UNL     1       5.538   1.274  -0.232  0.00  0.00    -0.002 C 
ATOM     30  C   UNL     1       6.065  -0.128  -0.606  0.00  0.00    -0.000 C 
ENDBRANCH  26  27
ENDBRANCH   2  26
TORSDOF 5
