REMARK  Name = 5746
REMARK  5 active torsions:
REMARK  status: ('A' for Active; 'I' for Inactive)
REMARK    1  A    between atoms: C_6  and  O_22
REMARK    2  A    between atoms: C_9  and  C_24
REMARK    3  A    between atoms: C_15  and  N_19
REMARK    4  A    between atoms: C_24  and  O_25
REMARK    5  A    between atoms: O_25  and  C_28
REMARK                            x       y       z     vdW  Elec       q    Type
REMARK                         _______ _______ _______ _____ _____    ______ ____
ROOT
ATOM      1  O   UNL     1      -3.183  -1.977   0.540  0.00  0.00    -0.286 OA
ATOM      2  O   UNL     1      -1.145   2.785  -0.795  0.00  0.00    -0.286 OA
ATOM      3  N   UNL     1       1.808  -1.675   1.690  0.00  0.00    +0.388 N 
ATOM      4  N   UNL     1      -0.381  -1.693  -0.193  0.00  0.00    -0.290 N 
ATOM      5  C   UNL     1       1.927  -1.741   0.235  0.00  0.00    -0.036 C 
ATOM      6  C   UNL     1       0.905  -1.155  -0.692  0.00  0.00    +0.141 C 
ATOM      7  C   UNL     1       1.253  -2.831   1.008  0.00  0.00    -0.057 C 
ATOM      8  C   UNL     1      -0.211  -2.852   0.674  0.00  0.00    +0.070 C 
ATOM      9  C   UNL     1       0.674   0.390  -0.732  0.00  0.00    +0.111 C 
ATOM     10  C   UNL     1      -1.321  -0.694  -0.114  0.00  0.00    +0.088 C 
ATOM     11  C   UNL     1      -0.807   0.494  -0.429  0.00  0.00    +0.042 C 
ATOM     12  C   UNL     1      -2.724  -0.872   0.271  0.00  0.00    +0.206 C 
ATOM     13  C   UNL     1      -1.624   1.709  -0.450  0.00  0.00    +0.206 C 
ATOM     14  C   UNL     1      -3.566   0.369   0.303  0.00  0.00    +0.034 C 
ATOM     15  C   UNL     1      -3.062   1.576  -0.035  0.00  0.00    +0.080 C 
ATOM     16  C   UNL     1      -4.990   0.131   0.730  0.00  0.00    +0.036 C 
ATOM     17  H   UNL     1       1.182  -0.991   2.115  0.00  0.00    -0.084 HD
ATOM     18  H   UNL     1       2.473  -1.551   2.453  0.00  0.00    -0.084 HD
ENDROOT
BRANCH  15  19
ATOM     19  N   UNL     1      -3.748   2.760  -0.044  0.00  0.00    -0.355 N 
ATOM     20  H   UNL     1      -3.292   3.592  -0.306  0.00  0.00    +0.142 HD
ATOM     21  H   UNL     1      -4.699   2.779   0.211  0.00  0.00    +0.142 HD
ENDBRANCH  15  19
BRANCH   6  22
ATOM     22  O   UNL     1       1.140  -1.635  -2.016  0.00  0.00    -0.341 OA
ATOM     23  C   UNL     1       2.284  -1.022  -2.591  0.00  0.00    +0.176 C 
ENDBRANCH   6  22
BRANCH   9  24
ATOM     24  C   UNL     1       1.520   1.212   0.235  0.00  0.00    +0.218 C 
BRANCH  24  25
ATOM     25  O   UNL     1       2.885   1.051  -0.110  0.00  0.00    -0.434 OA
BRANCH  25  28
ATOM     26  O   UNL     1       3.500   2.446   1.615  0.00  0.00    -0.227 OA
ATOM     27  N   UNL     1       5.075   1.496   0.235  0.00  0.00    -0.295 N 
ATOM     28  C   UNL     1       3.791   1.728   0.664  0.00  0.00    +0.398 C 
ATOM     29  H   UNL     1       5.237   0.906  -0.536  0.00  0.00    +0.148 HD
ATOM     30  H   UNL     1       5.833   1.919   0.700  0.00  0.00    +0.148 HD
ENDBRANCH  25  28
ENDBRANCH  24  25
ENDBRANCH   9  24
TORSDOF 5
