REMARK  Name = 3295
REMARK  4 active torsions:
REMARK  status: ('A' for Active; 'I' for Inactive)
REMARK    1  A    between atoms: C_5  and  S_10
REMARK    2  A    between atoms: C_7  and  O_16
REMARK    3  A    between atoms: S_10  and  N_13
REMARK    4  A    between atoms: O_16  and  C_17
REMARK                            x       y       z     vdW  Elec       q    Type
REMARK                         _______ _______ _______ _____ _____    ______ ____
ROOT
ATOM      1  S   UNL     1      -1.077   1.402   0.180  0.00  0.00    -0.051 S 
ATOM      2  N   UNL     1      -1.526  -1.115  -0.163  0.00  0.00    -0.380 NA
ATOM      3  C   UNL     1       0.288   0.348   0.152  0.00  0.00    +0.133 C 
ATOM      4  C   UNL     1      -0.152  -0.965  -0.042  0.00  0.00    +0.126 C 
ATOM      5  C   UNL     1      -2.107   0.058  -0.061  0.00  0.00    +0.278 C 
ATOM      6  C   UNL     1       1.650   0.661   0.292  0.00  0.00    +0.029 C 
ATOM      7  C   UNL     1       2.578  -0.381   0.234  0.00  0.00    +0.136 C 
ATOM      8  C   UNL     1       0.807  -1.999  -0.097  0.00  0.00    +0.032 C 
ATOM      9  C   UNL     1       2.165  -1.695   0.042  0.00  0.00    +0.039 C 
ENDROOT
BRANCH   5  10
ATOM     10  S   UNL     1      -3.820   0.345  -0.153  0.00  0.00    +0.091 S 
ATOM     11  O   UNL     1      -3.989   1.726  -0.606  0.00  0.00    -0.150 OA
ATOM     12  O   UNL     1      -4.364  -0.755  -0.949  0.00  0.00    -0.150 OA
BRANCH  10  13
ATOM     13  N   UNL     1      -4.499   0.239   1.427  0.00  0.00    -0.201 NA
ATOM     14  H   UNL     1      -5.504   0.407   1.377  0.00  0.00    +0.144 HD
ATOM     15  H   UNL     1      -4.067   0.939   2.030  0.00  0.00    +0.144 HD
ENDBRANCH  10  13
ENDBRANCH   5  10
BRANCH   7  16
ATOM     16  O   UNL     1       3.906  -0.104   0.368  0.00  0.00    -0.476 OA
BRANCH  16  17
ATOM     17  C   UNL     1       4.350   1.173  -0.084  0.00  0.00    +0.206 C 
ATOM     18  C   UNL     1       5.790   1.062  -0.540  0.00  0.00    +0.051 C 
ENDBRANCH  16  17
ENDBRANCH   7  16
TORSDOF 4
