REMARK  Name = 2895
REMARK  4 active torsions:
REMARK  status: ('A' for Active; 'I' for Inactive)
REMARK    1  A    between atoms: C_1  and  C_4
REMARK    2  A    between atoms: C_4  and  C_17
REMARK    3  A    between atoms: C_17  and  C_18
REMARK    4  A    between atoms: C_18  and  N_19
REMARK                            x       y       z     vdW  Elec       q    Type
REMARK                         _______ _______ _______ _____ _____    ______ ____
ROOT
ATOM      1  C   UNL     1       0.178  -0.181  -0.641  0.00  0.00    -0.037 C 
ATOM      2  C   UNL     1       1.558  -0.663  -0.412  0.00  0.00    +0.062 C 
ATOM      3  C   UNL     1      -0.219   1.232  -0.449  0.00  0.00    -0.007 C 
ATOM      4  C   UNL     1       2.229  -0.401   0.799  0.00  0.00    -0.015 C 
ATOM      5  C   UNL     1       0.062   1.909   0.754  0.00  0.00    -0.001 C 
ATOM      6  C   UNL     1       1.615   0.297   1.941  0.00  0.00    -0.004 C 
ATOM      7  C   UNL     1       0.697   1.276   1.922  0.00  0.00    -0.000 C 
ATOM      8  C   UNL     1       2.225  -1.366  -1.433  0.00  0.00    -0.018 C 
ATOM      9  C   UNL     1      -0.858   1.921  -1.497  0.00  0.00    -0.001 C 
ATOM     10  C   UNL     1       3.537  -0.887   0.970  0.00  0.00    -0.004 C 
ATOM     11  C   UNL     1      -0.342   3.250   0.888  0.00  0.00    -0.000 C 
ATOM     12  C   UNL     1       3.528  -1.827  -1.250  0.00  0.00    -0.004 C 
ATOM     13  C   UNL     1      -1.236   3.254  -1.350  0.00  0.00    -0.000 C 
ATOM     14  C   UNL     1       4.183  -1.591  -0.048  0.00  0.00    -0.001 C 
ATOM     15  C   UNL     1      -0.982   3.918  -0.156  0.00  0.00    -0.000 C 
ENDROOT
BRANCH   1  16
ATOM     16  C   UNL     1      -0.772  -1.079  -0.967  0.00  0.00    +0.020 C 
BRANCH  16  17
ATOM     17  C   UNL     1      -2.201  -0.719  -1.224  0.00  0.00    -0.018 C 
BRANCH  17  18
ATOM     18  C   UNL     1      -3.133  -1.863  -0.825  0.00  0.00    -0.077 C 
BRANCH  18  19
ATOM     19  N   UNL     1      -2.971  -2.178   0.590  0.00  0.00    +0.384 N 
ATOM     20  C   UNL     1      -3.833  -3.298   0.971  0.00  0.00    -0.101 C 
ATOM     21  C   UNL     1      -3.266  -1.006   1.416  0.00  0.00    -0.101 C 
ATOM     22  H   UNL     1      -2.000  -2.448   0.747  0.00  0.00    -0.080 HD
ENDBRANCH  18  19
ENDBRANCH  17  18
ENDBRANCH  16  17
ENDBRANCH   1  16
TORSDOF 4
