REMARK  Name = 71398
REMARK  9 active torsions:
REMARK  status: ('A' for Active; 'I' for Inactive)
REMARK    1  A    between atoms: C_1  and  C_3
REMARK    2  A    between atoms: C_1  and  C_16
REMARK    3  A    between atoms: C_3  and  C_5
REMARK    4  A    between atoms: C_5  and  C_6
REMARK    5  A    between atoms: C_9  and  O_12
REMARK    6  A    between atoms: C_11  and  O_14
REMARK    7  A    between atoms: C_16  and  C_17
REMARK    8  A    between atoms: C_20  and  O_23
REMARK    9  A    between atoms: C_22  and  O_25
REMARK                            x       y       z     vdW  Elec       q    Type
REMARK                         _______ _______ _______ _____ _____    ______ ____
ROOT
ATOM      1  C   UNL     1      -0.785   0.975   0.456  0.00  0.00    +0.005 C 
ATOM      2  C   UNL     1      -1.102   2.247  -0.349  0.00  0.00    +0.000 C 
ENDROOT
BRANCH   1   3
ATOM      3  C   UNL     1       0.753   0.847   0.700  0.00  0.00    +0.005 C 
ATOM      4  C   UNL     1       1.331   1.994   1.541  0.00  0.00    +0.000 C 
BRANCH   3   5
ATOM      5  C   UNL     1       1.575   0.725  -0.606  0.00  0.00    +0.026 C 
BRANCH   5   6
ATOM      6  C   UNL     1       2.937   0.097  -0.434  0.00  0.00    -0.019 C 
ATOM      7  C   UNL     1       4.028   0.906  -0.158  0.00  0.00    +0.036 C 
ATOM      8  C   UNL     1       3.072  -1.277  -0.557  0.00  0.00    -0.001 C 
ATOM      9  C   UNL     1       5.287   0.326   0.000  0.00  0.00    +0.167 C 
ATOM     10  C   UNL     1       4.331  -1.857  -0.399  0.00  0.00    +0.039 C 
ATOM     11  C   UNL     1       5.438  -1.056  -0.120  0.00  0.00    +0.167 C 
BRANCH   9  12
ATOM     12  O   UNL     1       6.361   1.119   0.274  0.00  0.00    -0.503 OA
ATOM     13  H   UNL     1       6.250   2.046   0.353  0.00  0.00    +0.292 HD
ENDBRANCH   9  12
BRANCH  11  14
ATOM     14  O   UNL     1       6.662  -1.634   0.033  0.00  0.00    -0.503 OA
ATOM     15  H   UNL     1       7.411  -1.103   0.220  0.00  0.00    +0.292 HD
ENDBRANCH  11  14
ENDBRANCH   5   6
ENDBRANCH   3   5
ENDBRANCH   1   3
BRANCH   1  16
ATOM     16  C   UNL     1      -1.401  -0.272  -0.220  0.00  0.00    +0.026 C 
BRANCH  16  17
ATOM     17  C   UNL     1      -2.895  -0.396  -0.021  0.00  0.00    -0.019 C 
ATOM     18  C   UNL     1      -3.751   0.188  -0.940  0.00  0.00    +0.036 C 
ATOM     19  C   UNL     1      -3.377  -1.089   1.076  0.00  0.00    -0.001 C 
ATOM     20  C   UNL     1      -5.129   0.074  -0.756  0.00  0.00    +0.167 C 
ATOM     21  C   UNL     1      -4.755  -1.203   1.260  0.00  0.00    +0.039 C 
ATOM     22  C   UNL     1      -5.631  -0.621   0.344  0.00  0.00    +0.167 C 
BRANCH  20  23
ATOM     23  O   UNL     1      -5.975   0.646  -1.659  0.00  0.00    -0.503 OA
ATOM     24  H   UNL     1      -5.629   1.111  -2.395  0.00  0.00    +0.292 HD
ENDBRANCH  20  23
BRANCH  22  25
ATOM     25  O   UNL     1      -6.974  -0.739   0.534  0.00  0.00    -0.503 OA
ATOM     26  H   UNL     1      -7.570  -0.352  -0.076  0.00  0.00    +0.292 HD
ENDBRANCH  22  25
ENDBRANCH  16  17
ENDBRANCH   1  16
TORSDOF 9
