REMARK  Name = 2719
REMARK  8 active torsions:
REMARK  status: ('A' for Active; 'I' for Inactive)
REMARK    1  A    between atoms: N_1  and  C_5
REMARK    2  A    between atoms: N_1  and  C_14
REMARK    3  A    between atoms: C_14  and  C_16
REMARK    4  A    between atoms: C_16  and  C_17
REMARK    5  A    between atoms: C_17  and  C_18
REMARK    6  A    between atoms: C_18  and  N_19
REMARK    7  A    between atoms: N_19  and  C_21
REMARK    8  A    between atoms: N_19  and  C_23
REMARK                            x       y       z     vdW  Elec       q    Type
REMARK                         _______ _______ _______ _____ _____    ______ ____
ROOT
ATOM      1  N   UNL     1       0.024  -1.899   0.245  0.00  0.00    -0.334 N 
ATOM      2  H   UNL     1       0.294  -2.048   1.180  0.00  0.00    +0.147 HD
ENDROOT
BRANCH   1   5
ATOM      3 CL   UNL     1       5.686   1.620   1.489  0.00  0.00    -0.082 Cl
ATOM      4  N   UNL     1       2.343   0.611  -2.192  0.00  0.00    -0.244 NA
ATOM      5  C   UNL     1       0.807  -1.068  -0.537  0.00  0.00    +0.048 C 
ATOM      6  C   UNL     1       1.974  -0.426  -0.049  0.00  0.00    +0.031 C 
ATOM      7  C   UNL     1       0.441  -0.840  -1.872  0.00  0.00    +0.035 C 
ATOM      8  C   UNL     1       2.713   0.407  -0.914  0.00  0.00    +0.083 C 
ATOM      9  C   UNL     1       2.389  -0.617   1.280  0.00  0.00    +0.004 C 
ATOM     10  C   UNL     1       1.228  -0.008  -2.642  0.00  0.00    +0.100 C 
ATOM     11  C   UNL     1       3.855   1.025  -0.410  0.00  0.00    +0.031 C 
ATOM     12  C   UNL     1       3.535   0.013   1.757  0.00  0.00    +0.012 C 
ATOM     13  C   UNL     1       4.268   0.835   0.911  0.00  0.00    +0.059 C 
ENDBRANCH   1   5
BRANCH   1  14
ATOM     14  C   UNL     1      -1.170  -2.562  -0.238  0.00  0.00    +0.069 C 
ATOM     15  C   UNL     1      -1.451  -3.767   0.654  0.00  0.00    +0.021 C 
BRANCH  14  16
ATOM     16  C   UNL     1      -2.356  -1.588  -0.234  0.00  0.00    +0.017 C 
BRANCH  16  17
ATOM     17  C   UNL     1      -2.638  -1.008   1.157  0.00  0.00    -0.021 C 
BRANCH  17  18
ATOM     18  C   UNL     1      -3.782   0.004   1.109  0.00  0.00    -0.077 C 
BRANCH  18  19
ATOM     19  N   UNL     1      -3.438   1.117   0.231  0.00  0.00    +0.387 N 
ATOM     20  H   UNL     1      -3.249   0.742  -0.699  0.00  0.00    -0.080 HD
BRANCH  19  21
ATOM     21  C   UNL     1      -2.235   1.799   0.711  0.00  0.00    -0.077 C 
ATOM     22  C   UNL     1      -1.827   2.920  -0.231  0.00  0.00    -0.025 C 
ENDBRANCH  19  21
BRANCH  19  23
ATOM     23  C   UNL     1      -4.553   2.060   0.135  0.00  0.00    -0.077 C 
ATOM     24  C   UNL     1      -5.813   1.372  -0.362  0.00  0.00    -0.025 C 
ENDBRANCH  19  23
ENDBRANCH  18  19
ENDBRANCH  17  18
ENDBRANCH  16  17
ENDBRANCH  14  16
ENDBRANCH   1  14
TORSDOF 8
