13109
  -OEChem-10051719133D

 51 54  0     1  0  0  0  0  0999 V2000
    4.6433   -0.7052   -0.2619 O   0  0  0  0  0  0  0  0  0  0  0  0
   -6.1753   -0.1240    0.9199 O   0  0  0  0  0  0  0  0  0  0  0  0
    2.1903   -0.3568   -0.2743 C   0  0  1  0  0  0  0  0  0  0  0  0
    1.3715    0.9190    0.0245 C   0  0  2  0  0  0  0  0  0  0  0  0
   -0.0561    0.8519   -0.5263 C   0  0  1  0  0  0  0  0  0  0  0  0
   -0.7917   -0.3604    0.1165 C   0  0  2  0  0  0  0  0  0  0  0  0
    3.5818    0.0623    0.2895 C   0  0  2  0  0  0  0  0  0  0  0  0
    1.4872   -1.5446    0.4071 C   0  0  0  0  0  0  0  0  0  0  0  0
    2.2850    2.0484   -0.4456 C   0  0  0  0  0  0  0  0  0  0  0  0
    0.0173   -1.6738   -0.0326 C   0  0  0  0  0  0  0  0  0  0  0  0
   -2.2456   -0.4903   -0.4332 C   0  0  2  0  0  0  0  0  0  0  0  0
    3.7146    1.5361   -0.1737 C   0  0  0  0  0  0  0  0  0  0  0  0
   -0.8375    2.1422   -0.2472 C   0  0  0  0  0  0  0  0  0  0  0  0
    2.3218   -0.6718   -1.7938 C   0  0  0  0  0  0  0  0  0  0  0  0
   -2.2466    2.0549   -0.8225 C   0  0  0  0  0  0  0  0  0  0  0  0
   -2.9899    0.8352   -0.3370 C   0  0  0  0  0  0  0  0  0  0  0  0
   -2.9981   -1.6234    0.2948 C   0  0  0  0  0  0  0  0  0  0  0  0
    3.1034   -1.9423   -1.9986 C   0  0  0  0  0  0  0  0  0  0  0  0
    3.6751   -0.0093    1.7611 C   0  0  0  0  0  0  0  0  0  0  0  0
   -4.4947   -1.5890    0.0401 C   0  0  0  0  0  0  0  0  0  0  0  0
   -4.2513    0.9552    0.1070 C   0  0  0  0  0  0  0  0  0  0  0  0
   -5.0556   -0.2461    0.4286 C   0  0  0  0  0  0  0  0  0  0  0  0
    3.7508   -0.0680    2.9576 C   0  0  0  0  0  0  0  0  0  0  0  0
    1.2761    1.0346    1.1160 H   0  0  0  0  0  0  0  0  0  0  0  0
   -0.0260    0.7192   -1.6146 H   0  0  0  0  0  0  0  0  0  0  0  0
   -0.8638   -0.1602    1.1971 H   0  0  0  0  0  0  0  0  0  0  0  0
    1.4623   -1.3780    1.4922 H   0  0  0  0  0  0  0  0  0  0  0  0
    1.9914   -2.5056    0.2981 H   0  0  0  0  0  0  0  0  0  0  0  0
    2.0899    2.9792    0.0971 H   0  0  0  0  0  0  0  0  0  0  0  0
    2.1524    2.2558   -1.5134 H   0  0  0  0  0  0  0  0  0  0  0  0
   -0.0364   -2.0299   -1.0675 H   0  0  0  0  0  0  0  0  0  0  0  0
   -0.4381   -2.4585    0.5827 H   0  0  0  0  0  0  0  0  0  0  0  0
   -2.1907   -0.7489   -1.5002 H   0  0  0  0  0  0  0  0  0  0  0  0
    4.3142    1.6157   -1.0889 H   0  0  0  0  0  0  0  0  0  0  0  0
    4.2097    2.1655    0.5757 H   0  0  0  0  0  0  0  0  0  0  0  0
   -0.3273    3.0012   -0.6980 H   0  0  0  0  0  0  0  0  0  0  0  0
   -0.8869    2.3303    0.8330 H   0  0  0  0  0  0  0  0  0  0  0  0
    2.8040    0.1430   -2.3449 H   0  0  0  0  0  0  0  0  0  0  0  0
    1.3400   -0.7934   -2.2607 H   0  0  0  0  0  0  0  0  0  0  0  0
   -2.1880    2.0100   -1.9177 H   0  0  0  0  0  0  0  0  0  0  0  0
   -2.7870    2.9770   -0.5764 H   0  0  0  0  0  0  0  0  0  0  0  0
   -2.8219   -1.5487    1.3766 H   0  0  0  0  0  0  0  0  0  0  0  0
   -2.6131   -2.5983   -0.0251 H   0  0  0  0  0  0  0  0  0  0  0  0
    4.0966   -1.7162   -2.4052 H   0  0  0  0  0  0  0  0  0  0  0  0
    3.2439   -2.6128   -1.1533 H   0  0  0  0  0  0  0  0  0  0  0  0
    2.6133   -2.5379   -2.7792 H   0  0  0  0  0  0  0  0  0  0  0  0
    4.6405   -1.5797    0.1639 H   0  0  0  0  0  0  0  0  0  0  0  0
   -4.9847   -2.3628    0.6409 H   0  0  0  0  0  0  0  0  0  0  0  0
   -4.7245   -1.7732   -1.0149 H   0  0  0  0  0  0  0  0  0  0  0  0
   -4.7501    1.9155    0.1777 H   0  0  0  0  0  0  0  0  0  0  0  0
    3.8171   -0.1201    4.0191 H   0  0  0  0  0  0  0  0  0  0  0  0
  1  7  1  0  0  0  0
  1 47  1  0  0  0  0
  2 22  2  0  0  0  0
  3  4  1  0  0  0  0
  3  7  1  0  0  0  0
  3  8  1  0  0  0  0
  3 14  1  0  0  0  0
  4  5  1  0  0  0  0
  4  9  1  0  0  0  0
  4 24  1  0  0  0  0
  5  6  1  0  0  0  0
  5 13  1  0  0  0  0
  5 25  1  0  0  0  0
  6 10  1  0  0  0  0
  6 11  1  0  0  0  0
  6 26  1  0  0  0  0
  7 12  1  0  0  0  0
  7 19  1  0  0  0  0
  8 10  1  0  0  0  0
  8 27  1  0  0  0  0
  8 28  1  0  0  0  0
  9 12  1  0  0  0  0
  9 29  1  0  0  0  0
  9 30  1  0  0  0  0
 10 31  1  0  0  0  0
 10 32  1  0  0  0  0
 11 16  1  0  0  0  0
 11 17  1  0  0  0  0
 11 33  1  0  0  0  0
 12 34  1  0  0  0  0
 12 35  1  0  0  0  0
 13 15  1  0  0  0  0
 13 36  1  0  0  0  0
 13 37  1  0  0  0  0
 14 18  1  0  0  0  0
 14 38  1  0  0  0  0
 14 39  1  0  0  0  0
 15 16  1  0  0  0  0
 15 40  1  0  0  0  0
 15 41  1  0  0  0  0
 16 21  2  0  0  0  0
 17 20  1  0  0  0  0
 17 42  1  0  0  0  0
 17 43  1  0  0  0  0
 18 44  1  0  0  0  0
 18 45  1  0  0  0  0
 18 46  1  0  0  0  0
 19 23  3  0  0  0  0
 20 22  1  0  0  0  0
 20 48  1  0  0  0  0
 20 49  1  0  0  0  0
 21 22  1  0  0  0  0
 21 50  1  0  0  0  0
 23 51  1  0  0  0  0
M  END
> <DATABASE_ID>
DB00367

> <DATABASE_NAME>
drugbank

> <ORIGINAL_SOURCE>
PUBCHEM

> <ORIGINAL_SOURCE_URL>
https://pubchem.ncbi.nlm.nih.gov/rest/pug/compound/inchikey/WWYNJERNGUHSAO-XUDSTZEESA-N/SDF?record_type=3d

> <SMILES>
[H][C@@]12CC[C@@](O)(C#C)[C@@]1(CC)CC[C@]1([H])[C@@]3([H])CCC(=O)C=C3CC[C@@]21[H]

> <INCHI_IDENTIFIER>
InChI=1S/C21H28O2/c1-3-20-11-9-17-16-8-6-15(22)13-14(16)5-7-18(17)19(20)10-12-21(20,23)4-2/h2,13,16-19,23H,3,5-12H2,1H3/t16-,17+,18+,19-,20-,21-/m0/s1

> <INCHI_KEY>
WWYNJERNGUHSAO-XUDSTZEESA-N

> <FORMULA>
C21H28O2

> <MOLECULAR_WEIGHT>
312.4458

> <EXACT_MASS>
312.20893014

> <JCHEM_ACCEPTOR_COUNT>
2

> <JCHEM_AVERAGE_POLARIZABILITY>
36.72791797824078

> <JCHEM_BIOAVAILABILITY>
1

> <JCHEM_DONOR_COUNT>
1

> <JCHEM_FORMAL_CHARGE>
0

> <JCHEM_GHOSE_FILTER>
1

> <JCHEM_IUPAC>
(1S,2R,10R,11S,14R,15S)-15-ethyl-14-ethynyl-14-hydroxytetracyclo[8.7.0.0²,⁷.0¹¹,¹⁵]heptadec-6-en-5-one

> <ALOGPS_LOGP>
3.25

> <JCHEM_LOGP>
3.6617966023333337

> <ALOGPS_LOGS>
-4.73

> <JCHEM_MDDR_LIKE_RULE>
0

> <JCHEM_NUMBER_OF_RINGS>
4

> <JCHEM_PHYSIOLOGICAL_CHARGE>
0

> <JCHEM_PKA>
19.27817248474075

> <JCHEM_PKA_STRONGEST_ACIDIC>
17.909290746374918

> <JCHEM_PKA_STRONGEST_BASIC>
-1.5260034647442402

> <JCHEM_POLAR_SURFACE_AREA>
37.3

> <JCHEM_REFRACTIVITY>
92.0255

> <JCHEM_ROTATABLE_BOND_COUNT>
1

> <JCHEM_RULE_OF_FIVE>
1

> <ALOGPS_SOLUBILITY>
5.83e-03 g/l

> <JCHEM_TRADITIONAL_IUPAC>
plan b

> <JCHEM_VEBER_RULE>
1

> <DRUGBANK_ID>
DB00367

> <SECONDARY_ACCESSION_NUMBERS>
APRD00754; DB00506; APRD00106

> <DRUG_GROUPS>
approved; investigational

> <GENERIC_NAME>
Levonorgestrel

> <SYNONYMS>
(-)-13-Ethyl-17-hydroxy-18,19-dinor-17alpha-pregn-4-en-20-yn-3-one; (8R,9S,10R,13S,14S,17R)-13-ethyl-17-ethynyl-17-hydroxy- 1,2,6,7,8,9,10,11,12,13,14,15,16, 17- tetradecahydrocyclopenta[a] phenanthren-3-one; 13-beta-Ethyl-17alpha-ethynyl-17beta-hydroxygon-4-en-3-one; 13-Ethyl-17-alpha-ethynyl-17-beta-hydroxy-4-gonen-3-one; 13-Ethyl-17-alpha-ethynylgon-4-en-17-beta-ol-3-one; 17-alpha-Ethinyl-13-beta-ethyl-17-beta-hydroxy-4-estren-3-one; 17-alpha-Ethynyl-13-ethyl-19-nortestosterone; 17-Ethynyl-18-methyl-19-nortestosterone; 17alpha-Ethynyl-13beta-ethyl-3-oxo-4-estren-17beta-ol; 17alpha-Ethynyl-17-hydroxy-18-methylestr-4-en-3-one; 17alpha-Ethynyl-18-homo-19-nortestosterone; 18-Methyl-17-alpha-ethynyl-19-nortestosterone; 18-Methylnorethisterone; d(-)-Norgestrel; Lèvonorgestrel; Levonorgestrel; Levonorgestrelum

> <PRODUCTS>
Afirmelle; AfterPill; AfterPlan; Aftera; Alesse 21; Alesse 28; Altavera; Alysena 21; Alysena 28; Amethia; Amethia Lo; Amethyst; Ashlyna; Athentia Next; Aubra; Aubra EQ; Aviane; Aviane 21; Aviane 28; Aviane 28 Day; Ayuna; Backup Plan; Backup Plan Onestep; Balcoltra; BionaFem; Camrese; Chateal; Chateal EQ; Climara Pro; Contingency; Contingency One; Daysee; Delyla; EContra EZ; EContra One-Step; Econ Morning After; Enpresse; Esme 21; Esme 28; Falessa; Fallback Solo; Falmina; Fayosim; Her style; Iclevia; Indayo; Introvale; Jaimiess; Jaydess; Jolessa; Kurvelo; Kyleena; Larissia; Lessina; Levlite; Levonest; Levonorgestrel; Levonorgestrel Emergency Contraceptive; Levonorgestrel Tablets, 0.75mg; Levonorgestrel and Ethinyl Estradiol; Levonorgestrel and Ethinyl Estradiol Tablets, 0.1 Mg/0.02 mg; Levonorgestrel and Ethinyl Estradiol and Ethinyl Estradiol; Levonorgestrel and Ethinyl Estradoil; Levora; Liletta; Lillow; Lo Simpesse; LoJaimiess; LoSeasonique; Lutera; Lutera 21; Lutera 28; Lybrel; Marlissa; Min-ovral 21; Min-ovral 21 Tab; Min-ovral 28; Min-ovral 28 Tab; Minivlar 30; Mirena; Morning After; My Choice TM; My Way; Myzilra; New Day; Next Choice; Next Choice One Dose; Nordette; Norlevo; Norplant System Kit 36mg/implant; Opcicon One-Step; Option 2; Orsythia; Ovima 21; Ovima 28; Plan B; Plan B One-Step; Portia; Portia 21; Portia 28; PostDay One-Step; Preven Emergency Contraceptive; Preven Tablets; Preventeza; Quartette; Quasense; React; Rivelsa; Seasonale; Seasonique; Setlakin; Simpesse; Skyla; Sronyx; Take Action; Teva-levonorgestrel; Triphasil 21; Triphasil 21 Tab; Triphasil 28; Triphasil 28 Tab; Triphasil-21; Triquilar 21; Triquilar 28; Trivora; Vienva TM; camrese Lo

> <INTERNATIONAL_BRANDS>
Jadelle; Levonelle; Medonor; Microlut; Microluton; Microval; Neogest; Norgeston; Norplant; Postinor

$$$$
