REMARK  Name = 119570
REMARK  3 active torsions:
REMARK  status: ('A' for Active; 'I' for Inactive)
REMARK    1  A    between atoms: C_4  and  N_13
REMARK    2  A    between atoms: N_13  and  C_16
REMARK    3  A    between atoms: C_16  and  C_17
REMARK                            x       y       z     vdW  Elec       q    Type
REMARK                         _______ _______ _______ _____ _____    ______ ____
ROOT
ATOM      1  S   UNL     1       2.147  -1.790   0.231  0.00  0.00    -0.062 S 
ATOM      2  N   UNL     1       3.164   0.554  -0.200  0.00  0.00    -0.389 NA
ATOM      3  N   UNL     1       4.726  -1.220  -0.100  0.00  0.00    -0.328 N 
ATOM      4  C   UNL     1      -1.061   0.745  -0.193  0.00  0.00    -0.060 C 
ATOM      5  C   UNL     1      -0.305   2.006   0.282  0.00  0.00    -0.014 C 
ATOM      6  C   UNL     1      -0.390  -0.550   0.322  0.00  0.00    -0.003 C 
ATOM      7  C   UNL     1       1.146   2.032  -0.234  0.00  0.00    +0.053 C 
ATOM      8  C   UNL     1       1.089  -0.461   0.141  0.00  0.00    +0.101 C 
ATOM      9  C   UNL     1       1.798   0.702  -0.086  0.00  0.00    +0.099 C 
ATOM     10  C   UNL     1       3.463  -0.719  -0.049  0.00  0.00    +0.204 C 
ATOM     11  H   UNL     1       4.879  -2.185   0.023  0.00  0.00    +0.145 HD
ATOM     12  H   UNL     1       5.489  -0.618  -0.259  0.00  0.00    +0.145 HD
ENDROOT
BRANCH   4  13
ATOM     13  N   UNL     1      -2.449   0.789   0.262  0.00  0.00    +0.385 N 
ATOM     14  H   UNL     1      -2.887   1.643  -0.085  0.00  0.00    -0.084 HD
ATOM     15  H   UNL     1      -2.460   0.773   1.281  0.00  0.00    -0.084 HD
BRANCH  13  16
ATOM     16  C   UNL     1      -3.191  -0.361  -0.231  0.00  0.00    -0.082 C 
BRANCH  16  17
ATOM     17  C   UNL     1      -4.654  -0.282   0.192  0.00  0.00    -0.023 C 
ATOM     18  C   UNL     1      -5.485  -1.443  -0.337  0.00  0.00    -0.002 C 
ENDBRANCH  16  17
ENDBRANCH  13  16
ENDBRANCH   4  13
TORSDOF 3
