REMARK  Name = 4909
REMARK  2 active torsions:
REMARK  status: ('A' for Active; 'I' for Inactive)
REMARK    1  A    between atoms: C_5  and  C_11
REMARK    2  A    between atoms: C_5  and  C_17
REMARK                            x       y       z     vdW  Elec       q    Type
REMARK                         _______ _______ _______ _____ _____    ______ ____
ROOT
ATOM      1  O   UNL     1      -1.474  -2.313  -0.384  0.00  0.00    -0.274 OA
ATOM      2  O   UNL     1      -1.535   2.263  -0.494  0.00  0.00    -0.274 OA
ATOM      3  N   UNL     1      -1.486  -1.169   1.602  0.00  0.00    -0.287 N 
ATOM      4  N   UNL     1      -1.535   1.208   1.542  0.00  0.00    -0.287 N 
ATOM      5  C   UNL     1      -0.626  -0.012  -0.401  0.00  0.00    +0.156 C 
ATOM      6  C   UNL     1      -1.243  -1.281   0.245  0.00  0.00    +0.235 C 
ATOM      7  C   UNL     1      -1.284   1.266   0.182  0.00  0.00    +0.235 C 
ATOM      8  C   UNL     1      -1.195   0.045   2.320  0.00  0.00    +0.186 C 
ATOM      9  H   UNL     1      -1.867  -1.936   2.088  0.00  0.00    +0.151 HD
ATOM     10  H   UNL     1      -1.954   1.980   1.987  0.00  0.00    +0.151 HD
ENDROOT
BRANCH   5  11
ATOM     11  C   UNL     1       0.908   0.001  -0.234  0.00  0.00    -0.006 C 
ATOM     12  C   UNL     1       1.601  -1.202  -0.175  0.00  0.00    -0.003 C 
ATOM     13  C   UNL     1       1.579   1.214  -0.146  0.00  0.00    -0.003 C 
ATOM     14  C   UNL     1       2.987  -1.191  -0.024  0.00  0.00    -0.000 C 
ATOM     15  C   UNL     1       2.965   1.225   0.004  0.00  0.00    -0.000 C 
ATOM     16  C   UNL     1       3.670   0.022   0.065  0.00  0.00    -0.000 C 
ENDBRANCH   5  11
BRANCH   5  17
ATOM     17  C   UNL     1      -0.921  -0.046  -1.917  0.00  0.00    +0.022 C 
ATOM     18  C   UNL     1      -2.411  -0.028  -2.185  0.00  0.00    +0.001 C 
ENDBRANCH   5  17
TORSDOF 2
