REMARK  Name = 2519
REMARK  0 active torsions:
REMARK  status: ('A' for Active; 'I' for Inactive)
REMARK                            x       y       z     vdW  Elec       q    Type
REMARK                         _______ _______ _______ _____ _____    ______ ____
ROOT
ATOM      1  O   UNL     1       0.470   2.569   0.001  0.00  0.00    -0.272 OA
ATOM      2  O   UNL     1      -3.127  -0.444   0.000  0.00  0.00    -0.252 OA
ATOM      3  N   UNL     1      -0.969  -1.313   0.000  0.00  0.00    -0.228 N 
ATOM      4  N   UNL     1       2.218   0.141   0.000  0.00  0.00    -0.239 NA
ATOM      5  N   UNL     1      -1.348   1.080   0.000  0.00  0.00    -0.211 N 
ATOM      6  N   UNL     1       1.412  -1.937   0.000  0.00  0.00    -0.240 NA
ATOM      7  C   UNL     1       0.858   0.259  -0.001  0.00  0.00    +0.192 C 
ATOM      8  C   UNL     1       0.390  -1.026   0.000  0.00  0.00    +0.136 C 
ATOM      9  C   UNL     1       0.031   1.422  -0.001  0.00  0.00    +0.254 C 
ATOM     10  C   UNL     1      -1.906  -0.249   0.000  0.00  0.00    +0.318 C 
ATOM     11  C   UNL     1       2.503  -1.200   0.000  0.00  0.00    +0.203 C 
ATOM     12  C   UNL     1      -1.428  -2.696   0.001  0.00  0.00    +0.123 C 
ATOM     13  C   UNL     1       3.193   1.206   0.000  0.00  0.00    +0.092 C 
ATOM     14  C   UNL     1      -2.297   2.188   0.001  0.00  0.00    +0.124 C 
ENDROOT
TORSDOF 0
