REMARK  Name = 446987
REMARK  3 active torsions:
REMARK  status: ('A' for Active; 'I' for Inactive)
REMARK    1  A    between atoms: P_1  and  C_4
REMARK    2  A    between atoms: P_1  and  O_7
REMARK    3  A    between atoms: P_1  and  O_9
REMARK                            x       y       z     vdW  Elec       q    Type
REMARK                         _______ _______ _______ _____ _____    ______ ____
ROOT
ATOM      1  P   UNL     1       1.062   0.166  -0.016  0.00  0.00    +0.366 P 
ATOM      2  O   UNL     1       1.050   1.502  -0.688  0.00  0.00    -0.256 OA
ENDROOT
BRANCH   1   4
ATOM      3  O   UNL     1      -1.292  -1.264   0.268  0.00  0.00    -0.342 OA
ATOM      4  C   UNL     1      -0.366  -0.731  -0.692  0.00  0.00    +0.246 C 
ATOM      5  C   UNL     1      -1.723  -0.117  -0.477  0.00  0.00    +0.155 C 
ATOM      6  C   UNL     1      -1.893   1.114   0.327  0.00  0.00    +0.035 C 
ENDBRANCH   1   4
BRANCH   1   7
ATOM      7  O   UNL     1       2.318  -0.801  -0.302  0.00  0.00    -0.322 OA
ATOM      8  H   UNL     1       3.128  -0.387   0.034  0.00  0.00    +0.220 HD
ENDBRANCH   1   7
BRANCH   1   9
ATOM      9  O   UNL     1       0.843   0.131   1.579  0.00  0.00    -0.322 OA
ATOM     10  H   UNL     1       1.574   0.595   2.016  0.00  0.00    +0.220 HD
ENDBRANCH   1   9
TORSDOF 3
