REMARK  Name = 3365
REMARK  6 active torsions:
REMARK  status: ('A' for Active; 'I' for Inactive)
REMARK    1  A    between atoms: C_1  and  C_4
REMARK    2  A    between atoms: C_1  and  O_10
REMARK    3  A    between atoms: C_1  and  C_12
REMARK    4  A    between atoms: C_1  and  C_18
REMARK    5  A    between atoms: C_12  and  N_13
REMARK    6  A    between atoms: C_18  and  N_19
REMARK                            x       y       z     vdW  Elec       q    Type
REMARK                         _______ _______ _______ _____ _____    ______ ____
ROOT
ATOM      1  C   UNL     1      -0.045  -1.041  -0.231  0.00  0.00    +0.149 C 
ENDROOT
BRANCH   1   4
ATOM      2  F   UNL     1       0.120   0.812  -2.358  0.00  0.00    -0.204 F 
ATOM      3  F   UNL     1       0.074   4.519   0.582  0.00  0.00    -0.204 F 
ATOM      4  C   UNL     1      -0.012   0.435  -0.018  0.00  0.00    +0.033 C 
ATOM      5  C   UNL     1       0.070   1.299  -1.110  0.00  0.00    +0.141 C 
ATOM      6  C   UNL     1      -0.065   0.951   1.277  0.00  0.00    +0.003 C 
ATOM      7  C   UNL     1       0.100   2.679  -0.908  0.00  0.00    +0.059 C 
ATOM      8  C   UNL     1      -0.035   2.331   1.480  0.00  0.00    +0.030 C 
ATOM      9  C   UNL     1       0.047   3.195   0.387  0.00  0.00    +0.142 C 
ENDBRANCH   1   4
BRANCH   1  10
ATOM     10  O   UNL     1      -0.039  -1.746   1.035  0.00  0.00    -0.379 OA
ATOM     11  H   UNL     1      -0.061  -2.702   0.873  0.00  0.00    +0.211 HD
ENDBRANCH   1  10
BRANCH   1  12
ATOM     12  C   UNL     1       1.262  -1.509  -0.971  0.00  0.00    +0.151 C 
BRANCH  12  13
ATOM     13  N   UNL     1       2.538  -1.265  -0.299  0.00  0.00    -0.188 N 
ATOM     14  N   UNL     1       3.193  -0.126  -0.508  0.00  0.00    -0.154 NA
ATOM     15  N   UNL     1       4.291  -1.510   0.946  0.00  0.00    -0.203 NA
ATOM     16  C   UNL     1       3.178  -2.085   0.556  0.00  0.00    +0.186 C 
ATOM     17  C   UNL     1       4.258  -0.322   0.273  0.00  0.00    +0.218 C 
ENDBRANCH  12  13
ENDBRANCH   1  12
BRANCH   1  18
ATOM     18  C   UNL     1      -1.319  -1.523  -1.014  0.00  0.00    +0.151 C 
BRANCH  18  19
ATOM     19  N   UNL     1      -2.584  -1.222  -0.338  0.00  0.00    -0.188 N 
ATOM     20  N   UNL     1      -3.106  -2.100   0.513  0.00  0.00    -0.154 NA
ATOM     21  N   UNL     1      -4.388  -0.218   0.300  0.00  0.00    -0.203 NA
ATOM     22  C   UNL     1      -3.330  -0.112  -0.470  0.00  0.00    +0.186 C 
ATOM     23  C   UNL     1      -4.208  -1.442   0.877  0.00  0.00    +0.218 C 
ENDBRANCH  18  19
ENDBRANCH   1  18
TORSDOF 6
