REMARK  Name = 4192
REMARK  1 active torsions:
REMARK  status: ('A' for Active; 'I' for Inactive)
REMARK    1  A    between atoms: C_9  and  C_18
REMARK                            x       y       z     vdW  Elec       q    Type
REMARK                         _______ _______ _______ _____ _____    ______ ____
ROOT
ATOM      1 CL   UNL     1      -0.581  -4.592   0.924  0.00  0.00    -0.082 Cl
ATOM      2  N   UNL     1       2.244   0.530  -0.084  0.00  0.00    -0.255 N 
ATOM      3  N   UNL     1      -0.374   1.706   0.963  0.00  0.00    -0.264 NA
ATOM      4  N   UNL     1       3.809   1.971  -0.781  0.00  0.00    -0.232 NA
ATOM      5  C   UNL     1       1.516  -0.671   0.087  0.00  0.00    +0.058 C 
ATOM      6  C   UNL     1       1.996   1.729   0.552  0.00  0.00    +0.078 C 
ATOM      7  C   UNL     1       0.159  -0.671   0.468  0.00  0.00    +0.032 C 
ATOM      8  C   UNL     1       0.931   1.892   1.568  0.00  0.00    +0.168 C 
ATOM      9  C   UNL     1      -0.704   0.557   0.478  0.00  0.00    +0.080 C 
ATOM     10  C   UNL     1       3.376   0.732  -0.843  0.00  0.00    +0.116 C 
ATOM     11  C   UNL     1       2.956   2.597   0.084  0.00  0.00    +0.113 C 
ATOM     12  C   UNL     1       2.186  -1.892  -0.096  0.00  0.00    +0.016 C 
ATOM     13  C   UNL     1      -0.472  -1.897   0.742  0.00  0.00    +0.014 C 
ATOM     14  C   UNL     1       3.961  -0.247  -1.789  0.00  0.00    +0.070 C 
ATOM     15  C   UNL     1       1.534  -3.100   0.156  0.00  0.00    +0.013 C 
ATOM     16  C   UNL     1       0.213  -3.102   0.589  0.00  0.00    +0.058 C 
ENDROOT
BRANCH   9  18
ATOM     17  F   UNL     1      -2.890   2.109   1.359  0.00  0.00    -0.204 F 
ATOM     18  C   UNL     1      -2.057   0.472  -0.147  0.00  0.00    +0.045 C 
ATOM     19  C   UNL     1      -3.089   1.265   0.336  0.00  0.00    +0.142 C 
ATOM     20  C   UNL     1      -2.265  -0.401  -1.207  0.00  0.00    +0.004 C 
ATOM     21  C   UNL     1      -4.351   1.184  -0.251  0.00  0.00    +0.030 C 
ATOM     22  C   UNL     1      -3.527  -0.482  -1.794  0.00  0.00    +0.000 C 
ATOM     23  C   UNL     1      -4.571   0.311  -1.316  0.00  0.00    +0.002 C 
ENDBRANCH   9  18
TORSDOF 1
