REMARK  Name = 145742
REMARK  2 active torsions:
REMARK  status: ('A' for Active; 'I' for Inactive)
REMARK    1  A    between atoms: CA_2  and  C_9
REMARK    2  A    between atoms: C_9  and  O_10
REMARK                            x       y       z     vdW  Elec       q    Type
REMARK                         _______ _______ _______ _____ _____    ______ ____
ROOT
ATOM      1  N   PRO A   1      -0.781   0.931   0.777  0.00  0.00    +0.392 N 
ATOM      2  CA  PRO A   1       0.083  -0.248   0.725  0.00  0.00    +0.040 C 
ATOM      3  CB  PRO A   1      -0.724  -1.317  -0.003  0.00  0.00    -0.013 C 
ATOM      4  CG  PRO A   1      -1.989  -0.611  -0.475  0.00  0.00    -0.025 C 
ATOM      5  CD  PRO A   1      -1.650   0.864  -0.393  0.00  0.00    -0.081 C 
ATOM      6  H1  PRO A   1      -0.218   1.782   0.749  0.00  0.00    -0.084 HD
ATOM      7  H2  PRO A   1      -1.326   0.950   1.639  0.00  0.00    -0.084 HD
ENDROOT
BRANCH   2   9
ATOM      8  OXT PRO A   1       1.569   1.216  -0.495  0.00  0.00    -0.253 OA
ATOM      9  C   PRO A   1       1.329   0.115  -0.024  0.00  0.00    +0.293 C 
BRANCH   9  10
ATOM     10  O   PRO A   1       2.162  -0.951  -0.112  0.00  0.00    -0.482 OA
ATOM     11  H   PRO A   1       1.917  -1.770   0.273  0.00  0.00    +0.295 HD
ENDBRANCH   9  10
ENDBRANCH   2   9
TORSDOF 2
