REMARK  Name = 2284
REMARK  6 active torsions:
REMARK  status: ('A' for Active; 'I' for Inactive)
REMARK    1  A    between atoms: C_1  and  C_3
REMARK    2  A    between atoms: C_1  and  C_9
REMARK    3  A    between atoms: C_1  and  C_14
REMARK    4  A    between atoms: C_9  and  C_11
REMARK    5  A    between atoms: C_11  and  O_12
REMARK    6  A    between atoms: C_14  and  N_15
REMARK                            x       y       z     vdW  Elec       q    Type
REMARK                         _______ _______ _______ _____ _____    ______ ____
ROOT
ATOM      1  C   UNL     1       1.318  -0.807  -0.245  0.00  0.00    +0.012 C 
ENDROOT
BRANCH   1   3
ATOM      2 CL   UNL     1      -4.547   0.371   0.250  0.00  0.00    -0.082 Cl
ATOM      3  C   UNL     1      -0.173  -0.508  -0.119  0.00  0.00    -0.024 C 
ATOM      4  C   UNL     1      -1.032  -1.002  -1.077  0.00  0.00    -0.003 C 
ATOM      5  C   UNL     1      -0.611   0.246   0.949  0.00  0.00    -0.003 C 
ATOM      6  C   UNL     1      -2.395  -0.728  -0.962  0.00  0.00    +0.011 C 
ATOM      7  C   UNL     1      -1.974   0.519   1.064  0.00  0.00    +0.011 C 
ATOM      8  C   UNL     1      -2.866   0.033   0.108  0.00  0.00    +0.058 C 
ENDBRANCH   1   3
BRANCH   1   9
ATOM      9  C   UNL     1       2.148   0.342   0.373  0.00  0.00    +0.112 C 
BRANCH   9  11
ATOM     10  O   UNL     1       1.543   1.884  -1.417  0.00  0.00    -0.250 OA
ATOM     11  C   UNL     1       1.892   1.694  -0.260  0.00  0.00    +0.314 C 
BRANCH  11  12
ATOM     12  O   UNL     1       2.061   2.703   0.635  0.00  0.00    -0.480 OA
ATOM     13  H   UNL     1       2.330   2.512   1.512  0.00  0.00    +0.295 HD
ENDBRANCH  11  12
ENDBRANCH   9  11
ENDBRANCH   1   9
BRANCH   1  14
ATOM     14  C   UNL     1       1.613  -2.188   0.384  0.00  0.00    -0.081 C 
BRANCH  14  15
ATOM     15  N   UNL     1       3.022  -2.559   0.317  0.00  0.00    +0.381 N 
ATOM     16  H   UNL     1       3.153  -3.476   0.746  0.00  0.00    -0.089 HD
ATOM     17  H   UNL     1       3.580  -1.867   0.817  0.00  0.00    -0.089 HD
ATOM     18  H   UNL     1       3.318  -2.595  -0.658  0.00  0.00    -0.089 HD
ENDBRANCH  14  15
ENDBRANCH   1  14
TORSDOF 6
