REMARK  Name = 24066
REMARK  3 active torsions:
REMARK  status: ('A' for Active; 'I' for Inactive)
REMARK    1  A    between atoms: N_2  and  C_12
REMARK    2  A    between atoms: C_15  and  C_16
REMARK    3  A    between atoms: C_16  and  O_17
REMARK                            x       y       z     vdW  Elec       q    Type
REMARK                         _______ _______ _______ _____ _____    ______ ____
ROOT
ATOM      1  O   UNL     1      -1.661  -2.365   0.438  0.00  0.00    -0.193 OA
ATOM      2  N   UNL     1      -0.488  -0.398   0.162  0.00  0.00    -0.180 N 
ATOM      3  N   UNL     1      -2.895  -0.496   0.070  0.00  0.00    -0.306 NA
ATOM      4  N   UNL     1      -4.154   1.423  -0.308  0.00  0.00    -0.332 N 
ATOM      5  C   UNL     1      -0.553   0.967  -0.070  0.00  0.00    +0.083 C 
ATOM      6  C   UNL     1      -1.686  -1.150   0.234  0.00  0.00    +0.275 C 
ATOM      7  C   UNL     1      -1.706   1.614  -0.232  0.00  0.00    +0.065 C 
ATOM      8  C   UNL     1      -2.941   0.792  -0.148  0.00  0.00    +0.193 C 
ATOM      9  H   UNL     1      -4.989   0.904  -0.258  0.00  0.00    +0.145 HD
ATOM     10  H   UNL     1      -4.186   2.393  -0.473  0.00  0.00    +0.145 HD
ENDROOT
BRANCH   2  12
ATOM     11  O   UNL     1       1.694  -0.072   0.946  0.00  0.00    -0.337 OA
ATOM     12  C   UNL     1       0.800  -1.005   0.322  0.00  0.00    +0.206 C 
ATOM     13  C   UNL     1       1.431  -1.406  -0.998  0.00  0.00    +0.055 C 
ATOM     14  C   UNL     1       2.902  -1.295  -0.686  0.00  0.00    +0.037 C 
ATOM     15  C   UNL     1       2.955  -0.102   0.256  0.00  0.00    +0.146 C 
BRANCH  15  16
ATOM     16  C   UNL     1       3.138   1.224  -0.471  0.00  0.00    +0.167 C 
BRANCH  16  17
ATOM     17  O   UNL     1       3.164   2.272   0.485  0.00  0.00    -0.379 OA
ATOM     18  H   UNL     1       3.281   3.121   0.031  0.00  0.00    +0.211 HD
ENDBRANCH  16  17
ENDBRANCH  15  16
ENDBRANCH   2  12
TORSDOF 3
