REMARK  Name = 444031
REMARK  7 active torsions:
REMARK  status: ('A' for Active; 'I' for Inactive)
REMARK    1  A    between atoms: C_1  and  C_3
REMARK    2  A    between atoms: C_1  and  C_19
REMARK    3  A    between atoms: C_1  and  C_25
REMARK    4  A    between atoms: C_1  and  C_33
REMARK    5  A    between atoms: N_2  and  C_8
REMARK    6  A    between atoms: C_8  and  C_9
REMARK    7  A    between atoms: C_9  and  C_11
REMARK                            x       y       z     vdW  Elec       q    Type
REMARK                         _______ _______ _______ _____ _____    ______ ____
ROOT
ATOM      1  C   UNL     1       2.667  -0.054  -0.258  0.00  0.00    +0.104 C 
ENDROOT
BRANCH   1   3
ATOM      2  N   UNL     1      -0.519  -1.659   0.667  0.00  0.00    +0.387 N 
ATOM      3  C   UNL     1       1.661  -0.911   0.492  0.00  0.00    -0.007 C 
ATOM      4  C   UNL     1       1.644  -2.372   0.036  0.00  0.00    -0.024 C 
ATOM      5  C   UNL     1       0.221  -0.451   0.301  0.00  0.00    -0.076 C 
ATOM      6  C   UNL     1       0.167  -2.756  -0.018  0.00  0.00    -0.077 C 
ATOM      7  H   UNL     1      -0.525  -1.798   1.678  0.00  0.00    -0.080 HD
BRANCH   2   8
ATOM      8  C   UNL     1      -1.929  -1.577   0.316  0.00  0.00    -0.073 C 
BRANCH   8   9
ATOM      9  C   UNL     1      -2.621  -0.451   1.086  0.00  0.00    +0.004 C 
BRANCH   9  11
ATOM     10  O   UNL     1      -8.062  -0.093  -0.262  0.00  0.00    -0.475 OA
ATOM     11  C   UNL     1      -4.078  -0.371   0.750  0.00  0.00    -0.024 C 
ATOM     12  C   UNL     1      -4.502   0.438  -0.308  0.00  0.00    -0.005 C 
ATOM     13  C   UNL     1      -5.005  -1.117   1.498  0.00  0.00    -0.001 C 
ATOM     14  C   UNL     1      -5.855   0.492  -0.586  0.00  0.00    +0.015 C 
ATOM     15  C   UNL     1      -6.765  -0.246   0.157  0.00  0.00    +0.135 C 
ATOM     16  C   UNL     1      -6.569   1.203  -1.669  0.00  0.00    +0.077 C 
ATOM     17  C   UNL     1      -6.368  -1.062   1.198  0.00  0.00    +0.036 C 
ATOM     18  C   UNL     1      -8.001   1.042  -1.159  0.00  0.00    +0.210 C 
ENDBRANCH   9  11
ENDBRANCH   8   9
ENDBRANCH   2   8
ENDBRANCH   1   3
BRANCH   1  19
ATOM     19  C   UNL     1       4.147  -0.544  -0.087  0.00  0.00    -0.011 C 
ATOM     20  C   UNL     1       4.475  -1.127   1.095  0.00  0.00    -0.004 C 
ATOM     21  C   UNL     1       4.990  -0.350  -1.134  0.00  0.00    -0.004 C 
ATOM     22  C   UNL     1       5.791  -1.564   1.247  0.00  0.00    -0.000 C 
ATOM     23  C   UNL     1       6.306  -0.786  -0.982  0.00  0.00    -0.000 C 
ATOM     24  C   UNL     1       6.707  -1.393   0.208  0.00  0.00    -0.000 C 
ENDBRANCH   1  19
BRANCH   1  25
ATOM     25  C   UNL     1       2.577   1.427   0.238  0.00  0.00    -0.011 C 
ATOM     26  C   UNL     1       2.798   2.407  -0.678  0.00  0.00    -0.004 C 
ATOM     27  C   UNL     1       2.283   1.629   1.550  0.00  0.00    -0.004 C 
ATOM     28  C   UNL     1       2.717   3.728  -0.236  0.00  0.00    -0.000 C 
ATOM     29  C   UNL     1       2.202   2.950   1.992  0.00  0.00    -0.000 C 
ATOM     30  C   UNL     1       2.419   3.999   1.099  0.00  0.00    -0.000 C 
ENDBRANCH   1  25
BRANCH   1  33
ATOM     31  O   UNL     1       2.787  -1.023  -2.537  0.00  0.00    -0.275 OA
ATOM     32  N   UNL     1       1.397   0.758  -2.230  0.00  0.00    -0.328 N 
ATOM     33  C   UNL     1       2.318  -0.168  -1.785  0.00  0.00    +0.226 C 
ATOM     34  H   UNL     1       1.118   0.761  -3.174  0.00  0.00    +0.145 HD
ATOM     35  H   UNL     1       1.018   1.416  -1.603  0.00  0.00    +0.145 HD
ENDBRANCH   1  33
TORSDOF 7
