REMARK  Name = 5070
REMARK  2 active torsions:
REMARK  status: ('A' for Active; 'I' for Inactive)
REMARK    1  A    between atoms: C_7  and  O_13
REMARK    2  A    between atoms: O_13  and  C_17
REMARK                            x       y       z     vdW  Elec       q    Type
REMARK                         _______ _______ _______ _____ _____    ______ ____
ROOT
ATOM      1  S   UNL     1      -2.364  -1.659  -0.251  0.00  0.00    -0.038 S 
ATOM      2  N   UNL     1      -3.084   0.763   0.262  0.00  0.00    -0.385 NA
ATOM      3  N   UNL     1      -4.828  -0.830   0.289  0.00  0.00    -0.328 N 
ATOM      4  C   UNL     1      -1.137  -0.448  -0.256  0.00  0.00    +0.062 C 
ATOM      5  C   UNL     1      -1.715   0.790   0.041  0.00  0.00    +0.122 C 
ATOM      6  C   UNL     1       0.239  -0.584  -0.504  0.00  0.00    +0.046 C 
ATOM      7  C   UNL     1       1.038   0.561  -0.450  0.00  0.00    +0.144 C 
ATOM      8  C   UNL     1      -0.885   1.931   0.089  0.00  0.00    +0.089 C 
ATOM      9  C   UNL     1       0.485   1.803  -0.157  0.00  0.00    +0.019 C 
ATOM     10  C   UNL     1      -3.527  -0.466   0.134  0.00  0.00    +0.208 C 
ATOM     11  H   UNL     1      -5.092  -1.772   0.178  0.00  0.00    +0.145 HD
ATOM     12  H   UNL     1      -5.505  -0.151   0.511  0.00  0.00    +0.145 HD
ENDROOT
BRANCH   7  13
ATOM     13  O   UNL     1       2.376   0.457  -0.687  0.00  0.00    -0.405 OA
BRANCH  13  17
ATOM     14  F   UNL     1       2.617  -0.434   1.405  0.00  0.00    -0.133 F 
ATOM     15  F   UNL     1       4.394   0.128   0.264  0.00  0.00    -0.133 F 
ATOM     16  F   UNL     1       3.246  -1.630  -0.344  0.00  0.00    -0.133 F 
ATOM     17  C   UNL     1       3.146  -0.383   0.164  0.00  0.00    +0.575 C 
ENDBRANCH  13  17
ENDBRANCH   7  13
TORSDOF 2
