REMARK  Name = 5504
REMARK  2 active torsions:
REMARK  status: ('A' for Active; 'I' for Inactive)
REMARK    1  A    between atoms: C_1  and  C_4
REMARK    2  A    between atoms: C_1  and  C_8
REMARK                            x       y       z     vdW  Elec       q    Type
REMARK                         _______ _______ _______ _____ _____    ______ ____
ROOT
ATOM      1  C   UNL     1      -0.375   0.139  -1.415  0.00  0.00    +0.088 C 
ENDROOT
BRANCH   1   4
ATOM      2  N   UNL     1      -2.097  -1.103  -0.118  0.00  0.00    -0.299 N 
ATOM      3  N   UNL     1      -2.110   1.171  -0.023  0.00  0.00    -0.232 NA
ATOM      4  C   UNL     1      -1.558   0.087  -0.505  0.00  0.00    +0.113 C 
ATOM      5  C   UNL     1      -3.188  -0.878   0.781  0.00  0.00    +0.084 C 
ATOM      6  C   UNL     1      -3.233   0.657   0.821  0.00  0.00    +0.116 C 
ATOM      7  H   UNL     1      -1.782  -1.987  -0.413  0.00  0.00    +0.153 HD
ENDBRANCH   1   4
BRANCH   1   8
ATOM      8  C   UNL     1       0.909   0.060  -0.640  0.00  0.00    -0.015 C 
ATOM      9  C   UNL     1       1.514   1.229  -0.192  0.00  0.00    -0.004 C 
ATOM     10  C   UNL     1       1.478  -1.180  -0.378  0.00  0.00    -0.004 C 
ATOM     11  C   UNL     1       2.706   1.156   0.529  0.00  0.00    -0.000 C 
ATOM     12  C   UNL     1       2.670  -1.253   0.343  0.00  0.00    -0.000 C 
ATOM     13  C   UNL     1       3.284  -0.085   0.796  0.00  0.00    -0.000 C 
ENDBRANCH   1   8
TORSDOF 2
