REMARK  Name = 2118
REMARK  1 active torsions:
REMARK  status: ('A' for Active; 'I' for Inactive)
REMARK    1  A    between atoms: C_9  and  C_17
REMARK                            x       y       z     vdW  Elec       q    Type
REMARK                         _______ _______ _______ _____ _____    ______ ____
ROOT
ATOM      1 CL   UNL     1      -1.091   4.462   0.769  0.00  0.00    -0.082 Cl
ATOM      2  N   UNL     1       2.162  -0.425  -0.081  0.00  0.00    -0.279 N 
ATOM      3  N   UNL     1      -0.299  -1.786   1.106  0.00  0.00    -0.262 NA
ATOM      4  N   UNL     1       3.002  -2.439   0.227  0.00  0.00    -0.131 NA
ATOM      5  N   UNL     1       3.793  -1.779  -0.681  0.00  0.00    -0.133 NA
ATOM      6  C   UNL     1       1.332   0.710   0.053  0.00  0.00    +0.068 C 
ATOM      7  C   UNL     1      -0.005   0.605   0.485  0.00  0.00    +0.034 C 
ATOM      8  C   UNL     1       2.046  -1.615   0.602  0.00  0.00    +0.172 A 
ATOM      9  C   UNL     1      -0.750  -0.694   0.588  0.00  0.00    +0.078 C 
ATOM     10  C   UNL     1       1.039  -1.831   1.663  0.00  0.00    +0.191 C 
ATOM     11  C   UNL     1       3.298  -0.572  -0.835  0.00  0.00    +0.147 A 
ATOM     12  C   UNL     1       1.879   1.974  -0.218  0.00  0.00    +0.019 C 
ATOM     13  C   UNL     1      -0.738   1.782   0.721  0.00  0.00    +0.014 C 
ATOM     14  C   UNL     1       1.126   3.130  -0.003  0.00  0.00    +0.013 C 
ATOM     15  C   UNL     1      -0.173   3.034   0.482  0.00  0.00    +0.058 C 
ATOM     16  C   UNL     1       3.821   0.387  -1.830  0.00  0.00    +0.074 C 
ENDROOT
BRANCH   9  17
ATOM     17  C   UNL     1      -2.129  -0.761   0.019  0.00  0.00    +0.017 C 
ATOM     18  C   UNL     1      -2.460   0.036  -1.067  0.00  0.00    +0.001 C 
ATOM     19  C   UNL     1      -3.061  -1.621   0.585  0.00  0.00    +0.001 C 
ATOM     20  C   UNL     1      -3.748  -0.027  -1.599  0.00  0.00    +0.000 C 
ATOM     21  C   UNL     1      -4.349  -1.684   0.053  0.00  0.00    +0.000 C 
ATOM     22  C   UNL     1      -4.693  -0.887  -1.039  0.00  0.00    +0.000 C 
ENDBRANCH   9  17
TORSDOF 1
