REMARK  Name = 72474
REMARK  4 active torsions:
REMARK  status: ('A' for Active; 'I' for Inactive)
REMARK    1  A    between atoms: N_3  and  C_23
REMARK    2  A    between atoms: C_7  and  N_14
REMARK    3  A    between atoms: C_10  and  C_27
REMARK    4  A    between atoms: C_27  and  O_28
REMARK                            x       y       z     vdW  Elec       q    Type
REMARK                         _______ _______ _______ _____ _____    ______ ____
ROOT
ATOM      1  F   UNL     1       2.062  -2.505   0.578  0.00  0.00    -0.203 F 
ATOM      2  O   UNL     1      -3.007  -2.403   0.276  0.00  0.00    -0.286 OA
ATOM      3  N   UNL     1      -1.790   1.438  -0.341  0.00  0.00    -0.287 N 
ATOM      4  C   UNL     1      -0.788   0.452  -0.109  0.00  0.00    +0.056 C 
ATOM      5  C   UNL     1      -3.121   1.069  -0.349  0.00  0.00    +0.075 C 
ATOM      6  C   UNL     1      -1.170  -0.889   0.108  0.00  0.00    +0.051 C 
ATOM      7  C   UNL     1       1.536  -0.239   0.144  0.00  0.00    +0.076 C 
ATOM      8  C   UNL     1       0.583   0.757  -0.087  0.00  0.00    +0.032 C 
ATOM      9  C   UNL     1      -0.213  -1.886   0.339  0.00  0.00    +0.011 C 
ATOM     10  C   UNL     1      -3.589  -0.171  -0.155  0.00  0.00    +0.129 C 
ATOM     11  C   UNL     1      -2.610  -1.259   0.093  0.00  0.00    +0.204 C 
ATOM     12  C   UNL     1       1.139  -1.556   0.356  0.00  0.00    +0.149 C 
ATOM     13  C   UNL     1      -0.551  -3.323   0.577  0.00  0.00    +0.034 C 
ENDROOT
BRANCH   7  14
ATOM     14  N   UNL     1       2.896   0.094   0.161  0.00  0.00    -0.310 N 
ATOM     15  N   UNL     1       5.635   0.867  -0.027  0.00  0.00    +0.387 N 
ATOM     16  C   UNL     1       3.780  -0.565  -0.812  0.00  0.00    +0.069 C 
ATOM     17  C   UNL     1       5.238  -0.512  -0.332  0.00  0.00    -0.042 C 
ATOM     18  C   UNL     1       3.311   1.432   0.593  0.00  0.00    +0.068 C 
ATOM     19  C   UNL     1       4.778   1.424   1.018  0.00  0.00    -0.060 C 
ATOM     20  C   UNL     1       6.176  -1.078  -1.397  0.00  0.00    -0.022 C 
ATOM     21  H   UNL     1       5.549   1.435  -0.870  0.00  0.00    -0.084 HD
ATOM     22  H   UNL     1       6.601   0.869   0.300  0.00  0.00    -0.084 HD
ENDBRANCH   7  14
BRANCH   3  23
ATOM     23  C   UNL     1      -1.444   2.857  -0.572  0.00  0.00    +0.077 C 
ATOM     24  C   UNL     1      -2.050   3.938   0.260  0.00  0.00    +0.022 C 
ATOM     25  C   UNL     1      -0.593   3.606   0.400  0.00  0.00    +0.022 C 
ENDBRANCH   3  23
BRANCH  10  27
ATOM     26  O   UNL     1      -5.865   0.459   0.115  0.00  0.00    -0.245 OA
ATOM     27  C   UNL     1      -5.038  -0.378  -0.200  0.00  0.00    +0.342 C 
BRANCH  27  28
ATOM     28  O   UNL     1      -5.304  -1.626  -0.639  0.00  0.00    -0.477 OA
ATOM     29  H   UNL     1      -4.601  -2.205  -0.859  0.00  0.00    +0.295 HD
ENDBRANCH  27  28
ENDBRANCH  10  27
TORSDOF 4
