REMARK  Name = 6249
REMARK  6 active torsions:
REMARK  status: ('A' for Active; 'I' for Inactive)
REMARK    1  A    between atoms: N_2  and  CA_11
REMARK    2  A    between atoms: C_3  and  CA_19
REMARK    3  A    between atoms: CA_10  and  C_16
REMARK    4  A    between atoms: C_16  and  O_17
REMARK    5  A    between atoms: CA_19  and  C_20
REMARK    6  A    between atoms: CA_19  and  N_26
REMARK                            x       y       z     vdW  Elec       q    Type
REMARK                         _______ _______ _______ _____ _____    ______ ____
ROOT
ATOM      1  O   UNL     1       1.850  -2.015   1.626  0.00  0.00    -0.277 OA
ATOM      2  N   UNL     1       0.651  -1.783  -0.344  0.00  0.00    -0.298 N 
ATOM      3  C   UNL     1       1.820  -1.778   0.420  0.00  0.00    +0.206 C 
ATOM      4  H   UNL     1       0.717  -1.582  -1.306  0.00  0.00    +0.150 HD
ENDROOT
BRANCH   2  11
ATOM      5  S   UNL     1      -0.540   0.661   1.083  0.00  0.00    -0.118 S 
ATOM      6  O   UNL     1      -2.130  -2.194  -1.872  0.00  0.00    -0.273 OA
ATOM      7  N   UNL     1      -2.367  -0.879   0.073  0.00  0.00    -0.260 N 
ATOM      8  C   UNL     1      -1.324  -0.993   1.096  0.00  0.00    +0.151 C 
ATOM      9  C   UNL     1      -2.154   1.464   0.612  0.00  0.00    +0.068 C 
ATOM     10  CA  UNL     1      -2.808   0.439  -0.338  0.00  0.00    +0.184 C 
ATOM     11  CA  UNL     1      -0.674  -2.073   0.221  0.00  0.00    +0.178 C 
ATOM     12  C   UNL     1      -1.841  -1.826  -0.756  0.00  0.00    +0.247 C 
ATOM     13  C   UNL     1      -2.942   1.731   1.902  0.00  0.00    +0.013 C 
ATOM     14  C   UNL     1      -1.862   2.783  -0.105  0.00  0.00    +0.013 C 
BRANCH  10  16
ATOM     15  OXT UNL     1      -4.996  -0.512   0.032  0.00  0.00    -0.248 OA
ATOM     16  C   UNL     1      -4.303   0.426  -0.334  0.00  0.00    +0.333 C 
BRANCH  16  17
ATOM     17  O   UNL     1      -4.794   1.603  -0.795  0.00  0.00    -0.479 OA
ATOM     18  H   UNL     1      -4.207   2.283  -1.060  0.00  0.00    +0.295 HD
ENDBRANCH  16  17
ENDBRANCH  10  16
ENDBRANCH   2  11
BRANCH   3  19
ATOM     19  CA  UNL     1       3.062  -1.427  -0.393  0.00  0.00    +0.036 C 
BRANCH  19  20
ATOM     20  C   UNL     1       3.306   0.068  -0.387  0.00  0.00    -0.034 C 
ATOM     21  C   UNL     1       2.733   0.848  -1.375  0.00  0.00    -0.006 C 
ATOM     22  C   UNL     1       4.096   0.618   0.606  0.00  0.00    -0.006 C 
ATOM     23  C   UNL     1       2.958   2.225  -1.370  0.00  0.00    -0.000 C 
ATOM     24  C   UNL     1       4.320   1.995   0.612  0.00  0.00    -0.000 C 
ATOM     25  C   UNL     1       3.751   2.798  -0.377  0.00  0.00    -0.000 C 
ENDBRANCH  19  20
BRANCH  19  26
ATOM     26  N   UNL     1       4.189  -2.179   0.165  0.00  0.00    +0.390 N 
ATOM     27  H1  UNL     1       3.978  -3.177   0.140  0.00  0.00    -0.088 HD
ATOM     28  H2  UNL     1       4.346  -1.890   1.130  0.00  0.00    -0.088 HD
ATOM     29  H3  UNL     1       5.027  -1.995  -0.386  0.00  0.00    -0.088 HD
ENDBRANCH  19  26
ENDBRANCH   3  19
TORSDOF 6
