REMARK  Name = 56959
REMARK  10 active torsions:
REMARK  status: ('A' for Active; 'I' for Inactive)
REMARK    1  A    between atoms: N_1  and  C_9
REMARK    2  A    between atoms: N_2  and  C_23
REMARK    3  A    between atoms: C_9  and  C_10
REMARK    4  A    between atoms: C_10  and  O_11
REMARK    5  A    between atoms: C_10  and  C_13
REMARK    6  A    between atoms: C_13  and  O_14
REMARK    7  A    between atoms: O_14  and  C_15
REMARK    8  A    between atoms: C_16  and  O_21
REMARK    9  A    between atoms: C_23  and  C_26
REMARK   10  A    between atoms: N_25  and  C_28
REMARK                            x       y       z     vdW  Elec       q    Type
REMARK                         _______ _______ _______ _____ _____    ______ ____
ROOT
ATOM      1  N   UNL     1      -1.931   1.997  -0.285  0.00  0.00    +0.386 N 
ATOM      2  N   UNL     1       0.847   2.401   0.404  0.00  0.00    +0.390 N 
ATOM      3  C   UNL     1      -0.854   1.389  -1.076  0.00  0.00    -0.101 C 
ATOM      4  C   UNL     1      -1.473   3.249   0.329  0.00  0.00    -0.101 C 
ATOM      5  C   UNL     1       0.389   1.150  -0.211  0.00  0.00    -0.100 C 
ATOM      6  C   UNL     1      -0.231   3.009   1.194  0.00  0.00    -0.100 C 
ATOM      7  H   UNL     1      -2.188   1.349   0.460  0.00  0.00    -0.080 HD
ATOM      8  H   UNL     1       1.105   3.049  -0.340  0.00  0.00    -0.079 HD
ENDROOT
BRANCH   1   9
ATOM      9  C   UNL     1      -3.115   2.226  -1.110  0.00  0.00    -0.044 C 
BRANCH   9  10
ATOM     10  C   UNL     1      -4.391   2.327  -0.271  0.00  0.00    +0.133 C 
BRANCH  10  11
ATOM     11  O   UNL     1      -5.497   2.511  -1.160  0.00  0.00    -0.383 OA
ATOM     12  H   UNL     1      -5.344   3.297  -1.708  0.00  0.00    +0.210 HD
ENDBRANCH  10  11
BRANCH  10  13
ATOM     13  C   UNL     1      -4.654   1.087   0.581  0.00  0.00    +0.232 C 
BRANCH  13  14
ATOM     14  O   UNL     1      -4.816  -0.037  -0.280  0.00  0.00    -0.470 OA
BRANCH  14  15
ATOM     15  C   UNL     1      -4.422  -1.252   0.214  0.00  0.00    +0.172 C 
ATOM     16  C   UNL     1      -3.427  -1.989  -0.427  0.00  0.00    +0.172 C 
ATOM     17  C   UNL     1      -5.026  -1.751   1.368  0.00  0.00    +0.040 C 
ATOM     18  C   UNL     1      -3.035  -3.225   0.086  0.00  0.00    +0.040 C 
ATOM     19  C   UNL     1      -4.634  -2.988   1.881  0.00  0.00    +0.003 C 
ATOM     20  C   UNL     1      -3.639  -3.725   1.240  0.00  0.00    +0.003 C 
BRANCH  16  21
ATOM     21  O   UNL     1      -2.829  -1.511  -1.554  0.00  0.00    -0.468 OA
ATOM     22  C   UNL     1      -1.820  -2.326  -2.148  0.00  0.00    +0.253 C 
ENDBRANCH  16  21
ENDBRANCH  14  15
ENDBRANCH  13  14
ENDBRANCH  10  13
ENDBRANCH   9  10
ENDBRANCH   1   9
BRANCH   2  23
ATOM     23  C   UNL     1       2.030   2.170   1.231  0.00  0.00    +0.010 C 
BRANCH  23  26
ATOM     24  O   UNL     1       3.612   2.219  -0.591  0.00  0.00    -0.277 OA
ATOM     25  N   UNL     1       3.535   0.356   0.837  0.00  0.00    -0.286 N 
ATOM     26  C   UNL     1       3.148   1.610   0.368  0.00  0.00    +0.205 C 
ATOM     27  H   UNL     1       3.054   0.019   1.627  0.00  0.00    +0.155 HD
BRANCH  25  28
ATOM     28  C   UNL     1       4.540  -0.490   0.309  0.00  0.00    +0.042 C 
ATOM     29  C   UNL     1       5.861  -0.047   0.245  0.00  0.00    -0.009 C 
ATOM     30  C   UNL     1       4.209  -1.766  -0.145  0.00  0.00    -0.009 C 
ATOM     31  C   UNL     1       6.852  -0.881  -0.274  0.00  0.00    -0.003 C 
ATOM     32  C   UNL     1       5.200  -2.601  -0.663  0.00  0.00    -0.003 C 
ATOM     33  C   UNL     1       6.247   1.315   0.723  0.00  0.00    +0.032 C 
ATOM     34  C   UNL     1       2.803  -2.269  -0.088  0.00  0.00    +0.032 C 
ATOM     35  C   UNL     1       6.521  -2.158  -0.728  0.00  0.00    -0.001 C 
ENDBRANCH  25  28
ENDBRANCH  23  26
ENDBRANCH   2  23
TORSDOF 10
