REMARK  Name = 3948
REMARK  4 active torsions:
REMARK  status: ('A' for Active; 'I' for Inactive)
REMARK    1  A    between atoms: N_4  and  C_27
REMARK    2  A    between atoms: C_5  and  N_14
REMARK    3  A    between atoms: C_13  and  C_24
REMARK    4  A    between atoms: C_24  and  O_25
REMARK                            x       y       z     vdW  Elec       q    Type
REMARK                         _______ _______ _______ _____ _____    ______ ____
ROOT
ATOM      1  F   UNL     1       0.919  -1.971  -0.367  0.00  0.00    -0.201 F 
ATOM      2  F   UNL     1       1.909   2.534   0.602  0.00  0.00    -0.203 F 
ATOM      3  O   UNL     1      -3.109   2.397   0.381  0.00  0.00    -0.286 OA
ATOM      4  N   UNL     1      -1.909  -1.429  -0.363  0.00  0.00    -0.284 N 
ATOM      5  C   UNL     1       1.411   0.267   0.114  0.00  0.00    +0.105 C 
ATOM      6  C   UNL     1       0.462  -0.732  -0.128  0.00  0.00    +0.169 C 
ATOM      7  C   UNL     1      -0.916  -0.451  -0.123  0.00  0.00    +0.084 C 
ATOM      8  C   UNL     1       1.005   1.572   0.369  0.00  0.00    +0.156 C 
ATOM      9  C   UNL     1      -1.300   0.885   0.138  0.00  0.00    +0.057 C 
ATOM     10  C   UNL     1      -0.350   1.886   0.381  0.00  0.00    +0.035 C 
ATOM     11  C   UNL     1      -2.742   1.250   0.157  0.00  0.00    +0.204 C 
ATOM     12  C   UNL     1      -3.242  -1.062  -0.342  0.00  0.00    +0.075 C 
ATOM     13  C   UNL     1      -3.719   0.165  -0.107  0.00  0.00    +0.129 C 
ENDROOT
BRANCH   5  14
ATOM     14  N   UNL     1       2.774  -0.047   0.101  0.00  0.00    -0.308 N 
ATOM     15  N   UNL     1       5.582  -0.524   0.250  0.00  0.00    +0.387 N 
ATOM     16  C   UNL     1       5.043   0.369  -0.781  0.00  0.00    -0.042 C 
ATOM     17  C   UNL     1       3.720   0.997  -0.318  0.00  0.00    +0.070 C 
ATOM     18  C   UNL     1       3.301  -1.040   1.043  0.00  0.00    +0.068 C 
ATOM     19  C   UNL     1       4.633  -1.596   0.543  0.00  0.00    -0.060 C 
ATOM     20  C   UNL     1       6.073   1.453  -1.094  0.00  0.00    -0.022 C 
ATOM     21  H   UNL     1       5.757   0.012   1.100  0.00  0.00    -0.084 HD
ATOM     22  H   UNL     1       6.452  -0.935  -0.090  0.00  0.00    -0.084 HD
ENDBRANCH   5  14
BRANCH  13  24
ATOM     23  O   UNL     1      -5.988  -0.482   0.180  0.00  0.00    -0.245 OA
ATOM     24  C   UNL     1      -5.168   0.367  -0.124  0.00  0.00    +0.342 C 
BRANCH  24  25
ATOM     25  O   UNL     1      -5.447   1.625  -0.525  0.00  0.00    -0.477 OA
ATOM     26  H   UNL     1      -4.750   2.214  -0.740  0.00  0.00    +0.295 HD
ENDBRANCH  24  25
ENDBRANCH  13  24
BRANCH   4  27
ATOM     27  C   UNL     1      -1.519  -2.812  -0.633  0.00  0.00    +0.096 C 
ATOM     28  C   UNL     1      -1.425  -3.621   0.645  0.00  0.00    +0.024 C 
ENDBRANCH   4  27
TORSDOF 4
