REMARK  Name = 36811
REMARK  10 active torsions:
REMARK  status: ('A' for Active; 'I' for Inactive)
REMARK    1  A    between atoms: N_1  and  C_4
REMARK    2  A    between atoms: N_1  and  C_16
REMARK    3  A    between atoms: C_4  and  C_6
REMARK    4  A    between atoms: C_6  and  C_7
REMARK    5  A    between atoms: C_7  and  C_8
REMARK    6  A    between atoms: C_13  and  O_14
REMARK    7  A    between atoms: C_16  and  C_17
REMARK    8  A    between atoms: C_17  and  C_18
REMARK    9  A    between atoms: C_21  and  O_24
REMARK   10  A    between atoms: C_23  and  O_26
REMARK                            x       y       z     vdW  Elec       q    Type
REMARK                         _______ _______ _______ _____ _____    ______ ____
ROOT
ATOM      1  N   UNL     1       0.072   3.034   0.374  0.00  0.00    +0.385 N 
ATOM      2  H   UNL     1      -0.319   2.779   1.281  0.00  0.00    -0.084 HD
ATOM      3  H   UNL     1       0.613   3.895   0.452  0.00  0.00    -0.084 HD
ENDROOT
BRANCH   1   4
ATOM      4  C   UNL     1      -1.019   3.248  -0.577  0.00  0.00    -0.062 C 
ATOM      5  C   UNL     1      -1.931   4.363  -0.065  0.00  0.00    -0.023 C 
BRANCH   4   6
ATOM      6  C   UNL     1      -1.822   1.952  -0.792  0.00  0.00    -0.017 C 
BRANCH   6   7
ATOM      7  C   UNL     1      -2.448   1.359   0.479  0.00  0.00    +0.024 C 
BRANCH   7   8
ATOM      8  C   UNL     1      -3.173   0.056   0.252  0.00  0.00    -0.022 C 
ATOM      9  C   UNL     1      -4.521   0.074  -0.070  0.00  0.00    -0.001 C 
ATOM     10  C   UNL     1      -2.478  -1.138   0.369  0.00  0.00    -0.001 C 
ATOM     11  C   UNL     1      -5.191  -1.131  -0.279  0.00  0.00    +0.036 C 
ATOM     12  C   UNL     1      -3.148  -2.344   0.160  0.00  0.00    +0.036 C 
ATOM     13  C   UNL     1      -4.505  -2.340  -0.165  0.00  0.00    +0.134 C 
BRANCH  13  14
ATOM     14  O   UNL     1      -5.160  -3.515  -0.370  0.00  0.00    -0.506 OA
ATOM     15  H   UNL     1      -6.071  -3.512  -0.588  0.00  0.00    +0.292 HD
ENDBRANCH  13  14
ENDBRANCH   7   8
ENDBRANCH   6   7
ENDBRANCH   4   6
ENDBRANCH   1   4
BRANCH   1  16
ATOM     16  C   UNL     1       0.952   1.970  -0.083  0.00  0.00    -0.077 C 
BRANCH  16  17
ATOM     17  C   UNL     1       2.094   1.740   0.908  0.00  0.00    +0.003 C 
BRANCH  17  18
ATOM     18  C   UNL     1       3.026   0.653   0.434  0.00  0.00    -0.021 C 
ATOM     19  C   UNL     1       2.780  -0.662   0.799  0.00  0.00    +0.035 C 
ATOM     20  C   UNL     1       4.115   0.987  -0.356  0.00  0.00    -0.001 C 
ATOM     21  C   UNL     1       3.643  -1.667   0.361  0.00  0.00    +0.167 C 
ATOM     22  C   UNL     1       4.978  -0.017  -0.793  0.00  0.00    +0.039 C 
ATOM     23  C   UNL     1       4.742  -1.345  -0.434  0.00  0.00    +0.167 C 
BRANCH  21  24
ATOM     24  O   UNL     1       3.401  -2.959   0.718  0.00  0.00    -0.503 OA
ATOM     25  H   UNL     1       2.661  -3.167   1.253  0.00  0.00    +0.292 HD
ENDBRANCH  21  24
BRANCH  23  26
ATOM     26  O   UNL     1       5.592  -2.317  -0.868  0.00  0.00    -0.503 OA
ATOM     27  H   UNL     1       5.441  -3.211  -0.631  0.00  0.00    +0.292 HD
ENDBRANCH  23  26
ENDBRANCH  17  18
ENDBRANCH  16  17
ENDBRANCH   1  16
TORSDOF 10
