REMARK  Name = 5320
REMARK  3 active torsions:
REMARK  status: ('A' for Active; 'I' for Inactive)
REMARK    1  A    between atoms: C_1  and  S_7
REMARK    2  A    between atoms: C_4  and  N_15
REMARK    3  A    between atoms: S_7  and  N_11
REMARK                            x       y       z     vdW  Elec       q    Type
REMARK                         _______ _______ _______ _____ _____    ______ ____
ROOT
ATOM      1  C   UNL     1      -0.431  -0.585  -0.117  0.00  0.00    +0.125 C 
ATOM      2  C   UNL     1      -1.282  -0.989   0.912  0.00  0.00    +0.021 C 
ATOM      3  C   UNL     1      -0.857   0.370  -1.040  0.00  0.00    +0.021 C 
ATOM      4  C   UNL     1      -2.985   0.517   0.095  0.00  0.00    +0.042 C 
ATOM      5  C   UNL     1      -2.559  -0.438   1.018  0.00  0.00    +0.015 C 
ATOM      6  C   UNL     1      -2.134   0.921  -0.934  0.00  0.00    +0.015 C 
ENDROOT
BRANCH   1   7
ATOM      7  S   UNL     1       1.167  -1.275  -0.248  0.00  0.00    +0.076 S 
ATOM      8  O   UNL     1       1.171  -2.585   0.389  0.00  0.00    -0.150 OA
ATOM      9  O   UNL     1       1.589  -1.151  -1.637  0.00  0.00    -0.150 OA
BRANCH   7  11
ATOM     10  O   UNL     1       2.430   1.511  -0.874  0.00  0.00    -0.274 OA
ATOM     11  N   UNL     1       2.094  -0.193   0.706  0.00  0.00    -0.185 N 
ATOM     12  C   UNL     1       2.623   1.054   0.248  0.00  0.00    +0.241 C 
ATOM     13  C   UNL     1       3.450   1.766   1.280  0.00  0.00    +0.096 C 
ATOM     14  H   UNL     1       2.275  -0.450   1.639  0.00  0.00    +0.177 HD
ENDBRANCH   7  11
ENDBRANCH   1   7
BRANCH   4  15
ATOM     15  N   UNL     1      -4.276   1.075   0.202  0.00  0.00    -0.357 N 
ATOM     16  H   UNL     1      -4.877   0.790   0.928  0.00  0.00    +0.142 HD
ATOM     17  H   UNL     1      -4.576   1.750  -0.449  0.00  0.00    +0.142 HD
ENDBRANCH   4  15
TORSDOF 3
