REMARK  Name = 4649
REMARK  4 active torsions:
REMARK  status: ('A' for Active; 'I' for Inactive)
REMARK    1  A    between atoms: C_1  and  C_13
REMARK    2  A    between atoms: C_2  and  O_10
REMARK    3  A    between atoms: C_3  and  N_7
REMARK    4  A    between atoms: C_13  and  O_14
REMARK                            x       y       z     vdW  Elec       q    Type
REMARK                         _______ _______ _______ _____ _____    ______ ____
ROOT
ATOM      1  C   UNL     1       0.631   0.208   0.033  0.00  0.00    +0.109 C 
ATOM      2  C   UNL     1      -0.030  -1.015  -0.082  0.00  0.00    +0.141 C 
ATOM      3  C   UNL     1      -2.158   0.124   0.014  0.00  0.00    +0.045 C 
ATOM      4  C   UNL     1      -1.424  -1.057  -0.092  0.00  0.00    +0.051 C 
ATOM      5  C   UNL     1      -0.103   1.389   0.138  0.00  0.00    +0.011 C 
ATOM      6  C   UNL     1      -1.497   1.348   0.128  0.00  0.00    +0.014 C 
ENDROOT
BRANCH   3   7
ATOM      7  N   UNL     1      -3.567   0.082   0.004  0.00  0.00    -0.357 N 
ATOM      8  H   UNL     1      -4.034  -0.781  -0.077  0.00  0.00    +0.142 HD
ATOM      9  H   UNL     1      -4.085   0.916   0.078  0.00  0.00    +0.142 HD
ENDBRANCH   3   7
BRANCH   2  10
ATOM     10  O   UNL     1       0.670  -2.180  -0.187  0.00  0.00    -0.505 OA
ATOM     11  H   UNL     1       1.607  -2.166  -0.182  0.00  0.00    +0.292 HD
ENDBRANCH   2  10
BRANCH   1  13
ATOM     12  O   UNL     1       2.836  -0.609   0.474  0.00  0.00    -0.245 OA
ATOM     13  C   UNL     1       2.086   0.273   0.046  0.00  0.00    +0.341 C 
BRANCH  13  14
ATOM     14  O   UNL     1       2.557   1.437  -0.477  0.00  0.00    -0.477 OA
ATOM     15  H   UNL     1       1.959   2.085  -0.793  0.00  0.00    +0.295 HD
ENDBRANCH  13  14
ENDBRANCH   1  13
TORSDOF 4
