REMARK  Name = 14052
REMARK  11 active torsions:
REMARK  status: ('A' for Active; 'I' for Inactive)
REMARK    1  A    between atoms: C_1  and  N_2
REMARK    2  A    between atoms: C_1  and  C_11
REMARK    3  A    between atoms: N_2  and  CA_5
REMARK    4  A    between atoms: CA_5  and  C_6
REMARK    5  A    between atoms: CA_5  and  C_8
REMARK    6  A    between atoms: C_8  and  O_9
REMARK    7  A    between atoms: C_11  and  N_12
REMARK    8  A    between atoms: N_12  and  CA_15
REMARK    9  A    between atoms: CA_15  and  C_16
REMARK   10  A    between atoms: CA_15  and  C_18
REMARK   11  A    between atoms: C_18  and  O_19
REMARK                            x       y       z     vdW  Elec       q    Type
REMARK                         _______ _______ _______ _____ _____    ______ ____
ROOT
ATOM      1  C   UNL     1       0.658   0.529   0.381  0.00  0.00    -0.105 C 
ENDROOT
BRANCH   1   2
ATOM      2  N   UNL     1       1.780   0.523  -0.544  0.00  0.00    +0.385 N 
ATOM      3  H1  UNL     1       1.726  -0.310  -1.130  0.00  0.00    -0.084 HD
ATOM      4  H2  UNL     1       1.736   1.364  -1.118  0.00  0.00    -0.084 HD
BRANCH   2   5
ATOM      5  CA  UNL     1       3.050   0.516   0.183  0.00  0.00    -0.032 C 
BRANCH   5   6
ATOM      6  C   UNL     1       3.164  -0.723   1.092  0.00  0.00    -0.019 C 
ATOM      7  C   UNL     1       3.104  -2.044   0.335  0.00  0.00    -0.002 C 
ENDBRANCH   5   6
BRANCH   5   8
ATOM      8  C   UNL     1       4.196   0.567  -0.833  0.00  0.00    +0.116 C 
BRANCH   8   9
ATOM      9  O   UNL     1       5.443   0.630  -0.150  0.00  0.00    -0.384 OA
ATOM     10  H   UNL     1       6.165   0.662  -0.797  0.00  0.00    +0.210 HD
ENDBRANCH   8   9
ENDBRANCH   5   8
ENDBRANCH   2   5
ENDBRANCH   1   2
BRANCH   1  11
ATOM     11  C   UNL     1      -0.659   0.534  -0.389  0.00  0.00    -0.105 C 
BRANCH  11  12
ATOM     12  N   UNL     1      -1.784   0.522   0.538  0.00  0.00    +0.385 N 
ATOM     13  H1  UNL     1      -1.728  -0.312   1.122  0.00  0.00    -0.084 HD
ATOM     14  H2  UNL     1      -1.741   1.363   1.115  0.00  0.00    -0.084 HD
BRANCH  12  15
ATOM     15  CA  UNL     1      -3.050   0.516  -0.181  0.00  0.00    -0.032 C 
BRANCH  15  16
ATOM     16  C   UNL     1      -3.166  -0.721  -1.091  0.00  0.00    -0.019 C 
ATOM     17  C   UNL     1      -3.103  -2.043  -0.337  0.00  0.00    -0.002 C 
ENDBRANCH  15  16
BRANCH  15  18
ATOM     18  C   UNL     1      -4.193   0.565   0.838  0.00  0.00    +0.116 C 
BRANCH  18  19
ATOM     19  O   UNL     1      -5.441   0.629   0.159  0.00  0.00    -0.384 OA
ATOM     20  H   UNL     1      -6.162   0.659   0.808  0.00  0.00    +0.210 HD
ENDBRANCH  18  19
ENDBRANCH  15  18
ENDBRANCH  12  15
ENDBRANCH  11  12
ENDBRANCH   1  11
TORSDOF 11
