REMARK  Name = 657298
REMARK  2 active torsions:
REMARK  status: ('A' for Active; 'I' for Inactive)
REMARK    1  A    between atoms: C_5  and  C_11
REMARK    2  A    between atoms: C_11  and  C_12
REMARK                            x       y       z     vdW  Elec       q    Type
REMARK                         _______ _______ _______ _____ _____    ______ ____
ROOT
ATOM      1  S   UNL     1       2.264  -2.632   0.170  0.00  0.00    -0.018 S 
ATOM      2  O   UNL     1       2.139   2.353   0.210  0.00  0.00    -0.270 OA
ATOM      3  N   UNL     1       0.124  -1.091  -0.251  0.00  0.00    -0.299 N 
ATOM      4  N   UNL     1       2.129   0.040   0.179  0.00  0.00    -0.264 N 
ATOM      5  C   UNL     1      -0.551   0.102  -0.374  0.00  0.00    +0.031 C 
ATOM      6  C   UNL     1       0.086   1.272  -0.226  0.00  0.00    +0.068 C 
ATOM      7  C   UNL     1       1.471  -1.169   0.026  0.00  0.00    +0.141 C 
ATOM      8  C   UNL     1       1.539   1.291   0.074  0.00  0.00    +0.252 C 
ATOM      9  H   UNL     1      -0.380  -1.929  -0.367  0.00  0.00    +0.154 HD
ATOM     10  H   UNL     1       3.093   0.009   0.379  0.00  0.00    +0.157 HD
ENDROOT
BRANCH   5  11
ATOM     11  C   UNL     1      -2.013   0.006  -0.678  0.00  0.00    +0.041 C 
BRANCH  11  12
ATOM     12  C   UNL     1      -2.852  -0.050   0.595  0.00  0.00    +0.006 C 
ATOM     13  C   UNL     1      -4.337  -0.122   0.275  0.00  0.00    +0.000 C 
ENDBRANCH  11  12
ENDBRANCH   5  11
TORSDOF 2
