REMARK  Name = 60613
REMARK  9 active torsions:
REMARK  status: ('A' for Active; 'I' for Inactive)
REMARK    1  A    between atoms: C_1  and  O_2
REMARK    2  A    between atoms: C_1  and  C_10
REMARK    3  A    between atoms: C_1  and  C_21
REMARK    4  A    between atoms: O_2  and  C_3
REMARK    5  A    between atoms: C_3  and  P_4
REMARK    6  A    between atoms: P_4  and  O_6
REMARK    7  A    between atoms: P_4  and  O_8
REMARK    8  A    between atoms: C_10  and  N_12
REMARK    9  A    between atoms: C_21  and  O_22
REMARK                            x       y       z     vdW  Elec       q    Type
REMARK                         _______ _______ _______ _____ _____    ______ ____
ROOT
ATOM      1  C   UNL     1       0.805   1.615  -0.232  0.00  0.00    +0.166 C 
ENDROOT
BRANCH   1   2
ATOM      2  O   UNL     1       1.318   0.309   0.034  0.00  0.00    -0.340 OA
BRANCH   2   3
ATOM      3  C   UNL     1       2.513   0.068  -0.691  0.00  0.00    +0.258 C 
BRANCH   3   4
ATOM      4  P   UNL     1       2.970  -1.598  -0.259  0.00  0.00    +0.367 P 
ATOM      5  O   UNL     1       1.941  -2.638  -0.587  0.00  0.00    -0.256 OA
BRANCH   4   6
ATOM      6  O   UNL     1       3.369  -1.492   1.303  0.00  0.00    -0.322 OA
ATOM      7  H   UNL     1       3.636  -2.366   1.629  0.00  0.00    +0.220 HD
ENDBRANCH   4   6
BRANCH   4   8
ATOM      8  O   UNL     1       4.396  -1.792  -0.995  0.00  0.00    -0.322 OA
ATOM      9  H   UNL     1       4.734  -2.684  -0.817  0.00  0.00    +0.220 HD
ENDBRANCH   4   8
ENDBRANCH   3   4
ENDBRANCH   2   3
ENDBRANCH   1   2
BRANCH   1  10
ATOM     10  C   UNL     1      -0.479   1.832   0.566  0.00  0.00    +0.141 C 
BRANCH  10  12
ATOM     11  O   UNL     1      -0.815  -0.626   1.902  0.00  0.00    -0.193 OA
ATOM     12  N   UNL     1      -1.508   0.843   0.265  0.00  0.00    -0.202 N 
ATOM     13  N   UNL     1      -2.601  -1.252   0.649  0.00  0.00    -0.306 NA
ATOM     14  N   UNL     1      -4.429  -1.888  -0.640  0.00  0.00    -0.332 N 
ATOM     15  C   UNL     1      -2.391   1.122  -0.753  0.00  0.00    +0.081 C 
ATOM     16  C   UNL     1      -1.598  -0.359   0.989  0.00  0.00    +0.274 C 
ATOM     17  C   UNL     1      -3.361   0.277  -1.095  0.00  0.00    +0.065 C 
ATOM     18  C   UNL     1      -3.440  -0.987  -0.318  0.00  0.00    +0.193 C 
ATOM     19  H   UNL     1      -4.506  -2.734  -0.142  0.00  0.00    +0.145 HD
ATOM     20  H   UNL     1      -5.060  -1.686  -1.368  0.00  0.00    +0.145 HD
ENDBRANCH  10  12
ENDBRANCH   1  10
BRANCH   1  21
ATOM     21  C   UNL     1       1.893   2.633   0.093  0.00  0.00    +0.168 C 
BRANCH  21  22
ATOM     22  O   UNL     1       1.417   3.935  -0.231  0.00  0.00    -0.379 OA
ATOM     23  H   UNL     1       2.103   4.590  -0.028  0.00  0.00    +0.211 HD
ENDBRANCH  21  22
ENDBRANCH   1  21
TORSDOF 9
