REMARK  Name = 2369
REMARK  12 active torsions:
REMARK  status: ('A' for Active; 'I' for Inactive)
REMARK    1  A    between atoms: C_1  and  C_19
REMARK    2  A    between atoms: C_4  and  O_7
REMARK    3  A    between atoms: O_7  and  C_8
REMARK    4  A    between atoms: C_8  and  C_9
REMARK    5  A    between atoms: C_9  and  O_10
REMARK    6  A    between atoms: C_9  and  C_12
REMARK    7  A    between atoms: C_12  and  N_13
REMARK    8  A    between atoms: N_13  and  C_16
REMARK    9  A    between atoms: C_19  and  C_20
REMARK   10  A    between atoms: C_20  and  O_21
REMARK   11  A    between atoms: O_21  and  C_22
REMARK   12  A    between atoms: C_22  and  C_23
REMARK                            x       y       z     vdW  Elec       q    Type
REMARK                         _______ _______ _______ _____ _____    ______ ____
ROOT
ATOM      1  C   UNL     1      -1.703   2.183  -0.456  0.00  0.00    -0.019 C 
ATOM      2  C   UNL     1      -0.768   2.222  -1.490  0.00  0.00    -0.001 C 
ATOM      3  C   UNL     1      -1.284   1.965   0.856  0.00  0.00    -0.001 C 
ATOM      4  C   UNL     1       0.999   1.827   0.099  0.00  0.00    +0.139 C 
ATOM      5  C   UNL     1       0.587   2.044  -1.212  0.00  0.00    +0.037 C 
ATOM      6  C   UNL     1       0.072   1.787   1.135  0.00  0.00    +0.037 C 
ENDROOT
BRANCH   4   7
ATOM      7  O   UNL     1       2.329   1.652   0.372  0.00  0.00    -0.473 OA
BRANCH   7   8
ATOM      8  C   UNL     1       2.650   0.826   1.488  0.00  0.00    +0.232 C 
BRANCH   8   9
ATOM      9  C   UNL     1       3.984   0.133   1.221  0.00  0.00    +0.133 C 
BRANCH   9  10
ATOM     10  O   UNL     1       4.984   1.135   1.016  0.00  0.00    -0.383 OA
ATOM     11  H   UNL     1       5.839   0.709   0.845  0.00  0.00    +0.210 HD
ENDBRANCH   9  10
BRANCH   9  12
ATOM     12  C   UNL     1       3.960  -0.777  -0.010  0.00  0.00    -0.048 C 
BRANCH  12  13
ATOM     13  N   UNL     1       2.939  -1.810   0.094  0.00  0.00    +0.387 N 
ATOM     14  H   UNL     1       2.029  -1.369   0.228  0.00  0.00    -0.084 HD
ATOM     15  H   UNL     1       3.164  -2.412   0.886  0.00  0.00    -0.084 HD
BRANCH  13  16
ATOM     16  C   UNL     1       2.899  -2.626  -1.113  0.00  0.00    -0.062 C 
ATOM     17  C   UNL     1       1.855  -3.726  -0.948  0.00  0.00    -0.023 C 
ATOM     18  C   UNL     1       2.592  -1.756  -2.329  0.00  0.00    -0.023 C 
ENDBRANCH  13  16
ENDBRANCH  12  13
ENDBRANCH   9  12
ENDBRANCH   8   9
ENDBRANCH   7   8
ENDBRANCH   4   7
BRANCH   1  19
ATOM     19  C   UNL     1      -3.152   2.374  -0.753  0.00  0.00    +0.058 C 
BRANCH  19  20
ATOM     20  C   UNL     1      -3.878   1.061  -1.057  0.00  0.00    +0.147 C 
BRANCH  20  21
ATOM     21  O   UNL     1      -3.751   0.179   0.051  0.00  0.00    -0.353 OA
BRANCH  21  22
ATOM     22  C   UNL     1      -4.412  -1.056  -0.187  0.00  0.00    +0.142 C 
BRANCH  22  23
ATOM     23  C   UNL     1      -4.250  -1.944   0.999  0.00  0.00    +0.030 C 
ATOM     24  C   UNL     1      -3.782  -3.352   0.795  0.00  0.00    +0.003 C 
ATOM     25  C   UNL     1      -2.871  -2.341   1.427  0.00  0.00    +0.003 C 
ENDBRANCH  22  23
ENDBRANCH  21  22
ENDBRANCH  20  21
ENDBRANCH  19  20
ENDBRANCH   1  19
TORSDOF 12
