REMARK  Name = 3337
REMARK  5 active torsions:
REMARK  status: ('A' for Active; 'I' for Inactive)
REMARK    1  A    between atoms: C_1  and  C_11
REMARK    2  A    between atoms: C_4  and  C_10
REMARK    3  A    between atoms: C_11  and  C_12
REMARK    4  A    between atoms: C_12  and  N_14
REMARK    5  A    between atoms: N_14  and  C_17
REMARK                            x       y       z     vdW  Elec       q    Type
REMARK                         _______ _______ _______ _____ _____    ______ ____
ROOT
ATOM      1  C   UNL     1       0.114   0.887  -0.451  0.00  0.00    -0.024 C 
ATOM      2  C   UNL     1      -0.831  -0.127  -0.474  0.00  0.00    -0.000 C 
ATOM      3  C   UNL     1      -0.196   2.149   0.031  0.00  0.00    -0.004 C 
ATOM      4  C   UNL     1      -2.119   0.128  -0.003  0.00  0.00    +0.071 C 
ATOM      5  C   UNL     1      -1.484   2.404   0.503  0.00  0.00    -0.000 C 
ATOM      6  C   UNL     1      -2.445   1.393   0.486  0.00  0.00    +0.004 C 
ENDROOT
BRANCH   4  10
ATOM      7  F   UNL     1      -4.361  -0.561   0.468  0.00  0.00    -0.166 F 
ATOM      8  F   UNL     1      -3.407  -1.437  -1.271  0.00  0.00    -0.166 F 
ATOM      9  F   UNL     1      -2.784  -2.036   0.724  0.00  0.00    -0.166 F 
ATOM     10  C   UNL     1      -3.147  -0.952  -0.021  0.00  0.00    +0.419 C 
ENDBRANCH   4  10
BRANCH   1  11
ATOM     11  C   UNL     1       1.508   0.612  -0.961  0.00  0.00    +0.005 C 
BRANCH  11  12
ATOM     12  C   UNL     1       2.472   0.102   0.126  0.00  0.00    -0.058 C 
ATOM     13  C   UNL     1       2.014  -1.220   0.742  0.00  0.00    -0.023 C 
BRANCH  12  14
ATOM     14  N   UNL     1       3.803  -0.097  -0.455  0.00  0.00    +0.385 N 
ATOM     15  H   UNL     1       4.124   0.779  -0.867  0.00  0.00    -0.084 HD
ATOM     16  H   UNL     1       3.745  -0.823  -1.170  0.00  0.00    -0.084 HD
BRANCH  14  17
ATOM     17  C   UNL     1       4.748  -0.520   0.565  0.00  0.00    -0.082 C 
ATOM     18  C   UNL     1       6.112  -0.725  -0.010  0.00  0.00    -0.026 C 
ENDBRANCH  14  17
ENDBRANCH  12  14
ENDBRANCH  11  12
ENDBRANCH   1  11
TORSDOF 5
