REMARK  Name = 4906
REMARK  5 active torsions:
REMARK  status: ('A' for Active; 'I' for Inactive)
REMARK    1  A    between atoms: N_2  and  C_5
REMARK    2  A    between atoms: C_3  and  C_12
REMARK    3  A    between atoms: C_12  and  N_14
REMARK    4  A    between atoms: N_14  and  C_17
REMARK    5  A    between atoms: C_17  and  C_18
REMARK                            x       y       z     vdW  Elec       q    Type
REMARK                         _______ _______ _______ _____ _____    ______ ____
ROOT
ATOM      1  O   UNL     1      -0.743   1.220  -1.501  0.00  0.00    -0.277 OA
ATOM      2  N   UNL     1       0.273   0.569   0.513  0.00  0.00    -0.286 N 
ATOM      3  C   UNL     1      -0.759   1.059  -0.283  0.00  0.00    +0.206 C 
ATOM      4  H   UNL     1       0.089   0.516   1.479  0.00  0.00    +0.155 HD
ENDROOT
BRANCH   2   5
ATOM      5  C   UNL     1       1.555   0.138   0.096  0.00  0.00    +0.046 C 
ATOM      6  C   UNL     1       2.472  -0.325   1.026  0.00  0.00    -0.008 C 
ATOM      7  C   UNL     1       1.864   0.192  -1.254  0.00  0.00    +0.014 C 
ATOM      8  C   UNL     1       3.730  -0.745   0.596  0.00  0.00    -0.003 C 
ATOM      9  C   UNL     1       2.151  -0.388   2.485  0.00  0.00    +0.032 C 
ATOM     10  C   UNL     1       3.123  -0.228  -1.685  0.00  0.00    +0.001 C 
ATOM     11  C   UNL     1       4.056  -0.696  -0.760  0.00  0.00    -0.000 C 
ENDBRANCH   2   5
BRANCH   3  12
ATOM     12  C   UNL     1      -1.985   1.415   0.555  0.00  0.00    +0.017 C 
ATOM     13  C   UNL     1      -2.357   2.886   0.416  0.00  0.00    -0.014 C 
BRANCH  12  14
ATOM     14  N   UNL     1      -3.084   0.584   0.067  0.00  0.00    +0.391 N 
ATOM     15  H   UNL     1      -3.251   0.796  -0.917  0.00  0.00    -0.084 HD
ATOM     16  H   UNL     1      -3.916   0.786   0.621  0.00  0.00    -0.084 HD
BRANCH  14  17
ATOM     17  C   UNL     1      -2.764  -0.828   0.204  0.00  0.00    -0.081 C 
BRANCH  17  18
ATOM     18  C   UNL     1      -3.917  -1.685  -0.313  0.00  0.00    -0.023 C 
ATOM     19  C   UNL     1      -3.616  -3.168  -0.162  0.00  0.00    -0.002 C 
ENDBRANCH  17  18
ENDBRANCH  14  17
ENDBRANCH  12  14
ENDBRANCH   3  12
TORSDOF 5
