REMARK  Name = 77992
REMARK  2 active torsions:
REMARK  status: ('A' for Active; 'I' for Inactive)
REMARK    1  A    between atoms: C_2  and  N_20
REMARK    2  A    between atoms: C_12  and  C_17
REMARK                            x       y       z     vdW  Elec       q    Type
REMARK                         _______ _______ _______ _____ _____    ______ ____
ROOT
ATOM      1  N   UNL     1       0.416   2.349  -0.102  0.00  0.00    -0.357 N 
ATOM      2  C   UNL     1       3.353  -0.607  -0.210  0.00  0.00    -0.057 C 
ATOM      3  C   UNL     1       1.901  -0.976   0.183  0.00  0.00    +0.006 C 
ATOM      4  C   UNL     1       3.794   0.734   0.426  0.00  0.00    -0.015 C 
ATOM      5  C   UNL     1       0.998   0.205   0.061  0.00  0.00    -0.011 A 
ATOM      6  C   UNL     1       2.905   1.908  -0.028  0.00  0.00    +0.041 C 
ATOM      7  C   UNL     1       1.478   1.496  -0.012  0.00  0.00    +0.029 A 
ATOM      8  C   UNL     1      -0.423   0.277   0.023  0.00  0.00    +0.013 A 
ATOM      9  C   UNL     1      -0.761   1.631  -0.081  0.00  0.00    +0.056 A 
ATOM     10  C   UNL     1      -1.460  -0.677   0.069  0.00  0.00    +0.006 C 
ATOM     11  C   UNL     1      -2.087   2.074  -0.144  0.00  0.00    +0.017 C 
ATOM     12  C   UNL     1      -2.790  -0.246   0.007  0.00  0.00    +0.053 C 
ATOM     13  C   UNL     1      -3.096   1.109  -0.099  0.00  0.00    +0.006 C 
ATOM     14  H   UNL     1       0.480   3.329  -0.171  0.00  0.00    +0.166 HD
ENDROOT
BRANCH  12  17
ATOM     15  O   UNL     1      -5.056  -0.885  -0.018  0.00  0.00    -0.270 OA
ATOM     16  N   UNL     1      -3.510  -2.569   0.158  0.00  0.00    -0.325 N 
ATOM     17  C   UNL     1      -3.863  -1.227   0.052  0.00  0.00    +0.243 C 
ATOM     18  H   UNL     1      -4.209  -3.261   0.191  0.00  0.00    +0.145 HD
ATOM     19  H   UNL     1      -2.560  -2.826   0.199  0.00  0.00    +0.145 HD
ENDBRANCH  12  17
BRANCH   2  20
ATOM     20  N   UNL     1       4.271  -1.673   0.188  0.00  0.00    +0.384 N 
ATOM     21  C   UNL     1       3.928  -2.922  -0.474  0.00  0.00    -0.106 C 
ATOM     22  H   UNL     1       4.216  -1.803   1.198  0.00  0.00    -0.085 HD
ATOM     23  H   UNL     1       5.218  -1.408  -0.083  0.00  0.00    -0.085 HD
ENDBRANCH   2  20
TORSDOF 2
