REMARK  Name = 5282443
REMARK  4 active torsions:
REMARK  status: ('A' for Active; 'I' for Inactive)
REMARK    1  A    between atoms: C_1  and  C_16
REMARK    2  A    between atoms: C_2  and  C_3
REMARK    3  A    between atoms: C_2  and  C_11
REMARK    4  A    between atoms: C_16  and  N_17
REMARK                            x       y       z     vdW  Elec       q    Type
REMARK                         _______ _______ _______ _____ _____    ______ ____
ROOT
ATOM      1  C   UNL     1      -0.284   1.169   0.932  0.00  0.00    -0.048 C 
ATOM      2  C   UNL     1       0.698   0.391   0.425  0.00  0.00    +0.011 C 
ENDROOT
BRANCH   2   3
ATOM      3  C   UNL     1       0.385  -1.042   0.183  0.00  0.00    +0.001 C 
ATOM      4  C   UNL     1       0.614  -1.952   1.194  0.00  0.00    -0.000 C 
ATOM      5  C   UNL     1      -0.124  -1.415  -1.043  0.00  0.00    -0.000 C 
ATOM      6  C   UNL     1      -0.195  -3.701  -0.264  0.00  0.00    -0.022 C 
ATOM      7  C   UNL     1       0.321  -3.297   0.968  0.00  0.00    -0.004 C 
ATOM      8  C   UNL     1      -0.417  -2.760  -1.269  0.00  0.00    -0.004 C 
ATOM      9  C   UNL     1      -0.509  -5.138  -0.505  0.00  0.00    +0.031 C 
ENDBRANCH   2   3
BRANCH   2  11
ATOM     10  N   UNL     1       2.021   2.261  -0.220  0.00  0.00    -0.244 NA
ATOM     11  C   UNL     1       2.028   0.965   0.124  0.00  0.00    +0.081 C 
ATOM     12  C   UNL     1       3.137   0.161   0.213  0.00  0.00    +0.019 C 
ATOM     13  C   UNL     1       4.364   0.744  -0.080  0.00  0.00    +0.003 C 
ATOM     14  C   UNL     1       3.233   2.793  -0.498  0.00  0.00    +0.099 C 
ATOM     15  C   UNL     1       4.422   2.085  -0.443  0.00  0.00    +0.021 C 
ENDBRANCH   2  11
BRANCH   1  16
ATOM     16  C   UNL     1      -1.689   0.769   1.295  0.00  0.00    -0.050 C 
BRANCH  16  17
ATOM     17  N   UNL     1      -2.667   1.565   0.569  0.00  0.00    +0.390 N 
ATOM     18  C   UNL     1      -4.043   1.198   0.902  0.00  0.00    -0.077 C 
ATOM     19  C   UNL     1      -2.567   1.387  -0.880  0.00  0.00    -0.077 C 
ATOM     20  C   UNL     1      -4.848   1.847  -0.215  0.00  0.00    -0.025 C 
ATOM     21  C   UNL     1      -3.879   1.968  -1.387  0.00  0.00    -0.025 C 
ATOM     22  H   UNL     1      -2.458   2.525   0.843  0.00  0.00    -0.079 HD
ENDBRANCH  16  17
ENDBRANCH   1  16
TORSDOF 4
