REMARK  Name = 5328
REMARK  3 active torsions:
REMARK  status: ('A' for Active; 'I' for Inactive)
REMARK    1  A    between atoms: S_1  and  N_5
REMARK    2  A    between atoms: S_1  and  C_12
REMARK    3  A    between atoms: C_15  and  N_18
REMARK                            x       y       z     vdW  Elec       q    Type
REMARK                         _______ _______ _______ _____ _____    ______ ____
ROOT
ATOM      1  S   UNL     1       0.428   2.217   0.115  0.00  0.00    +0.075 S 
ATOM      2  O   UNL     1       1.194   3.189  -0.656  0.00  0.00    -0.150 OA
ATOM      3  O   UNL     1       0.094   2.525   1.500  0.00  0.00    -0.150 OA
ENDROOT
BRANCH   1   5
ATOM      4  S   UNL     1      -2.573  -0.333  -1.485  0.00  0.00    -0.034 S 
ATOM      5  N   UNL     1      -1.012   1.856  -0.759  0.00  0.00    -0.192 N 
ATOM      6  N   UNL     1      -1.930   0.337   0.903  0.00  0.00    -0.124 NA
ATOM      7  N   UNL     1      -2.704  -0.803   1.030  0.00  0.00    -0.144 NA
ATOM      8  C   UNL     1      -1.775   0.703  -0.361  0.00  0.00    +0.201 A 
ATOM      9  C   UNL     1      -3.104  -1.254  -0.139  0.00  0.00    +0.113 A 
ATOM     10  C   UNL     1      -3.941  -2.452  -0.351  0.00  0.00    +0.061 C 
ATOM     11  H   UNL     1      -1.305   2.422  -1.509  0.00  0.00    +0.176 HD
ENDBRANCH   1   5
BRANCH   1  12
ATOM     12  C   UNL     1       1.296   0.702   0.073  0.00  0.00    +0.125 C 
ATOM     13  C   UNL     1       2.182   0.435  -0.972  0.00  0.00    +0.021 C 
ATOM     14  C   UNL     1       1.105  -0.240   1.083  0.00  0.00    +0.021 C 
ATOM     15  C   UNL     1       2.683  -1.717   0.004  0.00  0.00    +0.042 C 
ATOM     16  C   UNL     1       2.875  -0.775  -1.006  0.00  0.00    +0.015 C 
ATOM     17  C   UNL     1       1.798  -1.450   1.049  0.00  0.00    +0.015 C 
BRANCH  15  18
ATOM     18  N   UNL     1       3.385  -2.940  -0.029  0.00  0.00    -0.357 N 
ATOM     19  H   UNL     1       4.010  -3.129  -0.766  0.00  0.00    +0.142 HD
ATOM     20  H   UNL     1       3.250  -3.605   0.684  0.00  0.00    +0.142 HD
ENDBRANCH  15  18
ENDBRANCH   1  12
TORSDOF 3
