REMARK  Name = 71329
REMARK  11 active torsions:
REMARK  status: ('A' for Active; 'I' for Inactive)
REMARK    1  A    between atoms: N_1  and  C_4
REMARK    2  A    between atoms: N_1  and  C_18
REMARK    3  A    between atoms: C_4  and  C_5
REMARK    4  A    between atoms: C_5  and  C_6
REMARK    5  A    between atoms: C_9  and  N_12
REMARK    6  A    between atoms: N_12  and  S_14
REMARK    7  A    between atoms: C_18  and  C_19
REMARK    8  A    between atoms: C_19  and  O_20
REMARK    9  A    between atoms: O_20  and  C_21
REMARK   10  A    between atoms: C_22  and  N_27
REMARK   11  A    between atoms: N_27  and  S_29
REMARK                            x       y       z     vdW  Elec       q    Type
REMARK                         _______ _______ _______ _____ _____    ______ ____
ROOT
ATOM      1  N   UNL     1      -3.829   1.974  -0.359  0.00  0.00    +0.388 N 
ATOM      2  C   UNL     1      -4.814   2.298  -1.391  0.00  0.00    -0.101 C 
ATOM      3  H   UNL     1      -3.265   1.189  -0.686  0.00  0.00    -0.080 HD
ENDROOT
BRANCH   1   4
ATOM      4  C   UNL     1      -4.498   1.580   0.880  0.00  0.00    -0.073 C 
BRANCH   4   5
ATOM      5  C   UNL     1      -5.007   0.141   0.794  0.00  0.00    +0.004 C 
BRANCH   5   6
ATOM      6  C   UNL     1      -3.877  -0.834   0.577  0.00  0.00    -0.024 C 
ATOM      7  C   UNL     1      -3.226  -1.401   1.673  0.00  0.00    -0.003 C 
ATOM      8  C   UNL     1      -3.482  -1.167  -0.718  0.00  0.00    -0.003 C 
ATOM      9  C   UNL     1      -1.784  -2.634   0.177  0.00  0.00    +0.064 C 
ATOM     10  C   UNL     1      -2.179  -2.301   1.473  0.00  0.00    +0.016 C 
ATOM     11  C   UNL     1      -2.435  -2.067  -0.918  0.00  0.00    +0.016 C 
BRANCH   9  12
ATOM     12  N   UNL     1      -0.713  -3.556  -0.028  0.00  0.00    -0.219 N 
ATOM     13  H   UNL     1      -0.825  -4.513   0.173  0.00  0.00    +0.173 HD
BRANCH  12  14
ATOM     14  S   UNL     1       0.779  -2.947  -0.636  0.00  0.00    +0.056 S 
ATOM     15  O   UNL     1       1.616  -4.073  -1.008  0.00  0.00    -0.154 OA
ATOM     16  O   UNL     1       0.554  -1.858  -1.566  0.00  0.00    -0.154 OA
ATOM     17  C   UNL     1       1.468  -2.260   0.853  0.00  0.00    +0.200 C 
ENDBRANCH  12  14
ENDBRANCH   9  12
ENDBRANCH   5   6
ENDBRANCH   4   5
ENDBRANCH   1   4
BRANCH   1  18
ATOM     18  C   UNL     1      -2.944   3.114  -0.122  0.00  0.00    -0.029 C 
BRANCH  18  19
ATOM     19  C   UNL     1      -1.638   2.658   0.509  0.00  0.00    +0.183 C 
BRANCH  19  20
ATOM     20  O   UNL     1      -1.008   1.731  -0.365  0.00  0.00    -0.478 OA
BRANCH  20  21
ATOM     21  C   UNL     1       0.362   1.700  -0.349  0.00  0.00    +0.139 C 
ATOM     22  C   UNL     1       3.151   1.635  -0.317  0.00  0.00    +0.065 C 
ATOM     23  C   UNL     1       1.065   1.351  -1.503  0.00  0.00    +0.038 C 
ATOM     24  C   UNL     1       1.053   2.016   0.820  0.00  0.00    +0.038 C 
ATOM     25  C   UNL     1       2.459   1.319  -1.486  0.00  0.00    +0.019 C 
ATOM     26  C   UNL     1       2.448   1.983   0.836  0.00  0.00    +0.019 C 
BRANCH  22  27
ATOM     27  N   UNL     1       4.578   1.601  -0.300  0.00  0.00    -0.219 N 
ATOM     28  H   UNL     1       5.105   2.278  -0.782  0.00  0.00    +0.173 HD
BRANCH  27  29
ATOM     29  S   UNL     1       5.352   0.344   0.588  0.00  0.00    +0.056 S 
ATOM     30  O   UNL     1       6.766   0.653   0.683  0.00  0.00    -0.154 OA
ATOM     31  O   UNL     1       4.591   0.002   1.773  0.00  0.00    -0.154 OA
ATOM     32  C   UNL     1       5.194  -1.000  -0.568  0.00  0.00    +0.200 C 
ENDBRANCH  27  29
ENDBRANCH  22  27
ENDBRANCH  20  21
ENDBRANCH  19  20
ENDBRANCH  18  19
ENDBRANCH   1  18
TORSDOF 11
