REMARK  Name = 5245
REMARK  9 active torsions:
REMARK  status: ('A' for Active; 'I' for Inactive)
REMARK    1  A    between atoms: C_1  and  P_2
REMARK    2  A    between atoms: C_1  and  P_8
REMARK    3  A    between atoms: C_1  and  O_14
REMARK    4  A    between atoms: C_1  and  C_16
REMARK    5  A    between atoms: P_2  and  O_4
REMARK    6  A    between atoms: P_2  and  O_6
REMARK    7  A    between atoms: P_8  and  O_10
REMARK    8  A    between atoms: P_8  and  O_12
REMARK    9  A    between atoms: C_16  and  C_18
REMARK                            x       y       z     vdW  Elec       q    Type
REMARK                         _______ _______ _______ _____ _____    ______ ____
ROOT
ATOM      1  C   UNL     1       0.978  -0.209   0.187  0.00  0.00    +0.279 C 
ENDROOT
BRANCH   1   2
ATOM      2  P   UNL     1       0.802   1.607   0.256  0.00  0.00    +0.372 P 
ATOM      3  O   UNL     1      -0.506   2.109   0.791  0.00  0.00    -0.255 OA
BRANCH   2   4
ATOM      4  O   UNL     1       1.155   2.072  -1.251  0.00  0.00    -0.322 OA
ATOM      5  H   UNL     1       1.088   3.038  -1.316  0.00  0.00    +0.220 HD
ENDBRANCH   2   4
BRANCH   2   6
ATOM      6  O   UNL     1       2.096   2.087   1.097  0.00  0.00    -0.322 OA
ATOM      7  H   UNL     1       2.085   3.053   1.185  0.00  0.00    +0.220 HD
ENDBRANCH   2   6
ENDBRANCH   1   2
BRANCH   1   8
ATOM      8  P   UNL     1       2.610  -0.991  -0.197  0.00  0.00    +0.372 P 
ATOM      9  O   UNL     1       2.672  -2.468   0.062  0.00  0.00    -0.255 OA
BRANCH   8  10
ATOM     10  O   UNL     1       2.872  -0.548  -1.729  0.00  0.00    -0.322 OA
ATOM     11  H   UNL     1       3.718  -0.914  -2.031  0.00  0.00    +0.220 HD
ENDBRANCH   8  10
BRANCH   8  12
ATOM     12  O   UNL     1       3.674  -0.106   0.636  0.00  0.00    -0.322 OA
ATOM     13  H   UNL     1       4.568  -0.453   0.489  0.00  0.00    +0.220 HD
ENDBRANCH   8  12
ENDBRANCH   1   8
BRANCH   1  14
ATOM     14  O   UNL     1       0.795  -0.617   1.543  0.00  0.00    -0.366 OA
ATOM     15  H   UNL     1       1.459  -0.184   2.103  0.00  0.00    +0.212 HD
ENDBRANCH   1  14
BRANCH   1  16
ATOM     16  C   UNL     1      -0.083  -0.900  -0.708  0.00  0.00    +0.079 C 
BRANCH  16  18
ATOM     17  N   UNL     1      -3.472   0.747  -0.737  0.00  0.00    -0.243 NA
ATOM     18  C   UNL     1      -1.530  -0.618  -0.388  0.00  0.00    +0.001 C 
ATOM     19  C   UNL     1      -2.215  -1.420   0.502  0.00  0.00    -0.001 C 
ATOM     20  C   UNL     1      -2.178   0.440  -0.980  0.00  0.00    +0.095 C 
ATOM     21  C   UNL     1      -3.547  -1.135   0.778  0.00  0.00    +0.020 C 
ATOM     22  C   UNL     1      -4.125  -0.050   0.138  0.00  0.00    +0.099 C 
ENDBRANCH  16  18
ENDBRANCH   1  16
TORSDOF 9
