REMARK  Name = 152946
REMARK  5 active torsions:
REMARK  status: ('A' for Active; 'I' for Inactive)
REMARK    1  A    between atoms: N_3  and  C_24
REMARK    2  A    between atoms: C_4  and  N_13
REMARK    3  A    between atoms: C_6  and  O_27
REMARK    4  A    between atoms: C_11  and  C_30
REMARK    5  A    between atoms: C_30  and  O_31
REMARK                            x       y       z     vdW  Elec       q    Type
REMARK                         _______ _______ _______ _____ _____    ______ ____
ROOT
ATOM      1  F   UNL     1      -1.492   2.837  -0.098  0.00  0.00    -0.203 F 
ATOM      2  O   UNL     1       3.530   2.703   0.207  0.00  0.00    -0.286 OA
ATOM      3  N   UNL     1       2.378  -1.192  -0.141  0.00  0.00    -0.285 N 
ATOM      4  C   UNL     1      -0.960   0.527  -0.230  0.00  0.00    +0.111 C 
ATOM      5  C   UNL     1       1.369  -0.187  -0.134  0.00  0.00    +0.090 C 
ATOM      6  C   UNL     1       0.001  -0.487  -0.241  0.00  0.00    +0.168 C 
ATOM      7  C   UNL     1       1.739   1.170  -0.013  0.00  0.00    +0.058 C 
ATOM      8  C   UNL     1      -0.574   1.859  -0.110  0.00  0.00    +0.156 C 
ATOM      9  C   UNL     1       3.706  -0.826  -0.032  0.00  0.00    +0.075 C 
ATOM     10  C   UNL     1       0.775   2.185  -0.002  0.00  0.00    +0.036 C 
ATOM     11  C   UNL     1       4.163   0.426   0.086  0.00  0.00    +0.129 C 
ATOM     12  C   UNL     1       3.176   1.536   0.103  0.00  0.00    +0.204 C 
ENDROOT
BRANCH   4  13
ATOM     13  N   UNL     1      -2.302   0.226  -0.336  0.00  0.00    -0.306 N 
ATOM     14  N   UNL     1      -5.469  -1.304   0.745  0.00  0.00    +0.386 N 
ATOM     15  C   UNL     1      -4.588   0.369  -0.937  0.00  0.00    +0.002 C 
ATOM     16  C   UNL     1      -4.355  -0.902  -0.110  0.00  0.00    -0.040 C 
ATOM     17  C   UNL     1      -3.168   0.713  -1.412  0.00  0.00    +0.089 C 
ATOM     18  C   UNL     1      -3.029  -0.621   0.612  0.00  0.00    +0.070 C 
ATOM     19  C   UNL     1      -5.201   1.503  -0.106  0.00  0.00    -0.002 C 
ATOM     20  C   UNL     1      -6.400   0.997   0.686  0.00  0.00    -0.023 C 
ATOM     21  C   UNL     1      -6.012  -0.205   1.545  0.00  0.00    -0.082 C 
ATOM     22  H   UNL     1      -5.144  -2.035   1.377  0.00  0.00    -0.084 HD
ATOM     23  H   UNL     1      -6.217  -1.630   0.132  0.00  0.00    -0.084 HD
ENDBRANCH   4  13
BRANCH   3  24
ATOM     24  C   UNL     1       2.095  -2.641  -0.263  0.00  0.00    +0.077 C 
ATOM     25  C   UNL     1       2.619  -3.606   0.746  0.00  0.00    +0.022 C 
ATOM     26  C   UNL     1       1.148  -3.314   0.673  0.00  0.00    +0.022 C 
ENDBRANCH   3  24
BRANCH   6  27
ATOM     27  O   UNL     1      -0.462  -1.767  -0.362  0.00  0.00    -0.469 OA
ATOM     28  C   UNL     1      -0.600  -2.280  -1.683  0.00  0.00    +0.253 C 
ENDBRANCH   6  27
BRANCH  11  30
ATOM     29  O   UNL     1       6.449  -0.092  -0.311  0.00  0.00    -0.245 OA
ATOM     30  C   UNL     1       5.609   0.632   0.192  0.00  0.00    +0.342 C 
BRANCH  30  31
ATOM     31  O   UNL     1       5.857   1.738   0.925  0.00  0.00    -0.477 OA
ATOM     32  H   UNL     1       5.146   2.238   1.275  0.00  0.00    +0.295 HD
ENDBRANCH  30  31
ENDBRANCH  11  30
TORSDOF 5
