REMARK  Name = 4107
REMARK  8 active torsions:
REMARK  status: ('A' for Active; 'I' for Inactive)
REMARK    1  A    between atoms: C_1  and  O_2
REMARK    2  A    between atoms: C_1  and  C_4
REMARK    3  A    between atoms: C_1  and  C_14
REMARK    4  A    between atoms: C_4  and  O_5
REMARK    5  A    between atoms: O_5  and  C_6
REMARK    6  A    between atoms: C_7  and  O_12
REMARK    7  A    between atoms: C_14  and  O_15
REMARK    8  A    between atoms: O_15  and  C_18
REMARK                            x       y       z     vdW  Elec       q    Type
REMARK                         _______ _______ _______ _____ _____    ______ ____
ROOT
ATOM      1  C   UNL     1      -1.473  -0.282  -0.334  0.00  0.00    +0.198 C 
ENDROOT
BRANCH   1   2
ATOM      2  O   UNL     1      -1.669  -0.931  -1.593  0.00  0.00    -0.378 OA
ATOM      3  H   UNL     1      -0.876  -1.441  -1.821  0.00  0.00    +0.211 HD
ENDBRANCH   1   2
BRANCH   1   4
ATOM      4  C   UNL     1      -0.256   0.626  -0.459  0.00  0.00    +0.238 C 
BRANCH   4   5
ATOM      5  O   UNL     1       0.887  -0.171  -0.749  0.00  0.00    -0.470 OA
BRANCH   5   6
ATOM      6  C   UNL     1       2.091   0.260  -0.334  0.00  0.00    +0.172 C 
ATOM      7  C   UNL     1       3.114  -0.645  -0.006  0.00  0.00    +0.172 C 
ATOM      8  C   UNL     1       2.345   1.636  -0.220  0.00  0.00    +0.040 C 
ATOM      9  C   UNL     1       4.359  -0.185   0.424  0.00  0.00    +0.040 C 
ATOM     10  C   UNL     1       3.590   2.096   0.210  0.00  0.00    +0.003 C 
ATOM     11  C   UNL     1       4.596   1.185   0.532  0.00  0.00    +0.003 C 
BRANCH   7  12
ATOM     12  O   UNL     1       2.894  -1.985  -0.107  0.00  0.00    -0.468 OA
ATOM     13  C   UNL     1       2.387  -2.660   1.026  0.00  0.00    +0.253 C 
ENDBRANCH   7  12
ENDBRANCH   5   6
ENDBRANCH   4   5
ENDBRANCH   1   4
BRANCH   1  14
ATOM     14  C   UNL     1      -2.728   0.513   0.007  0.00  0.00    +0.243 C 
BRANCH  14  15
ATOM     15  O   UNL     1      -3.844  -0.366   0.109  0.00  0.00    -0.432 OA
BRANCH  15  18
ATOM     16  O   UNL     1      -5.213   1.418   0.597  0.00  0.00    -0.227 OA
ATOM     17  N   UNL     1      -6.038  -0.726   0.484  0.00  0.00    -0.295 N 
ATOM     18  C   UNL     1      -5.043   0.218   0.413  0.00  0.00    +0.399 C 
ATOM     19  H   UNL     1      -5.829  -1.674   0.324  0.00  0.00    +0.148 HD
ATOM     20  H   UNL     1      -6.960  -0.453   0.695  0.00  0.00    +0.148 HD
ENDBRANCH  15  18
ENDBRANCH  14  15
ENDBRANCH   1  14
TORSDOF 8
