REMARK  Name = 4032
REMARK  1 active torsions:
REMARK  status: ('A' for Active; 'I' for Inactive)
REMARK    1  A    between atoms: C_2  and  N_11
REMARK                            x       y       z     vdW  Elec       q    Type
REMARK                         _______ _______ _______ _____ _____    ______ ____
ROOT
ATOM      1  C   UNL     1      -0.646   0.960   0.246  0.00  0.00    -0.016 C 
ATOM      2  C   UNL     1       0.726   0.279  -0.187  0.00  0.00    -0.046 C 
ATOM      3  C   UNL     1      -1.689  -0.138  -0.171  0.00  0.00    -0.002 C 
ATOM      4  C   UNL     1       0.238  -1.098  -0.756  0.00  0.00    -0.018 C 
ATOM      5  C   UNL     1      -1.074  -0.717  -1.451  0.00  0.00    -0.002 C 
ATOM      6  C   UNL     1      -1.632  -1.379   0.739  0.00  0.00    -0.000 C 
ATOM      7  C   UNL     1      -0.301  -2.032   0.348  0.00  0.00    -0.002 C 
ATOM      8  C   UNL     1      -0.746   1.319   1.743  0.00  0.00    -0.002 C 
ATOM      9  C   UNL     1      -0.967   2.269  -0.516  0.00  0.00    -0.002 C 
ATOM     10  C   UNL     1       1.504   1.034  -1.286  0.00  0.00    -0.022 C 
ENDROOT
BRANCH   2  11
ATOM     11  N   UNL     1       1.708   0.104   0.889  0.00  0.00    +0.385 N 
ATOM     12  C   UNL     1       2.879  -0.605   0.402  0.00  0.00    -0.105 C 
ATOM     13  H   UNL     1       1.283  -0.431   1.647  0.00  0.00    -0.084 HD
ATOM     14  H   UNL     1       1.995   1.023   1.225  0.00  0.00    -0.084 HD
ENDBRANCH   2  11
TORSDOF 1
