REMARK  Name = 3034034
REMARK  5 active torsions:
REMARK  status: ('A' for Active; 'I' for Inactive)
REMARK    1  A    between atoms: C_1  and  C_3
REMARK    2  A    between atoms: C_1  and  C_16
REMARK    3  A    between atoms: C_1  and  O_25
REMARK    4  A    between atoms: C_10  and  O_12
REMARK    5  A    between atoms: C_18  and  C_23
REMARK                            x       y       z     vdW  Elec       q    Type
REMARK                         _______ _______ _______ _____ _____    ______ ____
ROOT
ATOM      1  C   UNL     1       0.324  -0.441   1.359  0.00  0.00    +0.114 C 
ENDROOT
BRANCH   1   3
ATOM      2  N   UNL     1      -2.611  -2.669  -0.815  0.00  0.00    -0.244 NA
ATOM      3  C   UNL     1      -0.733  -1.195   0.593  0.00  0.00    +0.005 C 
ATOM      4  C   UNL     1      -1.918  -0.585   0.179  0.00  0.00    +0.019 C 
ATOM      5  C   UNL     1      -0.480  -2.525   0.311  0.00  0.00    +0.019 C 
ATOM      6  C   UNL     1      -2.845  -1.373  -0.535  0.00  0.00    +0.081 C 
ATOM      7  C   UNL     1      -2.195   0.765   0.453  0.00  0.00    +0.038 C 
ATOM      8  C   UNL     1      -1.447  -3.214  -0.392  0.00  0.00    +0.099 C 
ATOM      9  C   UNL     1      -4.030  -0.772  -0.953  0.00  0.00    +0.022 C 
ATOM     10  C   UNL     1      -3.388   1.340   0.023  0.00  0.00    +0.139 C 
ATOM     11  C   UNL     1      -4.306   0.570  -0.680  0.00  0.00    +0.038 C 
BRANCH  10  12
ATOM     12  O   UNL     1      -3.652   2.647   0.290  0.00  0.00    -0.471 OA
ATOM     13  C   UNL     1      -4.894   3.169  -0.181  0.00  0.00    +0.252 C 
ENDBRANCH  10  12
ENDBRANCH   1   3
BRANCH   1  16
ATOM     14  N   UNL     1       1.565   0.124  -0.744  0.00  0.00    +0.390 N 
ATOM     15  C   UNL     1       3.483   1.304   0.555  0.00  0.00    -0.002 C 
ATOM     16  C   UNL     1       1.669  -0.443   0.627  0.00  0.00    -0.026 C 
ATOM     17  C   UNL     1       2.767   0.270   1.445  0.00  0.00    -0.018 C 
ATOM     18  C   UNL     1       4.019   0.634  -0.732  0.00  0.00    +0.001 C 
ATOM     19  C   UNL     1       2.407   2.316   0.118  0.00  0.00    -0.023 C 
ATOM     20  C   UNL     1       2.860  -0.115  -1.429  0.00  0.00    -0.073 C 
ATOM     21  C   UNL     1       1.327   1.584  -0.695  0.00  0.00    -0.077 C 
ATOM     22  H   UNL     1       0.787  -0.318  -1.234  0.00  0.00    -0.079 HD
BRANCH  18  23
ATOM     23  C   UNL     1       5.185  -0.271  -0.464  0.00  0.00    -0.029 C 
ATOM     24  C   UNL     1       6.405  -0.092  -0.980  0.00  0.00    -0.005 C 
ENDBRANCH  18  23
ENDBRANCH   1  16
BRANCH   1  25
ATOM     25  O   UNL     1       0.488  -1.029   2.646  0.00  0.00    -0.382 OA
ATOM     26  H   UNL     1       1.168  -0.544   3.139  0.00  0.00    +0.211 HD
ENDBRANCH   1  25
TORSDOF 5
