REMARK  Name = 54677971
REMARK  2 active torsions:
REMARK  status: ('A' for Active; 'I' for Inactive)
REMARK    1  A    between atoms: C_7  and  C_15
REMARK    2  A    between atoms: C_9  and  O_23
REMARK                            x       y       z     vdW  Elec       q    Type
REMARK                         _______ _______ _______ _____ _____    ______ ____
ROOT
ATOM      1  S   UNL     1      -2.557   1.573   0.263  0.00  0.00    +0.077 S 
ATOM      2  S   UNL     1      -3.582  -2.461   0.090  0.00  0.00    -0.082 S 
ATOM      3  O   UNL     1      -3.445   2.393  -0.536  0.00  0.00    -0.150 OA
ATOM      4  O   UNL     1      -2.306   1.849   1.663  0.00  0.00    -0.150 OA
ATOM      5  N   UNL     1      -1.079   1.338  -0.566  0.00  0.00    -0.181 N 
ATOM      6  C   UNL     1      -3.326   0.051   0.287  0.00  0.00    +0.135 C 
ATOM      7  C   UNL     1      -0.463   0.022  -0.557  0.00  0.00    +0.156 C 
ATOM      8  C   UNL     1      -2.577  -1.063  -0.004  0.00  0.00    +0.083 C 
ATOM      9  C   UNL     1      -1.185  -1.100  -0.327  0.00  0.00    +0.160 C 
ATOM     10  C   UNL     1      -4.683  -0.195   0.594  0.00  0.00    +0.028 C 
ATOM     11  C   UNL     1      -0.268   2.557  -0.808  0.00  0.00    +0.139 C 
ATOM     12  C   UNL     1      -4.960  -1.540   0.520  0.00  0.00    +0.037 C 
ENDROOT
BRANCH   7  15
ATOM     13  O   UNL     1       1.334  -0.166  -2.037  0.00  0.00    -0.268 OA
ATOM     14  N   UNL     1       1.756  -0.017   0.275  0.00  0.00    -0.265 N 
ATOM     15  C   UNL     1       0.975  -0.065  -0.868  0.00  0.00    +0.269 C 
ATOM     16  H   UNL     1       1.274   0.067   1.130  0.00  0.00    +0.157 HD
ATOM     17  N   UNL     1       3.750  -0.013   1.573  0.00  0.00    -0.229 NA
ATOM     18  C   UNL     1       3.168  -0.075   0.354  0.00  0.00    +0.134 C 
ATOM     19  C   UNL     1       3.870  -0.193  -0.835  0.00  0.00    +0.034 C 
ATOM     20  C   UNL     1       5.258  -0.252  -0.769  0.00  0.00    +0.004 C 
ATOM     21  C   UNL     1       5.100  -0.072   1.597  0.00  0.00    +0.100 C 
ATOM     22  C   UNL     1       5.892  -0.191   0.467  0.00  0.00    +0.021 C 
ENDBRANCH   7  15
BRANCH   9  23
ATOM     23  O   UNL     1      -0.672  -2.383  -0.376  0.00  0.00    -0.504 OA
ATOM     24  H   UNL     1       0.233  -2.518  -0.580  0.00  0.00    +0.292 HD
ENDBRANCH   9  23
TORSDOF 2
