REMARK  Name = 6839
REMARK  1 active torsions:
REMARK  status: ('A' for Active; 'I' for Inactive)
REMARK    1  A    between atoms: C_4  and  C_9
REMARK                            x       y       z     vdW  Elec       q    Type
REMARK                         _______ _______ _______ _____ _____    ______ ____
ROOT
ATOM      1  O   UNL     1      -0.929   2.021   0.984  0.00  0.00    -0.274 OA
ATOM      2  O   UNL     1      -2.995  -1.652  -0.914  0.00  0.00    -0.274 OA
ATOM      3  N   UNL     1      -2.215   0.393  -0.091  0.00  0.00    -0.228 N 
ATOM      4  C   UNL     1      -0.271  -0.311   1.003  0.00  0.00    +0.108 C 
ATOM      5  C   UNL     1      -1.016  -1.532   0.455  0.00  0.00    +0.099 C 
ATOM      6  C   UNL     1      -1.158   0.863   0.659  0.00  0.00    +0.235 C 
ATOM      7  C   UNL     1      -2.200  -0.970  -0.282  0.00  0.00    +0.232 C 
ATOM      8  C   UNL     1      -3.239   1.270  -0.627  0.00  0.00    +0.123 C 
ENDROOT
BRANCH   4   9
ATOM      9  C   UNL     1       1.077  -0.158   0.382  0.00  0.00    -0.013 C 
ATOM     10  C   UNL     1       2.198  -0.706   1.005  0.00  0.00    -0.004 C 
ATOM     11  C   UNL     1       1.216   0.534  -0.821  0.00  0.00    -0.004 C 
ATOM     12  C   UNL     1       3.459  -0.561   0.425  0.00  0.00    -0.000 C 
ATOM     13  C   UNL     1       2.476   0.678  -1.401  0.00  0.00    -0.000 C 
ATOM     14  C   UNL     1       3.597   0.131  -0.778  0.00  0.00    -0.000 C 
ENDBRANCH   4   9
TORSDOF 1
