REMARK  Name = 2315
REMARK  5 active torsions:
REMARK  status: ('A' for Active; 'I' for Inactive)
REMARK    1  A    between atoms: C_6  and  C_25
REMARK    2  A    between atoms: C_11  and  S_19
REMARK    3  A    between atoms: C_12  and  C_18
REMARK    4  A    between atoms: S_19  and  N_22
REMARK    5  A    between atoms: C_25  and  C_26
REMARK                            x       y       z     vdW  Elec       q    Type
REMARK                         _______ _______ _______ _____ _____    ______ ____
ROOT
ATOM      1  S   UNL     1      -0.362  -2.784   0.062  0.00  0.00    +0.063 S 
ATOM      2  O   UNL     1       0.371  -3.831   0.746  0.00  0.00    -0.153 OA
ATOM      3  O   UNL     1      -0.762  -2.926  -1.324  0.00  0.00    -0.153 OA
ATOM      4  N   UNL     1      -1.707  -2.366   1.021  0.00  0.00    -0.163 NA
ATOM      5  N   UNL     1      -1.345   0.054   0.826  0.00  0.00    -0.319 N 
ATOM      6  C   UNL     1      -2.310  -1.029   0.826  0.00  0.00    +0.151 C 
ATOM      7  C   UNL     1       0.595  -1.308   0.154  0.00  0.00    +0.136 C 
ATOM      8  C   UNL     1      -0.007  -0.093   0.505  0.00  0.00    +0.064 C 
ATOM      9  C   UNL     1       1.960  -1.410  -0.132  0.00  0.00    +0.041 C 
ATOM     10  C   UNL     1       0.829   1.036   0.561  0.00  0.00    +0.021 C 
ATOM     11  C   UNL     1       2.759  -0.273  -0.072  0.00  0.00    +0.127 C 
ATOM     12  C   UNL     1       2.194   0.951   0.274  0.00  0.00    +0.091 C 
ATOM     13  H   UNL     1      -1.415  -2.428   1.996  0.00  0.00    +0.151 HD
ATOM     14  H   UNL     1      -1.663   0.953   1.071  0.00  0.00    +0.148 HD
ENDROOT
BRANCH  12  18
ATOM     15  F   UNL     1       2.302   3.303   0.695  0.00  0.00    -0.166 F 
ATOM     16  F   UNL     1       4.035   2.123   1.252  0.00  0.00    -0.166 F 
ATOM     17  F   UNL     1       3.608   2.499  -0.847  0.00  0.00    -0.166 F 
ATOM     18  C   UNL     1       3.018   2.195   0.345  0.00  0.00    +0.420 C 
ENDBRANCH  12  18
BRANCH  11  19
ATOM     19  S   UNL     1       4.463  -0.416  -0.442  0.00  0.00    +0.057 S 
ATOM     20  O   UNL     1       5.166   0.674   0.217  0.00  0.00    -0.153 OA
ATOM     21  O   UNL     1       4.870  -1.792  -0.204  0.00  0.00    -0.153 OA
BRANCH  19  22
ATOM     22  N   UNL     1       4.452  -0.129  -2.126  0.00  0.00    -0.203 NA
ATOM     23  H   UNL     1       5.405  -0.183  -2.486  0.00  0.00    +0.144 HD
ATOM     24  H   UNL     1       4.071   0.799  -2.310  0.00  0.00    +0.144 HD
ENDBRANCH  19  22
ENDBRANCH  11  19
BRANCH   6  25
ATOM     25  C   UNL     1      -3.155  -0.988  -0.440  0.00  0.00    +0.064 C 
BRANCH  25  26
ATOM     26  C   UNL     1      -4.200   0.092  -0.375  0.00  0.00    -0.019 C 
ATOM     27  C   UNL     1      -5.453  -0.200   0.146  0.00  0.00    -0.004 C 
ATOM     28  C   UNL     1      -3.899   1.365  -0.839  0.00  0.00    -0.004 C 
ATOM     29  C   UNL     1      -6.423   0.801   0.206  0.00  0.00    -0.000 C 
ATOM     30  C   UNL     1      -4.869   2.366  -0.779  0.00  0.00    -0.000 C 
ATOM     31  C   UNL     1      -6.131   2.084  -0.256  0.00  0.00    -0.000 C 
ENDBRANCH  25  26
ENDBRANCH   6  25
TORSDOF 5
