REMARK  Name = 2265
REMARK  2 active torsions:
REMARK  status: ('A' for Active; 'I' for Inactive)
REMARK    1  A    between atoms: C_6  and  S_12
REMARK    2  A    between atoms: S_12  and  C_15
REMARK                            x       y       z     vdW  Elec       q    Type
REMARK                         _______ _______ _______ _____ _____    ______ ____
ROOT
ATOM      1  N   UNL     1       2.846   1.150  -0.904  0.00  0.00    -0.271 NA
ATOM      2  N   UNL     1       0.536  -1.520   0.123  0.00  0.00    -0.241 NA
ATOM      3  N   UNL     1       4.271   0.094   0.446  0.00  0.00    -0.307 N 
ATOM      4  N   UNL     1       2.752  -1.676   1.131  0.00  0.00    -0.232 NA
ATOM      5  C   UNL     1       2.158   0.084  -0.400  0.00  0.00    +0.156 C 
ATOM      6  C   UNL     1       0.875  -0.404  -0.560  0.00  0.00    +0.104 C 
ATOM      7  C   UNL     1       3.063  -0.556   0.435  0.00  0.00    +0.124 C 
ATOM      8  C   UNL     1       4.107   1.114  -0.369  0.00  0.00    +0.163 C 
ATOM      9  C   UNL     1       1.481  -2.080   0.915  0.00  0.00    +0.252 C 
ATOM     10  H   UNL     1       2.501   1.821  -1.536  0.00  0.00    +0.125 HD
ATOM     11  H   UNL     1       5.080  -0.149   0.951  0.00  0.00    +0.149 HD
ENDROOT
BRANCH   6  12
ATOM     12  S   UNL     1      -0.303   0.379  -1.610  0.00  0.00    -0.074 S 
BRANCH  12  15
ATOM     13  N   UNL     1      -1.534   1.903   0.276  0.00  0.00    -0.237 NA
ATOM     14  N   UNL     1      -3.283   0.733   0.988  0.00  0.00    -0.232 NA
ATOM     15  C   UNL     1      -1.547   0.743  -0.399  0.00  0.00    +0.177 C 
ATOM     16  C   UNL     1      -2.603   0.028   0.026  0.00  0.00    +0.223 C 
ATOM     17  C   UNL     1      -2.613   1.857   1.115  0.00  0.00    +0.203 C 
ATOM     18  C   UNL     1      -0.607   3.008   0.190  0.00  0.00    +0.092 C 
ATOM     19  O   UNL     1      -2.440  -1.892  -1.240  0.00  0.00    -0.125 OA
ATOM     20  O   UNL     1      -4.096  -1.722   0.191  0.00  0.00    -0.125 OA
ATOM     21  N   UNL     1      -3.063  -1.241  -0.355  0.00  0.00    +0.073 N 
ENDBRANCH  12  15
ENDBRANCH   6  12
TORSDOF 2
