REMARK  Name = 5359371
REMARK  3 active torsions:
REMARK  status: ('A' for Active; 'I' for Inactive)
REMARK    1  A    between atoms: N_1  and  C_21
REMARK    2  A    between atoms: C_16  and  O_19
REMARK    3  A    between atoms: C_21  and  C_22
REMARK                            x       y       z     vdW  Elec       q    Type
REMARK                         _______ _______ _______ _____ _____    ______ ____
ROOT
ATOM      1  N   UNL     1      -2.372  -0.313   0.060  0.00  0.00    +0.391 N 
ATOM      2  C   UNL     1       0.367  -0.961  -0.754  0.00  0.00    +0.015 C 
ATOM      3  C   UNL     1      -0.396  -1.724   0.365  0.00  0.00    -0.015 C 
ATOM      4  C   UNL     1      -1.367  -0.747   1.056  0.00  0.00    -0.053 C 
ATOM      5  C   UNL     1      -0.693  -0.452  -1.769  0.00  0.00    -0.019 C 
ATOM      6  C   UNL     1       1.303  -1.977  -1.465  0.00  0.00    +0.004 C 
ATOM      7  C   UNL     1       0.550  -2.447   1.345  0.00  0.00    -0.002 C 
ATOM      8  C   UNL     1       1.092   0.272  -0.183  0.00  0.00    -0.024 C 
ATOM      9  C   UNL     1      -0.582   0.383   1.753  0.00  0.00    +0.005 C 
ATOM     10  C   UNL     1      -1.812   0.368  -1.109  0.00  0.00    -0.076 C 
ATOM     11  C   UNL     1       2.254  -2.690  -0.502  0.00  0.00    +0.000 C 
ATOM     12  C   UNL     1       1.489  -3.400   0.610  0.00  0.00    -0.000 C 
ATOM     13  C   UNL     1       0.616   0.901   0.989  0.00  0.00    -0.028 C 
ATOM     14  C   UNL     1       2.193   0.847  -0.844  0.00  0.00    +0.032 C 
ATOM     15  C   UNL     1       1.274   2.036   1.493  0.00  0.00    -0.002 C 
ATOM     16  C   UNL     1       2.833   1.980  -0.336  0.00  0.00    +0.133 C 
ATOM     17  C   UNL     1       2.377   2.571   0.836  0.00  0.00    +0.036 C 
ATOM     18  H   UNL     1      -2.761  -1.191  -0.284  0.00  0.00    -0.079 HD
ENDROOT
BRANCH  16  19
ATOM     19  O   UNL     1       3.901   2.509  -0.993  0.00  0.00    -0.506 OA
ATOM     20  H   UNL     1       4.209   2.110  -1.784  0.00  0.00    +0.292 HD
ENDBRANCH  16  19
BRANCH   1  21
ATOM     21  C   UNL     1      -3.474   0.448   0.640  0.00  0.00    -0.050 C 
BRANCH  21  22
ATOM     22  C   UNL     1      -4.549   0.607  -0.383  0.00  0.00    -0.049 C 
ATOM     23  C   UNL     1      -5.004   1.791  -0.809  0.00  0.00    -0.007 C 
ENDBRANCH  21  22
ENDBRANCH   1  21
TORSDOF 3
