REMARK  Name = 1676
REMARK  2 active torsions:
REMARK  status: ('A' for Active; 'I' for Inactive)
REMARK    1  A    between atoms: N_3  and  C_15
REMARK    2  A    between atoms: C_15  and  C_16
REMARK                            x       y       z     vdW  Elec       q    Type
REMARK                         _______ _______ _______ _____ _____    ______ ____
ROOT
ATOM      1  O   UNL     1       1.111  -2.583   0.293  0.00  0.00    -0.246 OA
ATOM      2  O   UNL     1      -3.236  -1.181  -0.426  0.00  0.00    -0.266 OA
ATOM      3  N   UNL     1       0.726  -0.276   0.324  0.00  0.00    -0.269 N 
ATOM      4  N   UNL     1      -1.044  -1.850  -0.060  0.00  0.00    -0.273 N 
ATOM      5  N   UNL     1      -2.183   1.637  -0.116  0.00  0.00    -0.310 N 
ATOM      6  N   UNL     1      -0.031   2.070   0.289  0.00  0.00    -0.302 N 
ATOM      7  C   UNL     1      -0.238   0.721   0.194  0.00  0.00    +0.132 A 
ATOM      8  C   UNL     1      -1.554   0.427  -0.054  0.00  0.00    +0.133 A 
ATOM      9  C   UNL     1       0.333  -1.630   0.196  0.00  0.00    +0.331 A 
ATOM     10  C   UNL     1      -2.063  -0.897  -0.203  0.00  0.00    +0.277 A 
ATOM     11  C   UNL     1      -1.224   2.595   0.097  0.00  0.00    +0.183 C 
ATOM     12  H   UNL     1      -1.319  -2.791  -0.150  0.00  0.00    +0.173 HD
ATOM     13  H   UNL     1      -3.141   1.792  -0.281  0.00  0.00    +0.149 HD
ATOM     14  H   UNL     1       0.816   2.542   0.461  0.00  0.00    +0.150 HD
ENDROOT
BRANCH   3  15
ATOM     15  C   UNL     1       2.114   0.075   0.587  0.00  0.00    +0.112 C 
BRANCH  15  16
ATOM     16  C   UNL     1       2.915   0.273  -0.694  0.00  0.00    +0.025 C 
ATOM     17  C   UNL     1       4.374   0.619  -0.428  0.00  0.00    +0.002 C 
ENDBRANCH  15  16
ENDBRANCH   3  15
TORSDOF 2
