REMARK  Name = 4058
REMARK  4 active torsions:
REMARK  status: ('A' for Active; 'I' for Inactive)
REMARK    1  A    between atoms: C_2  and  C_9
REMARK    2  A    between atoms: C_2  and  C_16
REMARK    3  A    between atoms: C_16  and  O_17
REMARK    4  A    between atoms: O_17  and  C_18
REMARK                            x       y       z     vdW  Elec       q    Type
REMARK                         _______ _______ _______ _____ _____    ______ ____
ROOT
ATOM      1  N   UNL     1       3.158  -0.926   0.221  0.00  0.00    +0.386 N 
ATOM      2  C   UNL     1       0.234  -0.566  -0.257  0.00  0.00    +0.104 C 
ATOM      3  C   UNL     1       1.287  -0.773  -1.379  0.00  0.00    -0.008 C 
ATOM      4  C   UNL     1       0.830  -1.203   1.028  0.00  0.00    -0.008 C 
ATOM      5  C   UNL     1       2.672  -0.251  -0.987  0.00  0.00    -0.077 C 
ATOM      6  C   UNL     1       2.247  -0.711   1.351  0.00  0.00    -0.077 C 
ATOM      7  C   UNL     1       4.508  -0.473   0.556  0.00  0.00    -0.101 C 
ATOM      8  H   UNL     1       3.190  -1.927   0.030  0.00  0.00    -0.080 HD
ENDROOT
BRANCH   2   9
ATOM      9  C   UNL     1      -0.215   0.898  -0.137  0.00  0.00    -0.013 C 
ATOM     10  C   UNL     1      -0.788   1.538  -1.233  0.00  0.00    -0.004 C 
ATOM     11  C   UNL     1      -0.048   1.577   1.066  0.00  0.00    -0.004 C 
ATOM     12  C   UNL     1      -1.196   2.867  -1.125  0.00  0.00    -0.000 C 
ATOM     13  C   UNL     1      -0.456   2.907   1.175  0.00  0.00    -0.000 C 
ATOM     14  C   UNL     1      -1.030   3.552   0.079  0.00  0.00    -0.000 C 
ENDBRANCH   2   9
BRANCH   2  16
ATOM     15  O   UNL     1      -1.090  -2.062  -1.626  0.00  0.00    -0.250 OA
ATOM     16  C   UNL     1      -0.986  -1.390  -0.608  0.00  0.00    +0.320 C 
BRANCH  16  17
ATOM     17  O   UNL     1      -1.923  -1.258   0.373  0.00  0.00    -0.448 OA
BRANCH  17  18
ATOM     18  C   UNL     1      -3.137  -1.988   0.167  0.00  0.00    +0.209 C 
ATOM     19  C   UNL     1      -4.067  -1.739   1.335  0.00  0.00    +0.051 C 
ENDBRANCH  17  18
ENDBRANCH  16  17
ENDBRANCH   2  16
TORSDOF 4
