REMARK  Name = 4004
REMARK  11 active torsions:
REMARK  status: ('A' for Active; 'I' for Inactive)
REMARK    1  A    between atoms: C_1  and  C_3
REMARK    2  A    between atoms: C_1  and  S_7
REMARK    3  A    between atoms: C_1  and  C_14
REMARK    4  A    between atoms: C_3  and  O_4
REMARK    5  A    between atoms: O_4  and  C_5
REMARK    6  A    between atoms: S_7  and  P_9
REMARK    7  A    between atoms: P_9  and  O_10
REMARK    8  A    between atoms: P_9  and  O_12
REMARK    9  A    between atoms: C_14  and  C_16
REMARK   10  A    between atoms: C_16  and  O_17
REMARK   11  A    between atoms: O_17  and  C_18
REMARK                            x       y       z     vdW  Elec       q    Type
REMARK                         _______ _______ _______ _____ _____    ______ ____
ROOT
ATOM      1  C   UNL     1       0.321   0.202  -0.189  0.00  0.00    +0.165 C 
ENDROOT
BRANCH   1   3
ATOM      2  O   UNL     1      -0.819   1.761  -1.684  0.00  0.00    -0.249 OA
ATOM      3  C   UNL     1      -0.625   1.331  -0.555  0.00  0.00    +0.328 C 
BRANCH   3   4
ATOM      4  O   UNL     1      -1.202   1.814   0.588  0.00  0.00    -0.448 OA
BRANCH   4   5
ATOM      5  C   UNL     1      -2.100   2.914   0.408  0.00  0.00    +0.209 C 
ATOM      6  C   UNL     1      -2.650   3.327   1.757  0.00  0.00    +0.051 C 
ENDBRANCH   4   5
ENDBRANCH   3   4
ENDBRANCH   1   3
BRANCH   1   7
ATOM      7  S   UNL     1      -0.265  -1.353  -0.947  0.00  0.00    -0.052 S 
BRANCH   7   9
ATOM      8  S   UNL     1      -3.053  -3.403  -0.408  0.00  0.00    +0.003 S 
ATOM      9  P   UNL     1      -2.202  -1.657  -0.135  0.00  0.00    +0.232 P 
BRANCH   9  10
ATOM     10  O   UNL     1      -3.145  -0.427  -0.656  0.00  0.00    -0.307 OA
ATOM     11  C   UNL     1      -3.509  -0.332  -2.024  0.00  0.00    +0.182 C 
ENDBRANCH   9  10
BRANCH   9  12
ATOM     12  O   UNL     1      -2.138  -1.238   1.444  0.00  0.00    -0.307 OA
ATOM     13  C   UNL     1      -1.404  -2.028   2.366  0.00  0.00    +0.182 C 
ENDBRANCH   9  12
ENDBRANCH   7   9
ENDBRANCH   1   7
BRANCH   1  14
ATOM     14  C   UNL     1       1.741   0.545  -0.645  0.00  0.00    +0.132 C 
BRANCH  14  16
ATOM     15  O   UNL     1       2.605  -1.138   0.888  0.00  0.00    -0.250 OA
ATOM     16  C   UNL     1       2.812  -0.251   0.071  0.00  0.00    +0.318 C 
BRANCH  16  17
ATOM     17  O   UNL     1       4.039   0.202  -0.324  0.00  0.00    -0.448 OA
BRANCH  17  18
ATOM     18  C   UNL     1       5.160  -0.440   0.293  0.00  0.00    +0.209 C 
ATOM     19  C   UNL     1       6.436   0.172  -0.247  0.00  0.00    +0.051 C 
ENDBRANCH  17  18
ENDBRANCH  16  17
ENDBRANCH  14  16
ENDBRANCH   1  14
TORSDOF 11
