REMARK  Name = 644073
REMARK  7 active torsions:
REMARK  status: ('A' for Active; 'I' for Inactive)
REMARK    1  A    between atoms: N_2  and  C_34
REMARK    2  A    between atoms: C_5  and  O_22
REMARK    3  A    between atoms: C_7  and  C_26
REMARK    4  A    between atoms: C_19  and  O_24
REMARK    5  A    between atoms: C_26  and  C_28
REMARK    6  A    between atoms: C_26  and  O_32
REMARK    7  A    between atoms: C_34  and  C_35
REMARK                            x       y       z     vdW  Elec       q    Type
REMARK                         _______ _______ _______ _____ _____    ______ ____
ROOT
ATOM      1  O   UNL     1       0.221   2.825   1.095  0.00  0.00    -0.474 OA
ATOM      2  N   UNL     1       1.742  -2.121  -0.100  0.00  0.00    +0.388 N 
ATOM      3  C   UNL     1       0.208  -0.283  -0.713  0.00  0.00    -0.010 C 
ATOM      4  C   UNL     1       0.679   0.488   0.543  0.00  0.00    +0.057 C 
ATOM      5  C   UNL     1      -1.633   1.369   0.176  0.00  0.00    +0.132 C 
ATOM      6  C   UNL     1      -0.366   1.484   1.068  0.00  0.00    +0.194 C 
ATOM      7  C   UNL     1      -2.134  -0.112   0.262  0.00  0.00    +0.053 C 
ATOM      8  C   UNL     1      -1.067  -1.083  -0.326  0.00  0.00    +0.003 C 
ATOM      9  C   UNL     1       1.448  -1.131  -1.162  0.00  0.00    -0.053 C 
ATOM     10  C   UNL     1      -0.287   0.687  -1.843  0.00  0.00    +0.001 C 
ATOM     11  C   UNL     1      -1.294   1.704  -1.285  0.00  0.00    +0.031 C 
ATOM     12  C   UNL     1       1.193  -0.449   1.657  0.00  0.00    -0.015 C 
ATOM     13  C   UNL     1       1.735   1.423   0.101  0.00  0.00    +0.013 C 
ATOM     14  C   UNL     1       2.694  -0.215  -1.516  0.00  0.00    +0.005 C 
ATOM     15  C   UNL     1       2.184  -1.507   1.155  0.00  0.00    -0.077 C 
ATOM     16  C   UNL     1       2.743   1.118  -0.799  0.00  0.00    -0.025 C 
ATOM     17  C   UNL     1       1.455   2.707   0.506  0.00  0.00    +0.168 C 
ATOM     18  C   UNL     1       3.630   2.144  -1.123  0.00  0.00    -0.001 C 
ATOM     19  C   UNL     1       2.310   3.740   0.189  0.00  0.00    +0.167 C 
ATOM     20  C   UNL     1       3.426   3.442  -0.608  0.00  0.00    +0.039 C 
ATOM     21  H   UNL     1       0.846  -2.569   0.091  0.00  0.00    -0.080 HD
ENDROOT
BRANCH   5  22
ATOM     22  O   UNL     1      -2.630   2.256   0.664  0.00  0.00    -0.352 OA
ATOM     23  C   UNL     1      -2.966   1.972   2.015  0.00  0.00    +0.174 C 
ENDBRANCH   5  22
BRANCH  19  24
ATOM     24  O   UNL     1       2.065   5.013   0.587  0.00  0.00    -0.503 OA
ATOM     25  H   UNL     1       1.316   5.201   1.118  0.00  0.00    +0.292 HD
ENDBRANCH  19  24
BRANCH   7  26
ATOM     26  C   UNL     1      -3.499  -0.342  -0.394  0.00  0.00    +0.090 C 
ATOM     27  C   UNL     1      -3.364  -0.093  -1.908  0.00  0.00    +0.029 C 
BRANCH  26  28
ATOM     28  C   UNL     1      -4.138  -1.747  -0.050  0.00  0.00    +0.023 C 
ATOM     29  C   UNL     1      -3.711  -2.257   1.341  0.00  0.00    +0.002 C 
ATOM     30  C   UNL     1      -3.720  -2.812  -1.093  0.00  0.00    +0.002 C 
ATOM     31  C   UNL     1      -5.684  -1.681  -0.075  0.00  0.00    +0.002 C 
ENDBRANCH  26  28
BRANCH  26  32
ATOM     32  O   UNL     1      -4.384   0.676   0.110  0.00  0.00    -0.387 OA
ATOM     33  H   UNL     1      -4.500   0.559   1.066  0.00  0.00    +0.210 HD
ENDBRANCH  26  32
ENDBRANCH   7  26
BRANCH   2  34
ATOM     34  C   UNL     1       2.652  -3.178  -0.530  0.00  0.00    -0.077 C 
BRANCH  34  35
ATOM     35  C   UNL     1       2.770  -4.264   0.526  0.00  0.00    -0.021 C 
ATOM     36  C   UNL     1       3.679  -5.404   0.254  0.00  0.00    -0.002 C 
ATOM     37  C   UNL     1       4.045  -4.370   1.277  0.00  0.00    -0.002 C 
ENDBRANCH  34  35
ENDBRANCH   2  34
TORSDOF 7
