REMARK  Name = 5362065
REMARK  10 active torsions:
REMARK  status: ('A' for Active; 'I' for Inactive)
REMARK    1  A    between atoms: N_2  and  C_9
REMARK    2  A    between atoms: C_3  and  C_21
REMARK    3  A    between atoms: C_11  and  C_15
REMARK    4  A    between atoms: C_13  and  C_18
REMARK    5  A    between atoms: C_15  and  O_16
REMARK    6  A    between atoms: N_20  and  O_30
REMARK    7  A    between atoms: C_21  and  C_25
REMARK    8  A    between atoms: O_30  and  C_31
REMARK    9  A    between atoms: C_31  and  C_33
REMARK   10  A    between atoms: C_33  and  O_34
REMARK                            x       y       z     vdW  Elec       q    Type
REMARK                         _______ _______ _______ _____ _____    ______ ____
ROOT
ATOM      1  O   UNK A   0      -1.656  -0.041   2.301  0.00  0.00    -0.268 OA
ATOM      2  N   UNK A   1      -0.741  -1.061   0.396  0.00  0.00    -0.291 N 
ATOM      3  C   UNK A   0      -1.658  -0.309   1.111  0.00  0.00    +0.269 C 
ATOM      4  H   UNK A   1      -0.886  -1.187  -0.570  0.00  0.00    +0.150 HD
ENDROOT
BRANCH   2   9
ATOM      5  S   UNK A   1       1.268  -2.098  -1.677  0.00  0.00    -0.114 S 
ATOM      6  O   UNK A   1       1.534   0.223   2.343  0.00  0.00    -0.273 OA
ATOM      7  N   UNK A   1       2.324  -1.051   0.521  0.00  0.00    -0.242 N 
ATOM      8  C   UNK A   1       1.556  -2.210   0.102  0.00  0.00    +0.155 C 
ATOM      9  C   UNK A   1       0.432  -1.676   1.015  0.00  0.00    +0.179 C 
ATOM     10  C   UNK A   1       1.489  -0.645   1.502  0.00  0.00    +0.251 C 
ATOM     11  C   UNK A   1       3.506  -0.683  -0.042  0.00  0.00    +0.128 C 
ATOM     12  C   UNK A   1       3.050  -2.135  -2.078  0.00  0.00    +0.087 C 
ATOM     13  C   UNK A   1       3.905  -1.194  -1.232  0.00  0.00    +0.009 C 
BRANCH  11  15
ATOM     14  O   UNK A   1       4.575   1.421   0.245  0.00  0.00    -0.244 OA
ATOM     15  C   UNK A   1       4.293   0.327   0.687  0.00  0.00    +0.352 C 
BRANCH  15  16
ATOM     16  O   UNK A   1       4.635  -0.162   1.894  0.00  0.00    -0.476 OA
ATOM     17  H   UNK A   1       4.366  -1.025   2.143  0.00  0.00    +0.295 HD
ENDBRANCH  15  16
ENDBRANCH  11  15
BRANCH  13  18
ATOM     18  C   UNK A   1       5.177  -0.903  -1.865  0.00  0.00    -0.002 C 
ATOM     19  C   UNK A   1       6.316  -0.807  -1.191  0.00  0.00    -0.000 C 
ENDBRANCH  13  18
ENDBRANCH   2   9
BRANCH   3  21
ATOM     20  N   UNK A   0      -2.676   1.377  -0.319  0.00  0.00    -0.075 NA
ATOM     21  C   UNK A   0      -2.782   0.217   0.257  0.00  0.00    +0.198 C 
BRANCH  21  25
ATOM     22  S   UNK A   0      -5.797  -2.353   0.161  0.00  0.00    -0.060 S 
ATOM     23  N   UNK A   0      -5.033  -0.048  -0.725  0.00  0.00    -0.383 NA
ATOM     24  N   UNK A   0      -7.185  -0.732  -1.426  0.00  0.00    -0.328 N 
ATOM     25  C   UNK A   0      -4.016  -0.551   0.062  0.00  0.00    +0.148 C 
ATOM     26  C   UNK A   0      -4.247  -1.788   0.627  0.00  0.00    +0.127 C 
ATOM     27  C   UNK A   0      -6.023  -0.913  -0.745  0.00  0.00    +0.204 C 
ATOM     28  H   UNK A   0      -7.885  -1.423  -1.397  0.00  0.00    +0.145 HD
ATOM     29  H   UNK A   0      -7.326   0.091  -1.949  0.00  0.00    +0.145 HD
ENDBRANCH  21  25
BRANCH  20  30
ATOM     30  O   UNK A   0      -1.448   1.989  -0.033  0.00  0.00    -0.365 OA
BRANCH  30  31
ATOM     31  C   UNK A   0      -1.415   3.243  -0.698  0.00  0.00    +0.346 C 
BRANCH  31  33
ATOM     32  O   UNK A   0       0.786   3.508   0.296  0.00  0.00    -0.246 OA
ATOM     33  C   UNK A   0      -0.111   3.935  -0.416  0.00  0.00    +0.362 C 
BRANCH  33  34
ATOM     34  O   UNK A   0      -0.058   5.121  -1.073  0.00  0.00    -0.478 OA
ATOM     35  H   UNK A   0      -0.779   5.394  -1.606  0.00  0.00    +0.295 HD
ENDBRANCH  33  34
ENDBRANCH  31  33
ENDBRANCH  30  31
ENDBRANCH  20  30
ENDBRANCH   3  21
TORSDOF 10
