REMARK  Name = 5566
REMARK  5 active torsions:
REMARK  status: ('A' for Active; 'I' for Inactive)
REMARK    1  A    between atoms: N_2  and  C_19
REMARK    2  A    between atoms: C_9  and  C_18
REMARK    3  A    between atoms: C_19  and  C_20
REMARK    4  A    between atoms: C_20  and  C_21
REMARK    5  A    between atoms: C_21  and  N_22
REMARK                            x       y       z     vdW  Elec       q    Type
REMARK                         _______ _______ _______ _____ _____    ______ ____
ROOT
ATOM      1  S   UNL     1      -0.911  -2.674  -1.491  0.00  0.00    -0.084 S 
ATOM      2  N   UNL     1      -0.367  -0.432   0.593  0.00  0.00    -0.286 N 
ATOM      3  C   UNL     1      -1.674  -0.457   0.043  0.00  0.00    +0.058 C 
ATOM      4  C   UNL     1       0.522  -1.536   0.630  0.00  0.00    +0.058 C 
ATOM      5  C   UNL     1      -2.049  -1.439  -0.894  0.00  0.00    +0.043 C 
ATOM      6  C   UNL     1       0.365  -2.626  -0.249  0.00  0.00    +0.043 C 
ATOM      7  C   UNL     1      -2.665   0.471   0.430  0.00  0.00    +0.019 C 
ATOM      8  C   UNL     1       1.578  -1.614   1.565  0.00  0.00    +0.015 C 
ATOM      9  C   UNL     1      -3.957   0.440  -0.103  0.00  0.00    +0.073 C 
ATOM     10  C   UNL     1      -3.348  -1.463  -1.431  0.00  0.00    +0.008 C 
ATOM     11  C   UNL     1       1.246  -3.721  -0.203  0.00  0.00    +0.008 C 
ATOM     12  C   UNL     1      -4.298  -0.526  -1.037  0.00  0.00    +0.004 C 
ATOM     13  C   UNL     1       2.448  -2.707   1.609  0.00  0.00    +0.001 C 
ATOM     14  C   UNL     1       2.283  -3.760   0.722  0.00  0.00    +0.001 C 
ENDROOT
BRANCH   9  18
ATOM     15  F   UNL     1      -6.188   1.289  -0.261  0.00  0.00    -0.166 F 
ATOM     16  F   UNL     1      -5.225   1.408   1.679  0.00  0.00    -0.166 F 
ATOM     17  F   UNL     1      -4.590   2.726   0.070  0.00  0.00    -0.166 F 
ATOM     18  C   UNL     1      -4.970   1.443   0.338  0.00  0.00    +0.419 C 
ENDBRANCH   9  18
BRANCH   2  19
ATOM     19  C   UNL     1       0.073   0.813   1.235  0.00  0.00    +0.093 C 
BRANCH  19  20
ATOM     20  C   UNL     1       0.202   1.935   0.205  0.00  0.00    -0.001 C 
BRANCH  20  21
ATOM     21  C   UNL     1       1.163   1.635  -0.949  0.00  0.00    -0.076 C 
BRANCH  21  22
ATOM     22  N   UNL     1       2.512   1.337  -0.472  0.00  0.00    +0.384 N 
ATOM     23  N   UNL     1       5.370   1.770  -0.390  0.00  0.00    +0.383 N 
ATOM     24  C   UNL     1       3.088   2.495   0.222  0.00  0.00    -0.101 C 
ATOM     25  C   UNL     1       3.378   0.924  -1.584  0.00  0.00    -0.101 C 
ATOM     26  C   UNL     1       4.503   2.184   0.721  0.00  0.00    -0.101 C 
ATOM     27  C   UNL     1       4.794   0.613  -1.086  0.00  0.00    -0.101 C 
ATOM     28  C   UNL     1       6.718   1.471   0.087  0.00  0.00    -0.101 C 
ATOM     29  H   UNL     1       2.449   0.564   0.190  0.00  0.00    -0.080 HD
ATOM     30  H   UNL     1       5.435   2.543  -1.052  0.00  0.00    -0.080 HD
ENDBRANCH  21  22
ENDBRANCH  20  21
ENDBRANCH  19  20
ENDBRANCH   2  19
TORSDOF 5
