REMARK  Name = 3883
REMARK  6 active torsions:
REMARK  status: ('A' for Active; 'I' for Inactive)
REMARK    1  A    between atoms: C_1  and  C_3
REMARK    2  A    between atoms: C_1  and  S_15
REMARK    3  A    between atoms: C_5  and  O_9
REMARK    4  A    between atoms: O_9  and  C_10
REMARK    5  A    between atoms: C_10  and  C_14
REMARK    6  A    between atoms: S_15  and  C_19
REMARK                            x       y       z     vdW  Elec       q    Type
REMARK                         _______ _______ _______ _____ _____    ______ ____
ROOT
ATOM      1  C   UNL     1      -0.485  -0.631  -0.537  0.00  0.00    +0.140 C 
ENDROOT
BRANCH   1   3
ATOM      2  N   UNL     1       1.134  -2.347  -1.029  0.00  0.00    -0.247 NA
ATOM      3  C   UNL     1       0.934  -1.120  -0.506  0.00  0.00    +0.072 C 
ATOM      4  C   UNL     1       1.929  -0.325   0.032  0.00  0.00    +0.027 C 
ATOM      5  C   UNL     1       3.225  -0.827   0.033  0.00  0.00    +0.138 C 
ATOM      6  C   UNL     1       1.634   1.025   0.594  0.00  0.00    +0.035 C 
ATOM      7  C   UNL     1       3.478  -2.088  -0.496  0.00  0.00    +0.057 C 
ATOM      8  C   UNL     1       2.407  -2.801  -1.010  0.00  0.00    +0.102 C 
BRANCH   5   9
ATOM      9  O   UNL     1       4.256  -0.100   0.547  0.00  0.00    -0.467 OA
BRANCH   9  10
ATOM     10  C   UNL     1       5.325   0.226  -0.340  0.00  0.00    +0.308 C 
BRANCH  10  14
ATOM     11  F   UNL     1       5.031   2.520   0.081  0.00  0.00    -0.166 F 
ATOM     12  F   UNL     1       6.957   1.886  -0.725  0.00  0.00    -0.166 F 
ATOM     13  F   UNL     1       6.437   1.440   1.351  0.00  0.00    -0.166 F 
ATOM     14  C   UNL     1       5.947   1.527   0.096  0.00  0.00    +0.438 C 
ENDBRANCH  10  14
ENDBRANCH   9  10
ENDBRANCH   5   9
ENDBRANCH   1   3
BRANCH   1  15
ATOM     15  S   UNL     1      -1.387  -1.100   0.964  0.00  0.00    +0.085 S 
ATOM     16  O   UNL     1      -1.580  -2.591   0.912  0.00  0.00    -0.252 OA
BRANCH  15  19
ATOM     17  N   UNL     1      -4.170  -0.832   0.960  0.00  0.00    -0.307 N 
ATOM     18  N   UNL     1      -3.083   0.711  -0.214  0.00  0.00    -0.307 N 
ATOM     19  C   UNL     1      -2.958  -0.358   0.540  0.00  0.00    +0.226 C 
ATOM     20  C   UNL     1      -5.141  -0.014   0.443  0.00  0.00    +0.060 C 
ATOM     21  C   UNL     1      -4.438   0.940  -0.286  0.00  0.00    +0.060 C 
ATOM     22  C   UNL     1      -6.533  -0.028   0.546  0.00  0.00    +0.016 C 
ATOM     23  C   UNL     1      -5.149   1.949  -0.958  0.00  0.00    +0.016 C 
ATOM     24  C   UNL     1      -7.224   0.984  -0.129  0.00  0.00    +0.001 C 
ATOM     25  C   UNL     1      -6.546   1.956  -0.868  0.00  0.00    +0.001 C 
ATOM     26  H   UNL     1      -4.318  -1.619   1.533  0.00  0.00    +0.149 HD
ATOM     27  H   UNL     1      -2.364   1.233  -0.637  0.00  0.00    +0.149 HD
ENDBRANCH  15  19
ENDBRANCH   1  15
TORSDOF 6
