702
  -OEChem-10051719253D

  9  8  0     0  0  0  0  0  0999 V2000
   -1.1712    0.2997    0.0000 O   0  0  0  0  0  0  0  0  0  0  0  0
   -0.0463   -0.5665    0.0000 C   0  0  0  0  0  0  0  0  0  0  0  0
    1.2175    0.2668    0.0000 C   0  0  0  0  0  0  0  0  0  0  0  0
   -0.0958   -1.2120    0.8819 H   0  0  0  0  0  0  0  0  0  0  0  0
   -0.0952   -1.1938   -0.8946 H   0  0  0  0  0  0  0  0  0  0  0  0
    2.1050   -0.3720   -0.0177 H   0  0  0  0  0  0  0  0  0  0  0  0
    1.2426    0.9307   -0.8704 H   0  0  0  0  0  0  0  0  0  0  0  0
    1.2616    0.9052    0.8886 H   0  0  0  0  0  0  0  0  0  0  0  0
   -1.1291    0.8364    0.8099 H   0  0  0  0  0  0  0  0  0  0  0  0
  1  2  1  0  0  0  0
  1  9  1  0  0  0  0
  2  3  1  0  0  0  0
  2  4  1  0  0  0  0
  2  5  1  0  0  0  0
  3  6  1  0  0  0  0
  3  7  1  0  0  0  0
  3  8  1  0  0  0  0
M  END
> <DATABASE_ID>
DB00898

> <DATABASE_NAME>
drugbank

> <ORIGINAL_SOURCE>
PUBCHEM

> <ORIGINAL_SOURCE_URL>
https://pubchem.ncbi.nlm.nih.gov/rest/pug/compound/inchikey/LFQSCWFLJHTTHZ-UHFFFAOYSA-N/SDF?record_type=3d

> <SMILES>
CCO

> <INCHI_IDENTIFIER>
InChI=1S/C2H6O/c1-2-3/h3H,2H2,1H3

> <INCHI_KEY>
LFQSCWFLJHTTHZ-UHFFFAOYSA-N

> <FORMULA>
C2H6O

> <MOLECULAR_WEIGHT>
46.0684

> <EXACT_MASS>
46.041864814

> <JCHEM_ACCEPTOR_COUNT>
1

> <JCHEM_AVERAGE_POLARIZABILITY>
5.303762677439431

> <JCHEM_BIOAVAILABILITY>
1

> <JCHEM_DONOR_COUNT>
1

> <JCHEM_FORMAL_CHARGE>
0

> <JCHEM_GHOSE_FILTER>
0

> <JCHEM_IUPAC>
ethanol

> <ALOGPS_LOGP>
-0.40

> <JCHEM_LOGP>
-0.1617691140000001

> <ALOGPS_LOGS>
1.10

> <JCHEM_MDDR_LIKE_RULE>
0

> <JCHEM_NUMBER_OF_RINGS>
0

> <JCHEM_PHYSIOLOGICAL_CHARGE>
0

> <JCHEM_PKA_STRONGEST_ACIDIC>
16.47061524791562

> <JCHEM_PKA_STRONGEST_BASIC>
-2.155552890561707

> <JCHEM_POLAR_SURFACE_AREA>
20.23

> <JCHEM_REFRACTIVITY>
13.0099

> <JCHEM_ROTATABLE_BOND_COUNT>
0

> <JCHEM_RULE_OF_FIVE>
1

> <ALOGPS_SOLUBILITY>
5.79e+02 g/l

> <JCHEM_TRADITIONAL_IUPAC>
ethyl alcohol

> <JCHEM_VEBER_RULE>
1

> <DRUGBANK_ID>
DB00898

> <SECONDARY_ACCESSION_NUMBERS>
APRD00738

> <DRUG_GROUPS>
approved

> <GENERIC_NAME>
Ethanol

> <SYNONYMS>
1-Hydroxyethane; Alcohol; Alcohol (ethyl); Alcohol anhydrous; Alcohol denatured; Alcohol etílico; Alcohol, denatured; Alcool éthylique; Alkohol; Äthanol; Äthylalkohol; Dehydrated ethanol; etanol; éthanol; Ethyl Alcohol; Grain alcohol; Hydroxyethane; Methylcarbinol; Spiritus vini

> <PRODUCTS>
1.8oz Armstrong Hand Sanitizer with Aloe Vera and Vitamin E; 1.8oz Hand Sanitizer With Clip -assorted; 10 Person ANSI; 2 Pack Assured Instant Hand Sanitizer with moisturizers (Vitamin E and aloe); 2 Pack Assured Instant Hand Sanitizer with moisturizers (Vitamin E and aloe) lemon scented; 2-Pack Hand Sanitizer; 25 Person ANSI; 2pack 2oz Hand Sanitizer- Classic; 2pk 2oz Hand Sanitiizer-aloe Vera; 3 Hand Sanitizers; 3 Hand Sanitizers Kit; 3 Pack Assured Instant Hand Sanitizer with moisturizers (Vitamin E and aloe) lemon scented; 3 Pack Assured Instant Hand Sanitizer with moisturizers (Vitamin E and moisturizers) lavender scented; 3 Pack Assured Instant Hand Sanitizer with moisturizers (aloe vera and moisturizers); 3 Pack Family Dollar instant Hand Sanitizers; 3 Pack Instant Hand Sanitizer with moisturizers; 3 Pack Instant Hand Sanitizer with moisturizers Aloe Scented; 3 Pack Instant Hand Sanitizer with moisturizers Lavender Scented; 3M Avagard; 3M Avagard D; 3M Avagard Foam; 3M Avagard Foaming Instant Hand Antiseptic; 3M Avagard Instant Hand Antiseptic with Moisturizers; 3P Instant Hand Sanitizer; 4006 First Aid Kit; 4007 First Aid Kit; 4013 First Aid Kit; 4017 First Aid Kit; 4020 First Aid Kit; 4022 First Aid Kit; 4047 Fist Aid Kit; 4048 Fist Aid Kit; 4051 First Aid Kit; 4052 First Aid Kit; 4056 First Aid Kit; 4058 First Aid Kit; 4059 First Aid Kit; 4060 First Aid Kit; 4061 First Aid Kit; 4062 First Aid Kit; 4063 First Aid Kit; 4068 First Aid Kit; 4069 First Aid Kit; 4074 First Aid Kit; 4076 First Aid Kit; 4081 First Aid Kit; 4082 First Aid Kit; 4083 First Aid Kit; 4084 First Aid Kit; 4085 First Aid Kit; 4086 First Aid Kit; 4087 First Aid Kit; 4088 First Aid Kit; 4089 First Aid Kit; 4090 First Aid Kit; 4097 First Aid Kit; 4098 First Aid Kit; 4099 First Aid Kit; 4100 First Aid Kit; 4101 First Aid Kit; 4102 First Aid Kit; 4103 First Aid Kit; 4104 First Aid Kit; 4105 First Aid Kit; 4106 First Aid Kit; 4107 First Aid Kit; 4108 First Aid Kit; 4109 First Aid Kit; 4110 First Aid Kit; 4111 First Aid Kit; 4112 First Aid Kit; 4113 First Aid Kit; 4114 First Aid Kit; 4115 First Aid Kit; 4116 First Aid Kit; 4117 First Aid Kit; 4118 First Aid Kit; 4119 First Aid Kit; 4120 First Aid Kit; 4129 First Aid Kit; 4131 First Aid Kit; 4132 First Aid Kit; 4133 First Aid Kit; 4138 First Aid Kit; 4140 First Aid Kit; 4141 First Aid Kit; 4144 First Aid Kit; 4146 First Aid Kit; 4147 First Aid Kit; 4148 First Aid Kit; 4149 First Aid Kit; 4151 First Aid Kit; 4152 First Aid Kit; 4157 First Aid Kit; 4162 First Aid Kit; 4165 First Aid Kit; 4166 First Aid Kit; 4167 First Aid Kit; 4184 First Aid Kit; 4185 First Aid Kit; 4186 First Aid Kit; 4187 First Aid Kit; 4190 First Aid Kit; 4191 First Aid Kit; 4195 First Aid Kit; 4197 First Aid Kit; 4198 First Aid Kit; 4199 First Aid Kit; 4200 First Aid Kit; 4201 First Aid Kit; 4202 First Aid Kit; 4206 First Aid Kit; 4207 First Aid Kit; 4218 First Aid Kit; 4219 First Aid Kit; 4220 First Aid Kit; 4225 First Aid Kit; 4227 First Aid Kit; 4228 First Aid Kit; 4231First Aid Kit; 4235 First Aid Kit; 4238 First Aid Kit; 4239 First Aid Kit; 4248 First Aid Kit; 4251 First Aid Kit; 4252 First Aid Kit; 4253 First Aid Kit; 4254 First Aid Kit; 4255 First Aid Kit; 4259 First Aid Kit; 4260 First Aid Kit; 4261 First Aid Kit; 4264 First Aid Kit; 4265 First Aid Kit; 4266 First Aid Kit; 4267 First Aid Kit; 4268 First Aid Kit; 4269 First Aid Kit; 4270 First Aid Kit; 4271 First Aid Kit; 4272 First Aid Kit; 4273 First Aid Kit; 4278 First Aid Kit; 4284 First Aid Kit; 4285 First Aid Kit; 4286 First Aid Kit; 4288 First Aid Kit; 4289 First Aid Kit; 4293 First Aid Kit; 4295 First Aid Kit; 4298 First Aid Kit; 4299 First Aid Kit; 4300 First Aid Kit; 4302 First Aid Kit; 4303 First Aid Kit; 4307 First Aid Kit; 4308 First Aid Kit; 4310 First Aid Kit; 4311 First Aid Kit; 4312 First Aid Kit; 4314 First Aid Kit; 4315 First Aid Kit; 4318 First Aid Kit; 4319 First Aid Kit; 4323 First Aid Kit; 4326 First Aid Kit; 4327 First Aid Kit; 4332 First Aid Kit; 4333 First Aid Kit; 4334 First Aid Kit; 4335 First Aid Kit; 4336 First Aid Kit; 4337 First Aid Kit; 4340 First Aid Kit; 4342 First Aid Kit; 4347 First Aid Kit; 4348 First Aid Kit; 4359 First Aid Kit; 4360 First Aid Kit; 4362 First Aid Kit; 4363 First Aid Kit; 4364 First Aid Kit; 4365 First Aid Kit; 4369 First Aid Kit; 4370 First Aid Kit; 4376 First Aid Kit; 4378 First Aid Kit; 4379 First Aid Kit; 4380 First Aid Kit; 4381 First Aid Kit; 4382 First Aid Kit; 4383 First Aid Kit; 4384 First Aid Kit; 4385 First Aid Kit; 4386 First Aid Kit; 4387 First Aid Kit; 4388 First Aid Kit; 4390 First Aid Kit; 4391 First Aid Kit; 4392 First Aid Kit; 4393 First Aid Kit; 4397 First Aid Kit; 4398 First Aid Kit; 4399 First Aid Kit; 4400 First Aid Kit; 4401 First Aid Kit; 4402 First Aid Kit; 50 Person ANSI; 5253 Hand Sanitizer; 5257 Hand Sanitizer; 5259 Hand Sanitizer; 5406 Hand Sanitizer; 5413 Hand Sanitizer; 62% Ethyl Alcohol Antiseptic Nasal; 7 Select Instant Hand Sanitizer with Vitamin E and Moisturizers; 7-11 Instant Hand Sanitizer With Aloe And Vitamin E; 70% Alcohol Hand Sanitizer; 8oz Hand Sanitizer W/pump Aloe Vera; 8oz Hand Sanitizer With Pump; 8oz Instant Hand Sanitizer Lavender; A Little Something Eucalyptus Mist Hand Sanitier; A Little Something Prosecco Bubbles Hand Sanitizer; ACME FIRST AID Contains 404 PIECES; AEROCLEANSE Instant Hand Sanitizer; ALOE hand sanitizer 01; AMP Instant Hand Sanitizer; AOGel; AOGel Hand Sanitizer Kids; AP HanSan; APRIL Bath and Shower Cucumber Melon Scented Antibacterial HAND SANITIZER; APRIL Bath and Shower Sweet Pea Scented Antibacterial HAND SANITIZER; APRIL Bath and Shower Warm Vanilla Sugar Scented Antibacterial HAND SANITIZER; ARC FIRST AID Contains 1000 PIECES; ARC FIRST AID Contains 303 PIECES; ARC FIRST AID Contains 303 PIECES HARDCASE; ARC FIRST AID Contains 404 PIECES; ARC FIRST AID Emergency Preparedness Contains 167 PIECES; ASSURED Instant Hand Sanitizer WITH MOISTURIZERS Aloe Vera and Moisturizers; Acqua Aroma Hand Sanitizer Gel; Actiprep; Actiprep Preoperative Skin Preparation; ActiveClean; Adriana 12oz Hand Sanitizer; Adriana 12oz Hand Sanitizer -aloe Vera; Adriana 8oz Hand Sanitizer - Aloe Vera; Adriana 8oz Hand Sanitizer -original; Adriana Clip On Hand Sanitizer; Advanced; Advanced Alcohol Foaming Hand Sanitizer; Advanced Alcohol Gel Sanitizer; Advanced Hand Sanitizer; Advanced Hand Sanitizer Berries; Advanced Hand Sanitizer Lavender; Advanced Hand Sanitizer Natural Aloe; Advanced Hand Sanitizer Vitamin E; Adventure First Aid .5 Tin; Adventure First Aid Water Resistant; Adventure Medical Kits 1 Person First Aid; Adventure Medical Kits 1-2 Person First Aid; Adventure Medical Kits 1-2 Person National Ski Patrol First Aid; Adventure Medical Kits 1-4 Person First Aid; Afassco Hand Sanitizer; Afassco Instant Hand Sanitizer; After Bite Wipe; After Bite Wipe Insect Sting Relief; Aftermath Hand Sanitizer; Aidplus Alcohol Cleansing Pad; Aidplus Sting Relief Prep Pad; Aire-Master; Aire-Master Sanitizer Gel vit e/a; Akileine Vaporisateur Antitranspirant; Al CaFoam; Al-San E3 Sanitizing; Alcare Enhanced Foaming Hand Sanitizer; Alcare Extra Hand Sanitizer; Alcare Foamed Antiseptic Handrub; Alcare OR Foamed Antiseptic Handrub; Alcare Plus Foamed Antiseptic Handrub; Alco Hand Sanitizer; Alco San; Alco-gel - Top 60%; Alco-san Instant Skin Sanitizer; Alcogel; Alcohol; Alcohol 5% and Dextrose 5% Inj USP; Alcohol 5% and Dextrose 5% Injection USP; Alcohol Cleansing Pad; Alcohol Disinfecting Wipe; Alcohol Foam San; Alcohol Foaming Hand Sanitizer; Alcohol Hand Sanitizer; Alcohol Prep Pad; Alcohol Wipes; Alcohol and Dextrose; Alcohol in Dextrose; Alcohol swab; Alcorub (rubbing Alcohol Compound); Alcoscrub Foam; Alcoscrub Hand Cleaner; Algonquin FoamSan; Algonquin HanSan; All Day Hand Sanitizer Ultra; All Fresh by Alsco Instant Mist Hand Sanitizer; Alluring Encounter Hand Sanitizer; Almond Antibacterial Hand Sanitizer; Aloe Scent A B Hand Sanitizing; Aloe Touch; AloeSafe Antiseptic Hand Sanitizer; Alpet E3 Hand Sanitizer Foam; Alpet E3 Plus Hand Sanitizer; Alpet E3 Plus Hand Sanitizer Spray; Alpha E-3; Alpha E-3 Instant Hand Sanitizer; Altitude Medical Hand Sanitizer; AltitudeMedical HAND ANTIBACTERIAL; AmeriDerm Foam Alcohol Hand Sanitizer; American Continental Techlabs, LLC INSTANT HAND SANITIZER; American Infection Control Antiseptic Body Wipes; American Infection Control Antiseptic Hand Wipes; American Red Cross First Aid Kit; Ammonia Inhalants; Amoray Premium Instant Hand Sanitizer With Aloe and Vitamin E Fresh Citrus; Amoray Premium Instant Hand Sanitizer With Aloe and Vitamin E Lavender; Amoray Premium Instant Hand Sanitizer With Aloe and Vitamin E Original; Amoray Premium Instant Hand Sanitizer With Aloe and Vitamin E Strawberry; Amoveo 80%; Amoveo Original; Amoveo Unscented; Angel Falls Hand Sanitizer; Angel Foodcake Hand Sanitizer; Aniosgel 85 Npc; Anti Bacterial Hand Sanitizer; Anti-Bacterial Conditioning Hand Sanitizer Coconut Lime Verbena; Anti-Bacterial Conditioning Hand Sanitizer Dancing Waters; Anti-Bacterial Conditioning Hand Sanitizer Japanese Cherry Blossom; Anti-Bacterial Conditioning Hand Sanitizer Midnight Pomegranate; Anti-Bacterial Conditioning Hand Sanitizer Sweet Pea; Anti-Bacterial Conditioning Hand Sanitizer Twilight Woods; Anti-Bacterial Conditioning Hand Sanitizer Warm Vanilla Sugar; Anti-Bacterial Conditioning Hand Sanitizer White Citrus; Anti-Bacterial Deep Cleansing Hand Fresh Lemon; Anti-Bacterial Deep Cleansing Hand Yuletide Pear Vanilla; Anti-Bacterial Foaming Mousse Hand Sanitizer Iced Gingerbread; Anti-Bacterial Foaming Mousse Hand Sanitizer Sugar Plum Dream; Anti-Bacterial Foaming Mousse Hand Sanitizer Twisted Peppermint; Anti-Bacterial Foaming Mousse Hand Sanitizer Vanilla Bean Noel; Anti-Bacterial Foaming Mousse Hand Sanitizer Winter Candy Apple; Anti-Bacterial Hand A Thousand Wishes; Anti-Bacterial Hand A Unicorn Ate My Homework; Anti-Bacterial Hand A Walk In The Woods; Anti-Bacterial Hand Adork-Able Cool Breeze; Anti-Bacterial Hand Afternoon Apple Picking; Anti-Bacterial Hand All Star Apple; Anti-Bacterial Hand Aloha Hawaii; Anti-Bacterial Hand Aloha Orchid; Anti-Bacterial Hand Amazon Rainforest Orchid; Anti-Bacterial Hand American Apple; Anti-Bacterial Hand American Berry Pie; Anti-Bacterial Hand American Peace Sign; Anti-Bacterial Hand Angel Cookie Nice; Anti-Bacterial Hand Angel Food; Anti-Bacterial Hand Apple; Anti-Bacterial Hand Apple Candy; Anti-Bacterial Hand Apple Glow; Anti-Bacterial Hand Apple Lavender; Anti-Bacterial Hand Apple Mango; Anti-Bacterial Hand Apple Pie; Anti-Bacterial Hand Apple Wreath; Anti-Bacterial Hand Apricot Bloom; Anti-Bacterial Hand Apricot Mango; Anti-Bacterial Hand Aqua Blossom; Anti-Bacterial Hand Aquarius; Anti-Bacterial Hand Aromatherapy Stress Relief Eucalyptus Spearmint; Anti-Bacterial Hand Aspen Autumn Day; Anti-Bacterial Hand At The Beach; Anti-Bacterial Hand At the Beach 2; Anti-Bacterial Hand Autumn Owl Cranberry Apple; Anti-Bacterial Hand Autumn Vines Wine Not; Anti-Bacterial Hand BFF; Anti-Bacterial Hand BFF Berry; Anti-Bacterial Hand BRB Banana; Anti-Bacterial Hand Baa Black Cherry; Anti-Bacterial Hand Bae Watch; Anti-Bacterial Hand Bae Watch Beach Breeze; Anti-Bacterial Hand Bag of Grapes; Anti-Bacterial Hand Bali; Anti-Bacterial Hand Bali Coconut Cove; Anti-Bacterial Hand Bat Bite; Anti-Bacterial Hand Bat Bite Apple; Anti-Bacterial Hand Be Fab Everyday; Anti-Bacterial Hand Be Joyful; Anti-Bacterial Hand BeYouTiful; Anti-Bacterial Hand Beach Bellini; Anti-Bacterial Hand Beach House; Anti-Bacterial Hand Beach Please; Anti-Bacterial Hand Beach, Alpaca Towel (Banana Rama); Anti-Bacterial Hand Beautiful Day; Anti-Bacterial Hand Bee Happy; Anti-Bacterial Hand Bee You; Anti-Bacterial Hand Bee-autiful; Anti-Bacterial Hand BeeNice Honeyberry; Anti-Bacterial Hand BeeWell Lavender Honey; Anti-Bacterial Hand Believe; Anti-Bacterial Hand Believe Pink Citrus; Anti-Bacterial Hand Bella Flora; Anti-Bacterial Hand Bellini Dream; Anti-Bacterial Hand Bergamot Mandarin; Anti-Bacterial Hand Bermuda Plumeria Sunrise; Anti-Bacterial Hand Berry; Anti-Bacterial Hand Berry Crisp Cookie; Anti-Bacterial Hand Berry Crush; Anti-Bacterial Hand Berry Freeze; Anti-Bacterial Hand Berry Galactic Swirl; Anti-Bacterial Hand Berry Lemonade; Anti-Bacterial Hand Berry Paris; Anti-Bacterial Hand Berry Sangria; Anti-Bacterial Hand Berry Scary; Anti-Bacterial Hand Berry Scary Ghoul Friend; Anti-Bacterial Hand Berry Swirl; Anti-Bacterial Hand Berry Twinkle; Anti-Bacterial Hand Best Day Ever; Anti-Bacterial Hand Best Friends; Anti-Bacterial Hand Best Teacher Ever; Anti-Bacterial Hand Best of Luck (Lemon Zest); Anti-Bacterial Hand Better Have My Candy; Anti-Bacterial Hand Big Blue Sky; Anti-Bacterial Hand Birthday Wishes (Cake Batter); Anti-Bacterial Hand Black Chamomile; Anti-Bacterial Hand Black Cherry; Anti-Bacterial Hand Black Cherry Merlot; Anti-Bacterial Hand Black Cherry Merlot 2; Anti-Bacterial Hand Black Pearl; Anti-Bacterial Hand Blue Berry; Anti-Bacterial Hand Blue Chiffon; Anti-Bacterial Hand Blue Raspberry; Anti-Bacterial Hand Blueberry Cake Donut; Anti-Bacterial Hand Blueberry Pancake; Anti-Bacterial Hand Blushing Berry; Anti-Bacterial Hand Blushing Tulips and Peonies; Anti-Bacterial Hand Boardwalk Vanilla Cone; Anti-Bacterial Hand Boo Ghostly Raspberry; Anti-Bacterial Hand Boo Marshmallow; Anti-Bacterial Hand Bougie; Anti-Bacterial Hand Bourbon; Anti-Bacterial Hand Bourbon Street Buttercream; Anti-Bacterial Hand Brazil Pineapple Punch; Anti-Bacterial Hand BrewBerry; Anti-Bacterial Hand Bride Squad (Sparkling Pink Champagne); Anti-Bacterial Hand Bride To Be (Strawberry Mimosa); Anti-Bacterial Hand Bride Tribe Rose Water Ivy; Anti-Bacterial Hand Bright Autumn Day; Anti-Bacterial Hand Brown Sugar and Carrots; Anti-Bacterial Hand Brownie Mix; Anti-Bacterial Hand Bubble Gum Burst; Anti-Bacterial Hand But First Champagne; Anti-Bacterial Hand Buttercream; Anti-Bacterial Hand Cactus Flower and Coconut; Anti-Bacterial Hand California Citrus Sunshine; Anti-Bacterial Hand California Poppy; Anti-Bacterial Hand Calypso Berry; Anti-Bacterial Hand Cancer; Anti-Bacterial Hand Candi Corn; Anti-Bacterial Hand Candi-corn (Boo Raspberry); Anti-Bacterial Hand Candy Apple; Anti-Bacterial Hand Candy Cane Bliss; Anti-Bacterial Hand Candy Corn; Anti-Bacterial Hand Capricorn; Anti-Bacterial Hand Caramel Apple; Anti-Bacterial Hand Caramel Dream; Anti-Bacterial Hand Caribbean Escape; Anti-Bacterial Hand Chamomile; Anti-Bacterial Hand Champagne Sparkle; Anti-Bacterial Hand Champagne Toast; Anti-Bacterial Hand Charmed Life; Anti-Bacterial Hand Charming Chick Sweet Strawberry; Anti-Bacterial Hand Check Meowt Pomegranate; Anti-Bacterial Hand Cheeky Berry; Anti-Bacterial Hand Cheer Holiday Berries; Anti-Bacterial Hand Cheers to Being Fabulous; Anti-Bacterial Hand Cherry; Anti-Bacterial Hand Cherry Almond Shortbread; Anti-Bacterial Hand Cherry Champagne Toast; Anti-Bacterial Hand Cherry London; Anti-Bacterial Hand Chill Out Sea Breeze; Anti-Bacterial Hand Chocolate Chew; Anti-Bacterial Hand Chocolate Chunk Cookie; Anti-Bacterial Hand Chocolate Creme Donut; Anti-Bacterial Hand Christmas Candy; Anti-Bacterial Hand Christmas Cookies; Anti-Bacterial Hand Christmas Morning; Anti-Bacterial Hand Cilantro Peach; Anti-Bacterial Hand Cinnamon Glazed Donut; Anti-Bacterial Hand Cinnamon Heaven; Anti-Bacterial Hand Cinnamon Raisin Cookie; Anti-Bacterial Hand Cinnamon Spiced Vanilla; Anti-Bacterial Hand Citrus; Anti-Bacterial Hand Citrus Blue Berry; Anti-Bacterial Hand Citrus Crush; Anti-Bacterial Hand Citrus Mint; Anti-Bacterial Hand Citrus Orchid Chill; Anti-Bacterial Hand Citrus Sunshine; Anti-Bacterial Hand Coastal Surf and Sun; Anti-Bacterial Hand Cocktail Mania; Anti-Bacterial Hand Cocktails and Confetti; Anti-Bacterial Hand Cocoa Mint; Anti-Bacterial Hand Cocoloco; Anti-Bacterial Hand Coconut; Anti-Bacterial Hand Coconut Beach; Anti-Bacterial Hand Coconut Cabana; Anti-Bacterial Hand Coconut Candy; Anti-Bacterial Hand Coconut Cooler; Anti-Bacterial Hand Coconut Cove; Anti-Bacterial Hand Coconut Lime Verbena; Anti-Bacterial Hand Coconut Pumpkin Latte; Anti-Bacterial Hand Coconut Punch; Anti-Bacterial Hand Coconut Water Chill; Anti-Bacterial Hand Coffee Is My Spirit Animal; Anti-Bacterial Hand Colada; Anti-Bacterial Hand Colada Craze; Anti-Bacterial Hand Comets Ginger Mint; Anti-Bacterial Hand Congrats; Anti-Bacterial Hand Cool Coconut; Anti-Bacterial Hand Cool Coconut Colada; Anti-Bacterial Hand Cool Summer Splash; Anti-Bacterial Hand Copacabana Coconut; Anti-Bacterial Hand Coral Reef; Anti-Bacterial Hand Cosmic Clean; Anti-Bacterial Hand Cotton Candy Bliss; Anti-Bacterial Hand Cozy Vanilla Cream; Anti-Bacterial Hand Cranapple Crisp; Anti-Bacterial Hand Cranberry Harvest; Anti-Bacterial Hand Cranberry Peach; Anti-Bacterial Hand Cranberry Twinkle; Anti-Bacterial Hand Creamy Pumpkin; Anti-Bacterial Hand Creep It Real (Caramel Apple); Anti-Bacterial Hand Crisp Golden Pear; Anti-Bacterial Hand Crisp Morning Air; Anti-Bacterial Hand Crushed Berry; Anti-Bacterial Hand Cucumber; Anti-Bacterial Hand Cucumber Melon; Anti-Bacterial Hand Cucumber Mint; Anti-Bacterial Hand Cucumber and Lily; Anti-Bacterial Hand Daisy Dreamgirl; Anti-Bacterial Hand Dancing Waters; Anti-Bacterial Hand Dashers Apple Mint; Anti-Bacterial Hand Dazzling Diamond; Anti-Bacterial Hand Dazzling Diamonds; Anti-Bacterial Hand Devils Food; Anti-Bacterial Hand Dont Quit Your Daydream; Anti-Bacterial Hand Dont Quit Your Daydream (Sweet Star Quest); Anti-Bacterial Hand Donut Judge Me; Anti-Bacterial Hand Drama Dog Strawberry; Anti-Bacterial Hand Dreamer; Anti-Bacterial Hand Easy Peasy Lemon Squeezy; Anti-Bacterial Hand Eat Ham Cranberry Sauce; Anti-Bacterial Hand Eek Yummy Mummy Marshmallow; Anti-Bacterial Hand Electric Mango; Anti-Bacterial Hand Electric Raspberry; Anti-Bacterial Hand Elfin Around; Anti-Bacterial Hand Emoji Series; Anti-Bacterial Hand Endless Weekend; Anti-Bacterial Hand Eucalyptus Mint; Anti-Bacterial Hand Eucalyptus Spearmint; Anti-Bacterial Hand Eucalyptus Tea; Anti-Bacterial Hand Exotic Rainforest; Anti-Bacterial Hand Fa La La La Latte (Gingerbread Latte); Anti-Bacterial Hand Fa La La La Llama; Anti-Bacterial Hand Fall Lakeside Breeze; Anti-Bacterial Hand Fashionably Latte; Anti-Bacterial Hand Feast Mode; Anti-Bacterial Hand Feelin Lucky Apple; Anti-Bacterial Hand Feline Good (Cherry Sweet); Anti-Bacterial Hand Fiji; Anti-Bacterial Hand Fiji White Sands; Anti-Bacterial Hand Fiji White Sands 2; Anti-Bacterial Hand Firework Fizz; Anti-Bacterial Hand First Snow Fall; Anti-Bacterial Hand Fizzy Fruit Pop; Anti-Bacterial Hand Flannel; Anti-Bacterial Hand Flawless; Anti-Bacterial Hand Fleece Navidad; Anti-Bacterial Hand Flip Flopped Fruit; Anti-Bacterial Hand Florida Orange; Anti-Bacterial Hand Foam Coconut Lime Verbena; Anti-Bacterial Hand Foam Cucumber Melon; Anti-Bacterial Hand Foam Dancing Waters; Anti-Bacterial Hand Foam Fresh Lemon; Anti-Bacterial Hand Foam Fresh Lime Basil; Anti-Bacterial Hand Foam Fresh Market Apple; Anti-Bacterial Hand Foam Island Nectar; Anti-Bacterial Hand Foam Japanese Cherry Blossom; Anti-Bacterial Hand Foam Midnight Pomegranate; Anti-Bacterial Hand Foam Orange Sapphire; Anti-Bacterial Hand Foam Sea Island Cotton; Anti-Bacterial Hand Foam Sweet Pea; Anti-Bacterial Hand Foam Twilight Woods; Anti-Bacterial Hand Foam Unscented; Anti-Bacterial Hand Foam Warm Vanilla Sugar; Anti-Bacterial Hand Foam White Citrus; Anti-Bacterial Hand Forbidden Apple; Anti-Bacterial Hand Fragrance Free; Anti-Bacterial Hand Free Spirit; Anti-Bacterial Hand French Kiss Berry; Anti-Bacterial Hand French Lavendar; Anti-Bacterial Hand French Lavender; Anti-Bacterial Hand Fresh Balsam; Anti-Bacterial Hand Fresh Bamboo; Anti-Bacterial Hand Fresh Lavender; Anti-Bacterial Hand Fresh Lemon; Anti-Bacterial Hand Fresh Lemon Daisy; Anti-Bacterial Hand Fresh Lime Basil; Anti-Bacterial Hand Fresh Linen; Anti-Bacterial Hand Fresh Market Apple; Anti-Bacterial Hand Fresh Picked Anjou Pear; Anti-Bacterial Hand Fresh Picked Apple Blossoms; Anti-Bacterial Hand Fresh Picked Apples; Anti-Bacterial Hand Fresh Picked Apricots; Anti-Bacterial Hand Fresh Picked Blackberries; Anti-Bacterial Hand Fresh Picked Blueberries; Anti-Bacterial Hand Fresh Picked Cherries; Anti-Bacterial Hand Fresh Picked Crimson Plum; Anti-Bacterial Hand Fresh Picked Crisp Apples; Anti-Bacterial Hand Fresh Picked Farmstand Apple; Anti-Bacterial Hand Fresh Picked First Bloom; Anti-Bacterial Hand Fresh Picked Garden Herbs; Anti-Bacterial Hand Fresh Picked Garden Strawberries; Anti-Bacterial Hand Fresh Picked Golden Apricot; Anti-Bacterial Hand Fresh Picked Heirloom Cranberries; Anti-Bacterial Hand Fresh Picked Heirloom Pear; Anti-Bacterial Hand Fresh Picked Market Peach; Anti-Bacterial Hand Fresh Picked Meyer Lemon; Anti-Bacterial Hand Fresh Picked Peaches; Anti-Bacterial Hand Fresh Picked Pear; Anti-Bacterial Hand Fresh Picked Pears; Anti-Bacterial Hand Fresh Picked Pink Passion Fruit; Anti-Bacterial Hand Fresh Picked Pomegranates; Anti-Bacterial Hand Fresh Picked Raspberries; Anti-Bacterial Hand Fresh Picked Strawberries; Anti-Bacterial Hand Fresh Picked Sweet Clementine; Anti-Bacterial Hand Fresh Picked Sweet Tangerines; Anti-Bacterial Hand Fresh Picked Tangerines; Anti-Bacterial Hand Fresh Picked Tuscan Melon; Anti-Bacterial Hand Fresh Picked Vineyard Wildberries; Anti-Bacterial Hand Fresh Picked Watermelon; Anti-Bacterial Hand Fresh Picked Wildberries; Anti-Bacterial Hand Fresh Sparkling Snow; Anti-Bacterial Hand Fresh Strawberries; Anti-Bacterial Hand Fresh Watermelon; Anti-Bacterial Hand Fresh Watermelon Lemonade; Anti-Bacterial Hand Freshwater for Men; Anti-Bacterial Hand Fri Yay; Anti-Bacterial Hand Frosted Coconut Snowball; Anti-Bacterial Hand Frosted Cranberry; Anti-Bacterial Hand Frosted Snowberry; Anti-Bacterial Hand Frosted Snowman; Anti-Bacterial Hand Frosted Wonderland; Anti-Bacterial Hand Frozen Kiwi; Anti-Bacterial Hand Fruit Punch; Anti-Bacterial Hand Fruit Punch Vegas; Anti-Bacterial Hand Future Mrs (Pretty As A Peach); Anti-Bacterial Hand G2G Grape; Anti-Bacterial Hand Gardenia Spring Rain; Anti-Bacterial Hand Gardenia and Spring Rain; Anti-Bacterial Hand Gel; Anti-Bacterial Hand Gel Apple Pie; Anti-Bacterial Hand Gel Candy Apple; Anti-Bacterial Hand Gel Caribbean Escape; Anti-Bacterial Hand Gel Cotton Candy; Anti-Bacterial Hand Gel Fresh Picked Strawberries; Anti-Bacterial Hand Gel Mango Madness; Anti-Bacterial Hand Gel Pink Lemonade; Anti-Bacterial Hand Gel Sweet Pea; Anti-Bacterial Hand Gel Vanilla Cupcake; Anti-Bacterial Hand Gemini; Anti-Bacterial Hand Georgia Bourbon Peach; Anti-Bacterial Hand Georgia Peach; Anti-Bacterial Hand Get Whale Soon (Coconut Water); Anti-Bacterial Hand Ghoul Friend; Anti-Bacterial Hand Ghoul Friend (Wickedly Wild Berries); Anti-Bacterial Hand Ghoul Friend Berry Scary; Anti-Bacterial Hand Ginger Snap; Anti-Bacterial Hand Gingerbread Latte; Anti-Bacterial Hand Gingham; Anti-Bacterial Hand Girl Boss; Anti-Bacterial Hand Girls Just Want to Have Sun; Anti-Bacterial Hand Girls Support Girls Cherry Chill; Anti-Bacterial Hand Give Thanks; Anti-Bacterial Hand Gnome For The Holidays; Anti-Bacterial Hand Goal Digger; Anti-Bacterial Hand Gold Dust; Anti-Bacterial Hand Golden Autumn Citrus; Anti-Bacterial Hand Golden Autumn Day; Anti-Bacterial Hand Golden Pineapple Luau; Anti-Bacterial Hand Good At Naps Dewy Lavender; Anti-Bacterial Hand Good Vibes Only; Anti-Bacterial Hand Good Vibes Only Coconut; Anti-Bacterial Hand Gorgeous Grape; Anti-Bacterial Hand Graham Cracker Marshmallow; Anti-Bacterial Hand Grape; Anti-Bacterial Hand Grape Glam; Anti-Bacterial Hand Greatest Ever Icy Air; Anti-Bacterial Hand Green Apple; Anti-Bacterial Hand Green Goddess; Anti-Bacterial Hand Green Tea; Anti-Bacterial Hand Guava Grapefruit; Anti-Bacterial Hand Gum Ball; Anti-Bacterial Hand Hands Off My Honey; Anti-Bacterial Hand Happy Birthday; Anti-Bacterial Hand Happy Birthday (Birthday Cake); Anti-Bacterial Hand Happy Birthday (Vanilla Cupcake); Anti-Bacterial Hand Happy Easter; Anti-Bacterial Hand Harvest Mouse Citrus; Anti-Bacterial Hand Hawaii Honolulu Sun; Anti-Bacterial Hand Hawaiian Pink Hibiscus; Anti-Bacterial Hand Heart of Gold Berry Sweet; Anti-Bacterial Hand Heartland Harvest Marmalade; Anti-Bacterial Hand Hello Beautiful; Anti-Bacterial Hand Hello Im A Mermaid Ocean Breeze; Anti-Bacterial Hand Hello Im A Unicorn Berry Lemonade; Anti-Bacterial Hand Hello Sweet Baby (Soft and Fresh); Anti-Bacterial Hand Help Me Cranberry Sauce; Anti-Bacterial Hand Hey Thanks (Berry Grateful); Anti-Bacterial Hand Hip Hop Plum; Anti-Bacterial Hand Hippo Berry; Anti-Bacterial Hand Ho Ho Cookie Dough; Anti-Bacterial Hand Ho Ho Oh; Anti-Bacterial Hand Hogs and Kisses; Anti-Bacterial Hand Holly Berry Wreath; Anti-Bacterial Hand Home Run Green Grass; Anti-Bacterial Hand Honey Pretzel; Anti-Bacterial Hand Honey Sweetheart; Anti-Bacterial Hand Honey Vanilla; Anti-Bacterial Hand Honeydew Cooler; Anti-Bacterial Hand Honolulu Sun; Anti-Bacterial Hand Hoot Berry; Anti-Bacterial Hand Hoot Eerie Pear; Anti-Bacterial Hand Hoot Fruit; Anti-Bacterial Hand Hot Cocoa and Cream; Anti-Bacterial Hand Hot Vanilla Sugar; Anti-Bacterial Hand Howl O Ween; Anti-Bacterial Hand Hula Girl; Anti-Bacterial Hand I Believe In Humans (Sweet As Strawberries); Anti-Bacterial Hand I Believe In Santa and Unicorns (Christmas Berry); Anti-Bacterial Hand I Donut Care; Anti-Bacterial Hand I Got It From My Mama; Anti-Bacterial Hand I Heart Bling Sparkle Berry; Anti-Bacterial Hand I Heart Bubble Gum; Anti-Bacterial Hand I Heart Cake; Anti-Bacterial Hand I Heart Cookie Dough; Anti-Bacterial Hand I Heart Watermelon Apple; Anti-Bacterial Hand I Heart Watermelon Basil; Anti-Bacterial Hand I Heart Watermelon Cherry; Anti-Bacterial Hand I Heart You Bouquet; Anti-Bacterial Hand I Like You A Latte (Marshmellow Pumpkin Latte); Anti-Bacterial Hand I Like You A Waffle Lot; Anti-Bacterial Hand I Love Bling Rock Candy; Anti-Bacterial Hand I Love Cake Frosting; Anti-Bacterial Hand I Love Caramel Apples; Anti-Bacterial Hand I Love Cinnamon Buns; Anti-Bacterial Hand I Love Cookie Dough; Anti-Bacterial Hand I Love Glitter; Anti-Bacterial Hand I Love Pumpkin; Anti-Bacterial Hand I Love Smores; Anti-Bacterial Hand I Love You Bouquet; Anti-Bacterial Hand I Need Space Cosmic Berry; Anti-Bacterial Hand I Need a Snow Day; Anti-Bacterial Hand Iced Blackberries; Anti-Bacterial Hand Iced Gingerbread; Anti-Bacterial Hand Iced Guava Colada; Anti-Bacterial Hand Iced White Pomegranate; Anti-Bacterial Hand Im A Unicorn (Berry Lemonade); Anti-Bacterial Hand Im A Unicorn (Berry Lemonade) 2; Anti-Bacterial Hand Im Really A Mermaid (Perfect Beach Day); Anti-Bacterial Hand Im Really A Mermaid Perfect Beach Day; Anti-Bacterial Hand Im Smitten; Anti-Bacterial Hand Im So Fancy Raspberry Sparkle; Anti-Bacterial Hand Imagine Believe Achieve; Anti-Bacterial Hand In The Stars; Anti-Bacterial Hand Indonesia; Anti-Bacterial Hand Into The Night; Anti-Bacterial Hand Island Bamboo; Anti-Bacterial Hand Island Breeze; Anti-Bacterial Hand Island Margarita; Anti-Bacterial Hand Island Nectar; Anti-Bacterial Hand Island Papaya; Anti-Bacterial Hand Island White Pineapple; Anti-Bacterial Hand Italian Getaway; Anti-Bacterial Hand Italy Tuscan Lemon Tart; Anti-Bacterial Hand Its A Beard Thing (Fresh Apple); Anti-Bacterial Hand Jack O Pumpkin; Anti-Bacterial Hand Jamaica Pineapple Colada; Anti-Bacterial Hand Japanese Cherry Blossom; Anti-Bacterial Hand Jawesome Sea Breeze; Anti-Bacterial Hand Jelly Jam Donut; Anti-Bacterial Hand Jingle All the Way; Anti-Bacterial Hand Jingle Bell Berry; Anti-Bacterial Hand Jolly Gingerbread; Anti-Bacterial Hand Jolly Gingerbread Cookie; Anti-Bacterial Hand Joy; Anti-Bacterial Hand Joy Holiday Frost; Anti-Bacterial Hand Juice Box; Anti-Bacterial Hand Juicy Georgia Peach; Anti-Bacterial Hand Juicy Watermelon; Anti-Bacterial Hand Jungle Fruit; Anti-Bacterial Hand Jurassic Juice (Dino Mite); Anti-Bacterial Hand Just Be Cool; Anti-Bacterial Hand Just Peachy; Anti-Bacterial Hand Kiss Kiss Mistletoe; Anti-Bacterial Hand Kiwi Pear; Anti-Bacterial Hand LOL Lime; Anti-Bacterial Hand Lavender Blossom; Anti-Bacterial Hand Lavender Cedarwood; Anti-Bacterial Hand Lavender and Vanilla; Anti-Bacterial Hand Lemon; Anti-Bacterial Hand Lemon Clementine; Anti-Bacterial Hand Lemon Daisy; Anti-Bacterial Hand Lemon Meringue Cheer; Anti-Bacterial Hand Lemon Pomegranate; Anti-Bacterial Hand Lemon Sunshine Slush; Anti-Bacterial Hand Lemon Woods; Anti-Bacterial Hand Lemon Zest; Anti-Bacterial Hand Let it Snow; Anti-Bacterial Hand Libra; Anti-Bacterial Hand Lime Basil; Anti-Bacterial Hand Lime Rome; Anti-Bacterial Hand Liquid Sunshine; Anti-Bacterial Hand Lit; Anti-Bacterial Hand Little Star (Clean and Soft); Anti-Bacterial Hand London Cherry Almond Shortbread; Anti-Bacterial Hand Love Bugs Pink Lemonade; Anti-Bacterial Hand Love Peach and Joy; Anti-Bacterial Hand Love Pink Lemonade; Anti-Bacterial Hand Love is Here (Suntan); Anti-Bacterial Hand Lucky Love; Anti-Bacterial Hand Lump of Coal; Anti-Bacterial Hand Macau; Anti-Bacterial Hand Mad About You; Anti-Bacterial Hand Magic In The Air; Anti-Bacterial Hand Magic in the Air; Anti-Bacterial Hand Magnolias and Mimosas; Anti-Bacterial Hand Mahogany Teakwood; Anti-Bacterial Hand Make A Splash (Turquoise Waters); Anti-Bacterial Hand Make It Rein; Anti-Bacterial Hand Malaysia; Anti-Bacterial Hand Malibu Citrus; Anti-Bacterial Hand Malibu Sunset; Anti-Bacterial Hand Mandarin Citron; Anti-Bacterial Hand Mandarin Nectar; Anti-Bacterial Hand Mango Berry Sparkler; Anti-Bacterial Hand Mango Dragonfruit; Anti-Bacterial Hand Mango Hibiscus; Anti-Bacterial Hand Mango Mai Tai; Anti-Bacterial Hand Mango Margarita; Anti-Bacterial Hand Mango Paradise; Anti-Bacterial Hand Mango Starfruit Freeze; Anti-Bacterial Hand Many Thanks (Apricot and Apple); Anti-Bacterial Hand Many Thanks (Apricot and Apple) 2; Anti-Bacterial Hand Marshmallow; Anti-Bacterial Hand Marshmallow Fireside; Anti-Bacterial Hand Marshmallow Mittens; Anti-Bacterial Hand Marshmallow Pumpkin Latte; Anti-Bacterial Hand Marshmallow Treat; Anti-Bacterial Hand Maui; Anti-Bacterial Hand Maui Mango Mai Tai; Anti-Bacterial Hand Maui Sunset; Anti-Bacterial Hand Mediterranean Lemon; Anti-Bacterial Hand Meet Me in Paris; Anti-Bacterial Hand Melon Forever; Anti-Bacterial Hand Melting Marshmallow; Anti-Bacterial Hand Mer-maid to Be (Citrus Sands); Anti-Bacterial Hand Mermaid At Heart (Berry Lemonade); Anti-Bacterial Hand Mermaid BFFs Pineapple Coconut; Anti-Bacterial Hand Mermaid For The Holidays (Winter Waters); Anti-Bacterial Hand Mermaids Are My Spirit Animal; Anti-Bacterial Hand Mermazing; Anti-Bacterial Hand Merry And Bright; Anti-Bacterial Hand Merry Berry Christmas; Anti-Bacterial Hand Merry Berry Kiss; Anti-Bacterial Hand Merry Berry Sparkler; Anti-Bacterial Hand Merry Cherry Cheer; Anti-Bacterial Hand Merry Cherry Love; Anti-Bacterial Hand Merry Cookie; Anti-Bacterial Hand Merry Holiday Sparkle; Anti-Bacterial Hand Merry Marshmallow Kiss; Anti-Bacterial Hand Midnight Pomegranate; Anti-Bacterial Hand Mint Mojito; Anti-Bacterial Hand Miss to Mrs (Pretty As A Peach); Anti-Bacterial Hand Mistletoe Kiss; Anti-Bacterial Hand Mistletoe and Mimosas; Anti-Bacterial Hand Monster Mint; Anti-Bacterial Hand Montana Mountain Air; Anti-Bacterial Hand More Love Less Hate Lemonade; Anti-Bacterial Hand Morning Stroll; Anti-Bacterial Hand Mrs Claus Apple Pie; Anti-Bacterial Hand My Dog Is My Spirit Animal; Anti-Bacterial Hand Napa Valley Sunset; Anti-Bacterial Hand Napping Club (Wild Berry); Anti-Bacterial Hand Naughty Nice I Tried; Anti-Bacterial Hand Nectarine Mint; Anti-Bacterial Hand Nectarine Sun Tea; Anti-Bacterial Hand Need A Hand Starbright Citrus; Anti-Bacterial Hand Nerdy Emoji; Anti-Bacterial Hand Nerdy Vanilla; Anti-Bacterial Hand Never Stop Dreaming (Sugared Honeysuckle); Anti-Bacterial Hand Never Stop Dreaming (Sugared Honeysuckle) 2; Anti-Bacterial Hand New Phone Who Dis; Anti-Bacterial Hand New York Big Apple Sparkler; Anti-Bacterial Hand Nice; Anti-Bacterial Hand Ninjabread Man; Anti-Bacterial Hand No Llama Drama (Chill Berry); Anti-Bacterial Hand No Shade; Anti-Bacterial Hand Noir For Men; Anti-Bacterial Hand Not Your Boo; Anti-Bacterial Hand Nurse Life (Lemon and Mint); Anti-Bacterial Hand Nutcracker Sweet; Anti-Bacterial Hand OH Snap Cotton Candy; Anti-Bacterial Hand Ocean; Anti-Bacterial Hand Ocean Citrus; Anti-Bacterial Hand Ocean For Men; Anti-Bacterial Hand Ocean Pearl; Anti-Bacterial Hand Ocean Rain; Anti-Bacterial Hand Ocean Road; Anti-Bacterial Hand Ocean Sunset; Anti-Bacterial Hand Ocean for Men (Ocean Rain); Anti-Bacterial Hand Oh Snap; Anti-Bacterial Hand On Christmas We Wear Pink; Anti-Bacterial Hand On Fleek; Anti-Bacterial Hand Ooh La La French Blooms; Anti-Bacterial Hand Orange Ginger; Anti-Bacterial Hand Orange Ice Pop; Anti-Bacterial Hand Orange Sapphire; Anti-Bacterial Hand Orchard Apple; Anti-Bacterial Hand Orchard Bloom; Anti-Bacterial Hand Orchard Frost; Anti-Bacterial Hand Orchard Leaves; Anti-Bacterial Hand Orchard Walk; Anti-Bacterial Hand PB and J; Anti-Bacterial Hand Pacific Blue; Anti-Bacterial Hand Pacific Cool Breeze; Anti-Bacterial Hand Panda Pear; Anti-Bacterial Hand Papaya Melon Scoop; Anti-Bacterial Hand Paradise Coconut; Anti-Bacterial Hand Paradise Plumeria; Anti-Bacterial Hand Paris Amour; Anti-Bacterial Hand Paris Pink Champagne and Tulips; Anti-Bacterial Hand Part-Time Unicorn (Honolulu Sun); Anti-Bacterial Hand Party Animal Confetti Cake; Anti-Bacterial Hand Party Cool Splash; Anti-Bacterial Hand Passionfruit Colada; Anti-Bacterial Hand Passionfruit Fig; Anti-Bacterial Hand Passionfruit Plum; Anti-Bacterial Hand Paws for Raspberry; Anti-Bacterial Hand Peach; Anti-Bacterial Hand Peach Bellini; Anti-Bacterial Hand Peach Blossom; Anti-Bacterial Hand Peach Mango 2; Anti-Bacterial Hand Peach Pecan Cupcake; Anti-Bacterial Hand Peach Poppy; Anti-Bacterial Hand Peach Punch; Anti-Bacterial Hand Peachy Play; Anti-Bacterial Hand Pear Berry Cuddles; Anti-Bacterial Hand Pear Tree; Anti-Bacterial Hand Pear Wood Cider; Anti-Bacterial Hand Peppermint Patty; Anti-Bacterial Hand Peppermint Stick; Anti-Bacterial Hand Peppermint and Tea Tree (Peaceful); Anti-Bacterial Hand Perfect Autumn Day; Anti-Bacterial Hand Perfect Beach Day; Anti-Bacterial Hand Phantom Pumpkin; Anti-Bacterial Hand Pineapple Colada; Anti-Bacterial Hand Pineapple Mango; Anti-Bacterial Hand Pineapple Mojo; Anti-Bacterial Hand Pineapple Punch; Anti-Bacterial Hand Pink Berry Citrus; Anti-Bacterial Hand Pink Champagne; Anti-Bacterial Hand Pink Chiffon; Anti-Bacterial Hand Pink Cupcake; Anti-Bacterial Hand Pink Daisy; Anti-Bacterial Hand Pink Diamond; Anti-Bacterial Hand Pink Frosting; Anti-Bacterial Hand Pink Lemonade; Anti-Bacterial Hand Pink Party; Anti-Bacterial Hand Pink Prancer; Anti-Bacterial Hand Pink Rose; Anti-Bacterial Hand Pink Sugarplum; Anti-Bacterial Hand Pisces; Anti-Bacterial Hand Play Hard; Anti-Bacterial Hand Please Adopt Me (Peach Bellini); Anti-Bacterial Hand Plum Cider Warmth; Anti-Bacterial Hand Polar Pineapple Guava; Anti-Bacterial Hand Pomegranate; Anti-Bacterial Hand Pomegranate Passion; Anti-Bacterial Hand Pomegranate Peony; Anti-Bacterial Hand Poolside Daydream; Anti-Bacterial Hand Poolside Passionfruit; Anti-Bacterial Hand Poolside Pop; Anti-Bacterial Hand Poolside Punch; Anti-Bacterial Hand Pretty As A Peach; Anti-Bacterial Hand Pretty In Pink; Anti-Bacterial Hand Pretty Pink Peony; Anti-Bacterial Hand Pumpkin; Anti-Bacterial Hand Pumpkin Apple; Anti-Bacterial Hand Pumpkin Caramel Latte; Anti-Bacterial Hand Pumpkin Coconut; Anti-Bacterial Hand Pumpkin Cupcake; Anti-Bacterial Hand Pumpkin Cupcake 2; Anti-Bacterial Hand Pumpkin Frost; Anti-Bacterial Hand Pumpkin Pecan Waffles; Anti-Bacterial Hand Pumpkin Pie; Anti-Bacterial Hand Pumpkin Spice; Anti-Bacterial Hand Pumpkin Spice Latte; Anti-Bacterial Hand Pumpkin Sprinkle Donut; Anti-Bacterial Hand Purple Amethyst; Anti-Bacterial Hand Purple Rain; Anti-Bacterial Hand Purrfect Pumpkin (Sweet Cinnamon Pumpkin); Anti-Bacterial Hand Rainbow Juice; Anti-Bacterial Hand Rainforrest Sugarcane; Anti-Bacterial Hand Raspberry Frost Donut; Anti-Bacterial Hand Raspberry Lemon Sorbet; Anti-Bacterial Hand Raspberry Meringue; Anti-Bacterial Hand Raspberry Pink Peony; Anti-Bacterial Hand Raspberry Waves Have A Magical Christmas; Anti-Bacterial Hand Read My Lips; Anti-Bacterial Hand Rebound Orange; Anti-Bacterial Hand Red Apple; Anti-Bacterial Hand Red Heart Face; Anti-Bacterial Hand Red Ruby; Anti-Bacterial Hand Red Velvet Cheer; Anti-Bacterial Hand Resting Grinch Face; Anti-Bacterial Hand Ribbon Candy; Anti-Bacterial Hand Ripe Raspberry Vine; Anti-Bacterial Hand Robotic Breeze (Making Spirits Bright); Anti-Bacterial Hand Rockin Cotton; Anti-Bacterial Hand Rose Water and Ivy; Anti-Bacterial Hand Rosewater and Ivy; Anti-Bacterial Hand Royal Tea; Anti-Bacterial Hand Rudy Red Apple; Anti-Bacterial Hand Rudys Cocoa Mint; Anti-Bacterial Hand Running Late Is My Cardio; Anti-Bacterial Hand Safari Apple; Anti-Bacterial Hand Salted Caramel; Anti-Bacterial Hand Salted Pineapple Punch; Anti-Bacterial Hand Sanitizer; Anti-Bacterial Hand Sanitizer Bella Flora; Anti-Bacterial Hand Sanitizer Black Cherry Merlot; Anti-Bacterial Hand Sanitizer But First Coffee; Anti-Bacterial Hand Sanitizer Coral Reef; Anti-Bacterial Hand Sanitizer Crisp Cucumber; Anti-Bacterial Hand Sanitizer Days Until Summer; Anti-Bacterial Hand Sanitizer Dont Make Me Use My Teacher Voice; Anti-Bacterial Hand Sanitizer Eucalyptus Spearmint; Anti-Bacterial Hand Sanitizer Fresh Picked Farmstand Apple; Anti-Bacterial Hand Sanitizer Fresh Picked Heirloom Cranberries; Anti-Bacterial Hand Sanitizer Fresh Picked Market Peach; Anti-Bacterial Hand Sanitizer Fresh Picked Sweet Clementine; Anti-Bacterial Hand Sanitizer Fresh Sparkling Snow; Anti-Bacterial Hand Sanitizer Fresh Strawberries; Anti-Bacterial Hand Sanitizer Fresh Tangerines; Anti-Bacterial Hand Sanitizer Ginger Pear; Anti-Bacterial Hand Sanitizer Good Vibes Only; Anti-Bacterial Hand Sanitizer HS Dont Quit Your Daydream (Sugared Honeysuckle); Anti-Bacterial Hand Sanitizer HS Eucalyptus Spearmint; Anti-Bacterial Hand Sanitizer HS Watermelon Lemonade; Anti-Bacterial Hand Sanitizer I Cant Adult Today; Anti-Bacterial Hand Sanitizer Japanese Cherry Blossom; Anti-Bacterial Hand Sanitizer Lavender Blossom; Anti-Bacterial Hand Sanitizer Leave A Little Sparkle; Anti-Bacterial Hand Sanitizer Mens Ocean; Anti-Bacterial Hand Sanitizer Peach Bellini; Anti-Bacterial Hand Sanitizer Plus Moisturizer Dancing Waters; Anti-Bacterial Hand Sanitizer Plus Moisturizer Fresh Market Apple; Anti-Bacterial Hand Sanitizer Plus Moisturizer Japanese Cherry Blossom; Anti-Bacterial Hand Sanitizer Plus Moisturizer Midnight Pomegranate; Anti-Bacterial Hand Sanitizer Plus Moisturizer Sweet Pea; Anti-Bacterial Hand Sanitizer Pure Vanilla; Anti-Bacterial Hand Sanitizer Sugar Lemon Fizz; Anti-Bacterial Hand Sanitizer Summer Escape; Anti-Bacterial Hand Sanitizer Sunburst Tangerine; Anti-Bacterial Hand Sanitizer Sunshine and Lemons; Anti-Bacterial Hand Sanitizer Sweet Cinnamon Pumpkin; Anti-Bacterial Hand Sanitizer Sweet Pea; Anti-Bacterial Hand Sanitizer Toasted Coconut; Anti-Bacterial Hand Sanitizer Tuscan Vineyard; Anti-Bacterial Hand Sanitizer Twilight Woods; Anti-Bacterial Hand Sanitizer Twisted Peppermint; Anti-Bacterial Hand Sanitizer Unscented; Anti-Bacterial Hand Sanitizer Vanilla Bean Noel; Anti-Bacterial Hand Sanitizer Watermelon Lemonade; Anti-Bacterial Hand Sanitizer White Driftwood; Anti-Bacterial Hand Sanitizer Wild Passion Flower; Anti-Bacterial Hand Sanitizer Winter Cranberry; Anti-Bacterial Hand Sanitizer Zebra Punch; Anti-Bacterial Hand Sanitizing Spray; Anti-Bacterial Hand Santa Paws; Anti-Bacterial Hand Santa Slay; Anti-Bacterial Hand Santa Tizer; Anti-Bacterial Hand Santa-Saurus; Anti-Bacterial Hand Santas Mallow Mint; Anti-Bacterial Hand Sassy Strawberry; Anti-Bacterial Hand Savage; Anti-Bacterial Hand Savannah Mint Julep; Anti-Bacterial Hand Scorpio; Anti-Bacterial Hand Sea Island Cotton; Anti-Bacterial Hand Seaside Sunrise; Anti-Bacterial Hand Selfie; Anti-Bacterial Hand Sexy Cherry Blossom; Anti-Bacterial Hand Shellebrate Island Papaya; Anti-Bacterial Hand Shimmer and Champagne; Anti-Bacterial Hand Shoot Fresh Field; Anti-Bacterial Hand Sicilian Lemon; Anti-Bacterial Hand Simply Bloom; Anti-Bacterial Hand Simply Citrus; Anti-Bacterial Hand Simply Rain; Anti-Bacterial Hand Skater Girl; Anti-Bacterial Hand Slay; Anti-Bacterial Hand Smart Cookie; Anti-Bacterial Hand Smash Berry; Anti-Bacterial Hand Smores; Anti-Bacterial Hand Snob Berry; Anti-Bacterial Hand Snow Day Ice Blizzard; Anti-Bacterial Hand Snow Frosted Apple; Anti-Bacterial Hand Snow Kissed Berry; Anti-Bacterial Hand Snow Kissed Citrus; Anti-Bacterial Hand Snowkissed Citrus; Anti-Bacterial Hand So Berry Sweet; Anti-Bacterial Hand So Fresh And So Clean; Anti-Bacterial Hand Son Of A Nutcracker; Anti-Bacterial Hand Sonoma Vineyard Berries; Anti-Bacterial Hand Sorry Im Latte; Anti-Bacterial Hand Sour Drop; Anti-Bacterial Hand Sour Grapes; Anti-Bacterial Hand South Pacific Sunrise; Anti-Bacterial Hand Southern Lemon Chiffon; Anti-Bacterial Hand Sparkling Lemoncello; Anti-Bacterial Hand Sparkling Limoncello; Anti-Bacterial Hand Sparkling Mint Blossom; Anti-Bacterial Hand Sparkling Mojito; Anti-Bacterial Hand Sparkling Pear Riesling; Anti-Bacterial Hand Sparkling Pink Champagne; Anti-Bacterial Hand Sparkling Sapphire; Anti-Bacterial Hand Sparkling Seas; Anti-Bacterial Hand Sparklling Sweet Nectarine; Anti-Bacterial Hand Spice Kissed Pumpkin; Anti-Bacterial Hand Spiders Web; Anti-Bacterial Hand Spooktacular; Anti-Bacterial Hand Spray Sweet Pea; Anti-Bacterial Hand Spray Warm Vanilla Sugar; Anti-Bacterial Hand Spread Sparkle; Anti-Bacterial Hand Spring Bloom; Anti-Bacterial Hand Squad; Anti-Bacterial Hand Stache Pomegranate; Anti-Bacterial Hand Starfruit; Anti-Bacterial Hand Stasher; Anti-Bacterial Hand Stay Pawsitive (Orange Cream Soda); Anti-Bacterial Hand Stay Woke Pink Petals; Anti-Bacterial Hand Strawberry; Anti-Bacterial Hand Strawberry Fields; Anti-Bacterial Hand Strawberry Hibiscus; Anti-Bacterial Hand Strawberry Kiss; Anti-Bacterial Hand Strawberry Lemonade; Anti-Bacterial Hand Strawberry Shine; Anti-Bacterial Hand Strawberry Smooches; Anti-Bacterial Hand Strawberry Splash; Anti-Bacterial Hand Strawberry Vanilla Sugar; Anti-Bacterial Hand Stress Relief Eucalyptus Tea; Anti-Bacterial Hand Student Snot; Anti-Bacterial Hand Studly Apple Mr Mom; Anti-Bacterial Hand Stylish Starfruit; Anti-Bacterial Hand Stylish Strawberry I Love Shoes; Anti-Bacterial Hand Sugar Lemon; Anti-Bacterial Hand Sugar Maple; Anti-Bacterial Hand Sugar Plum Dream; Anti-Bacterial Hand Sugar and Spice; Anti-Bacterial Hand Sugared Clementine (Thanks For Everything); Anti-Bacterial Hand Sugared Honeysuckle (Deck The Halls); Anti-Bacterial Hand Sugared Strawberries; Anti-Bacterial Hand Sugared Vanilla Wish; Anti-Bacterial Hand Summer Escape; Anti-Bacterial Hand Summer Sail; Anti-Bacterial Hand Sun Tan Summer; Anti-Bacterial Hand Suncrisp Apple Harvest; Anti-Bacterial Hand Sunflower Citrus; Anti-Bacterial Hand Sunlight and Apple Trees; Anti-Bacterial Hand Sunshine and Lemons; Anti-Bacterial Hand Sunshine and Lemons 2; Anti-Bacterial Hand Suntan; Anti-Bacterial Hand Surfside Spritzer; Anti-Bacterial Hand Sweet As Strawberries; Anti-Bacterial Hand Sweet As Strawberries 2; Anti-Bacterial Hand Sweet Baby French Lavender; Anti-Bacterial Hand Sweet Baby Girl (Sweet Apple); Anti-Bacterial Hand Sweet Cherry; Anti-Bacterial Hand Sweet Cinnamon Pumpkin; Anti-Bacterial Hand Sweet Cinnamon Pumpkin 2; Anti-Bacterial Hand Sweet Cinnamon Pumpkin Purrfect Potion; Anti-Bacterial Hand Sweet Orange Pumpkin; Anti-Bacterial Hand Sweet Pea; Anti-Bacterial Hand Sweet Pea I Love You; Anti-Bacterial Hand Sweet Peach Tea; Anti-Bacterial Hand Sweet Petals I Heart You Mom; Anti-Bacterial Hand Sweet Plum and Verbena; Anti-Bacterial Hand Sweet Sprinkles (Confetti Cupcake); Anti-Bacterial Hand Sweet Strawberries and Cream; Anti-Bacterial Hand Swingin Vanilla; Anti-Bacterial Hand TCHRS Survival Kit Crisp Apple; Anti-Bacterial Hand TGIF Coconut Sugar; Anti-Bacterial Hand Tahitian Paradise; Anti-Bacterial Hand Taurus; Anti-Bacterial Hand Team Scrubs (Original); Anti-Bacterial Hand Team Unicorn; Anti-Bacterial Hand Thank You Berry Lemonade; Anti-Bacterial Hand The Best Mermaids Hang Out With Unicorns (Champagne Sparkle); Anti-Bacterial Hand The Snuggle Is Real; Anti-Bacterial Hand The Thirst Is Real; Anti-Bacterial Hand The Thirst Is Real Pink Slushie; Anti-Bacterial Hand Throw Kindness Like Confetti; Anti-Bacterial Hand Tiki Mango Mai Tai; Anti-Bacterial Hand Tiki Shore; Anti-Bacterial Hand Tis The Season; Anti-Bacterial Hand Tis the Season; Anti-Bacterial Hand Too Hip to Hop; Anti-Bacterial Hand Touchdown Citrus Blitz; Anti-Bacterial Hand Tropical Berries; Anti-Bacterial Hand Tropical Fruit; Anti-Bacterial Hand Tropical Papaya; Anti-Bacterial Hand Tropical Sorbet Float; Anti-Bacterial Hand Turquoise Waters; Anti-Bacterial Hand Turquoise Waters 2; Anti-Bacterial Hand Tuscan Vineyard; Anti-Bacterial Hand Twilight Woods For Men; Anti-Bacterial Hand Twisted Peppermint; Anti-Bacterial Hand Twisted Peppermint 2; Anti-Bacterial Hand Twisted Web Creepy Orange; Anti-Bacterial Hand Unicorn BFFs (Magical Melon); Anti-Bacterial Hand Unicorn Milk Shake; Anti-Bacterial Hand Unicorn Water; Anti-Bacterial Hand Unicorn Water (Magical Mango); Anti-Bacterial Hand Unicorn Water (Magical Mango) 2; Anti-Bacterial Hand Unicorns Are My Spirit Animal; Anti-Bacterial Hand Unicorns Rule The World Peace Lily; Anti-Bacterial Hand Unscented; Anti-Bacterial Hand Vampire Blood; Anti-Bacterial Hand Vampire Blood (Petrifying Plum); Anti-Bacterial Hand Vanilla; Anti-Bacterial Hand Vanilla Bean Noel; Anti-Bacterial Hand Vanilla Bean Noel 2; Anti-Bacterial Hand Vanilla Berry Sorbet; Anti-Bacterial Hand Vanilla Bliss; Anti-Bacterial Hand Vanilla Buttercream; Anti-Bacterial Hand Vanilla Chai; Anti-Bacterial Hand Vanilla Coconut; Anti-Bacterial Hand Vanilla Coconut 2; Anti-Bacterial Hand Vanilla Cookie; Anti-Bacterial Hand Vanilla Cupcake; Anti-Bacterial Hand Vanilla Fever; Anti-Bacterial Hand Vanilla Icing; Anti-Bacterial Hand Vanilla Patchouli; Anti-Bacterial Hand Vanilla Peppermint; Anti-Bacterial Hand Vanilla Snow Flake; Anti-Bacterial Hand Vanilla Sprinkle Cookie; Anti-Bacterial Hand Vanilla Sugar; Anti-Bacterial Hand Vermont Sugar Maple; Anti-Bacterial Hand Virgo; Anti-Bacterial Hand Vixens Sweet Mint; Anti-Bacterial Hand Waikiki Surf; Anti-Bacterial Hand Wanna Dance With Somebunny (Cinnamon Roll); Anti-Bacterial Hand Warm Apple Cider; Anti-Bacterial Hand Warm Vanilla Sugar; Anti-Bacterial Hand Washington Apple Harvest; Anti-Bacterial Hand Watermelon Lemonade; Anti-Bacterial Hand Watermelon Picnic; Anti-Bacterial Hand Weekend Apple Picking; Anti-Bacterial Hand Werewolf Tears (Supernatural Citrus); Anti-Bacterial Hand Werk; Anti-Bacterial Hand Whipped Vanilla Cream; Anti-Bacterial Hand White Citrus; Anti-Bacterial Hand White Peach Chardonnay; Anti-Bacterial Hand White Pear and Fig; Anti-Bacterial Hand White Tea; Anti-Bacterial Hand Wicked Plum; Anti-Bacterial Hand Wicked Plum Vampire Blood; Anti-Bacterial Hand Wild Honeysuckle; Anti-Bacterial Hand Wild Passion Flower; Anti-Bacterial Hand Wild Poppies; Anti-Bacterial Hand Wildberry Blossom; Anti-Bacterial Hand Wildberry Chicago; Anti-Bacterial Hand Wildberry Dahlia; Anti-Bacterial Hand Wildberry Freesia; Anti-Bacterial Hand Wildberry Hibiscus; Anti-Bacterial Hand Wildberry Kisses; Anti-Bacterial Hand Winter; Anti-Bacterial Hand Winter Bloom; Anti-Bacterial Hand Winter Candy Apple; Anti-Bacterial Hand Winter Candy Apple 2; Anti-Bacterial Hand Winter Chiffon; Anti-Bacterial Hand Winter Citrus Wreath; Anti-Bacterial Hand Winter Cranberry; Anti-Bacterial Hand Winter Spice and Vanilla; Anti-Bacterial Hand Winter White Woods; Anti-Bacterial Hand Winter Wonderland; Anti-Bacterial Hand Wish On A Starfish (So Berry Sweet); Anti-Bacterial Hand Wrap Queen; Anti-Bacterial Hand XO Sprinkled Donut; Anti-Bacterial Hand XOXO Vanilla Coconut; Anti-Bacterial Hand YAS Pink Frosting; Anti-Bacterial Hand Yaas Citrus; Anti-Bacterial Hand Yay; Anti-Bacterial Hand Yay Summer; Anti-Bacterial Hand Yoga Babe; Anti-Bacterial Hand You Are Magical (Cotton Candy Clouds); Anti-Bacterial Hand You Are Magical A Thousand Wishes; Anti-Bacterial Hand You Are My Sunshine; Anti-Bacterial Hand You Guac My World (Island Margarita); Anti-Bacterial Hand Youre A Gem; Anti-Bacterial Hand Youre All I See Orange Crush; Anti-Bacterial Hand Youre Cherry Sweet; Anti-Bacterial Hand Youre Killing It; Anti-Bacterial Hand Youre Magic (Sweet Berries); Anti-Bacterial Hand Youre the Best Citrus Sangria; Anti-Bacterial Hand Zippy Fruit Punch; Anti-Bacterial Hand Zombie Squad; Anti-Bacterial Hand purrfect pumpkin; Anti-Bacterial Moisturizing Hand Sanitizer A Thousand Wishes; Anti-Bacterial Moisturizing Hand Sanitizer Cucumber Melon; Anti-Bacterial Moisturizing Hand Sanitizer French Lavender; Anti-Bacterial Moisturizing Hand Sanitizer Fresh Market Apple; Anti-Bacterial Moisturizing Hand Sanitizer Honolulu Sun; Anti-Bacterial Moisturizing Hand Sanitizer Japanese Cherry Blossom; Anti-Bacterial Moisturizing Hand Sanitizer Ocean; Anti-Bacterial Moisturizing Hand Sanitizer Peach Bellini; Anti-Bacterial Moisturizing Hand Sanitizer Sweet Pea; Anti-Bacterial Moisturizing Hand Sanitizer Warm Vanilla Sugar; Anti-Bacterial Moisturizing Hand Sanitizer Watermelon Lemonade; Anti-Bacterial Shimmer Hand Blue Chiffon; Anti-Bacterial Shimmer Hand Coconut Cream; Anti-Bacterial Shimmer Hand Lemon Glaze; Anti-Bacterial Shimmer Hand Red Velvet; Anti-Bacterial Shimmer Hand Strawberry; Anti-aging Hand Sanitizer; Anti-bacterial Deep Cleansing Hand Soap; Anti-bacterial Hand; Anti-bacterial Hand Gel; Anti-bacterial Hand Sanitizer; Anti-bacterial Hand Sanitizer 2 Pack Blue Day Scented; Anti-bacterial Hand Sanitizer 2 Pack Blue Sunshiny Scented; Anti-bacterial Hand Sanitizer 2 Pack Splash Apple Scented; Anti-bacterial Hand Sanitizer 3 Pack 2; Anti-bacterial Hand Sanitizer 3 Pack Blue Day Scented; Anti-bacterial Waterless Hand Foam; Antiacterial Hand Sanitizer; Antibacterial; Antibacterial Hand; Antibacterial Hand - Witchs Brew and Scaredy Cat; Antibacterial Hand Arctic Blast; Antibacterial Hand Arctic blast; Antibacterial Hand Candy Cane; Antibacterial Hand Cranberry Spice; Antibacterial Hand Gift Set Icy Mint and Candy Cane; Antibacterial Hand Gingerbread; Antibacterial Hand Icy Mint; Antibacterial Hand Lime; Antibacterial Hand Mistletoe and Mint; Antibacterial Hand Polar Mint; Antibacterial Hand Polar Mint and Arctic Blast; Antibacterial Hand Sanitizer; Antibacterial Hand Sanitizer - Citrus Scent; Antibacterial Hand Sanitizer Basil and Green Tea; Antibacterial Hand Sanitizer Citrus Coconut; Antibacterial Hand Sanitizer Citrus Scent; Antibacterial Hand Sanitizer Gel; Antibacterial Hand Sanitizer Pamegranate Apple; Antibacterial Hand Sanitizer Passion Flower; Antibacterial Hand Sanitizer Pocket Sprayer; Antibacterial Hand Sanitizer Pomegranate and Acai; Antibacterial Hand Sanitizer Spray; Antibacterial Hand Sanitizer Sunblossom; Antibacterial Hand Sanitizer Sunflower and Citrus; Antibacterial Hand Sanitizer with Vitamine E; Antibacterial Hand Towelettes; Antibacterial Hand Wash; Antibacterial Sanitizer; Antibactierial Hand Sanitizer; Antimicrobial; Antimicrobial Alcohol Hand; Antimicrobial Alcohol Hand wipes; Antimicrobial Hand Sanitizer; Antimicrobial Hand Sanitizing Mango Scented; Antimicrobial Hand Wipe; Antiseptic; Antiseptic Hand Cleansing Gel; Antiseptic Hand Gel; Antiseptic Hand Gel with Aloe; Antiseptic Hand Rub; Antiseptic Hand Sanitizer; Antiseptic Hand Sanitizer Aloe Vera Scent; Antiseptic Hand Sanitizer Lavender Scent; Antiseptic Hand Sanitizer Mint Scent; Antiseptic Hand Sanitizer Rose Scent; Antiseptic Hand Sanitizing Wipe Enriched With Vitamin E And Aloe Vera; Aplicare Antiseptic Hand Rinse; Appeal Alcohol Foaming Hand Sanitizer; Applause; Apple Anti Bacterial Hand Sanitizer; Apple Antibacterial Hand Sanitizer with Aloe and Vitamin E; Apple Blossom Anti-bacterial Hand Sanitizer; Apple Blossom Scented Hand Sanitizer; Apple Scented Hand Sanitizer; AprilGuard Antiseptic Handrub; Aqua Sunset Hand Sanitizer; ArmChem Alcohol Foam Hand Sanitizer; Arnica Hand Sanitizer Gentle Anti-bacterial Gel; Assured Aloe; Assured Aloe Hand Sanitizer 2 pk; Assured Aloe Hand Sanitizer 8 oz.; Assured Aloe Scented Instant Hand Sanitizer; Assured Hand Sanitizer With Moisturizers; Assured Hand Sanitizer with Aloe Vera; Assured Hand Sanitizer with Vitamin E; Assured Instant; Assured Instant Hand Sanitizer; Assured Instant Hand Sanitizer Aloe; Assured Instant Hand Sanitizer Clear; Assured Instant Hand Sanitizer Lavender 2 pk; Assured Instant Hand Sanitizer Lemon 2 pk; Assured Instant Hand Sanitizer With Moisturizers Vitamin E and Aloe; Assured Instant Hand Sanitizer with Moisturizers Vitamin E and Aloe; Athleticare No-Rinse Hand Sanitizing AC 575; Aurafresh Instant Hand Sanitizer Aloe Vera; Aurafresh Instant Hand Sanitizer Vitamin E; Aurafresh Instant Hand Sanitizer With Aloe and Vitamin E Berries; Aurafresh Instant Hand Sanitizer With Aloe and Vitamin E Fresh Citrus; Aurafresh Instant Hand Sanitizer With Aloe and Vitamin E Lavender; Aurafresh Instant Hand Sanitizer With Aloe and Vitamin E Original; Aurafresh Instant Hand Sanitizer With Moisturizers Aloe Vera and Moisturizers; Aurora Antibacterial Sanitizer Summer Cotton Breeze; Aurora Antibacterial Sanitizer Sweet Lychee Berry; Auto 157; Avagard Chg; Avagard D; Avant EX; Avant Eco-Premium Instant Hand Sanitizer; Avant Foaming Hand Sanitizer; Avant Original - Fragrance Free; Avant Original Instant Hand Sanitizer; Avon Clearskin 2 Overnight Acne Treatment; Avon Clearskin Acne Defense Stick; Avon Skin So Soft Antibacterial Moisturizing Hand Gel; Avon Skin So Soft Antibacterial Moisturizing Hand Gel With Alcohol 60%; Avon Skin-SO-soft Antibacterial Moisturizing Towelettes; Awaken by Quality Choice Hand Sanitizer Citrus Coconut; Awaken by Quality Choice Hand Sanitizer Vanilla Crm and Apple Blossom; Azuro; B4 Hand Sanitizer; B4 Hand Sanitizer 500 Single-Use Packs; BACTEX Antiseptic Hand Sanitizer; BD E-Z Care; BLUE ACME SLEEVE FIRST AID Contains 1000 PIECES; BOARDWALK Hand Sanitizer; BST99 Instant Hand Sanitizer; Baby Bum Hand Sanitizer; Bacti-Free tm Hand Sanitizer; Batman Berry Scented Antiseptic Hand Cleansing; Bd Persist; BeCause Antibacterial Hand Jafra; Bea-Silky; Bearicaid Antiseptic Skin Sanitizing Wipes; Beautos Antibacterial Hand Sanitizer Lemon; Being Well Hand Sanitizer 2 Pack; Bella Maison Coconut Pineapple Antibacterial Hand Sanitizer; Bella Maison Tropical Vanilla Antibacterial Hand Sanitizer; Ben E.Keith Hand Cleaner; Berkley Jensen Instant Sanitizer; Berry Hand Sanitizer with vitamin E and aloe; Berry Kissed hand sanitizer 01; Berry Sorbet Anti-bacterial Hand Sanitizer; Best Accessory Group Cotton Candy Scented Hand Sanitizer; Best Accessory Group Sweet Strawberry Scented Hand Sanitizer; Bio-septic; Bite and Sting Relief Wipe; Black Cherry Champ Hand Sanitizer; Black Cherry Scented Hand Sanitizer; Blackberry Vanilla Hand Sanitizer Bodycology; BlancTis Essence tooth whitening gel; BlancTis Forte; BlancTis Forte II tooth whitening; BlancTis Gel; Blockout Foot Wipes; Blossom Delight Hand Sanitizer 01; Blue Cross Laboratories Hand Rx; Blue Paradise Anti-bacterial Hand Sanitizer; Blue Rasberry Hand Sanitizer; Blue Raspberry Radiance Hand Sanitizer; Blueberry cream Anti-Bacterial Hand Sanitizer; Body; Body Blends Apple Attraction Anti-bacterial Hand Sanitizer; Body Blends Citrus Awakening Anti-bacterial Hand Sanitizer; Body Blends Coconut Lime Escape Anti-bacterial Hand Sanitizer; Body Blends Vanilla Sugar Anti-bacterial Hand Sanitizer; Body Luxuries Blueberry Scented Waterless Anti Bacterial Hand gel; Body Luxuries Cherry Blossom Waterless Anti-bacterial Hand Sanitizer; Body Luxuries Coconut Vanilla Waterless Anti-bacterial Hand Sanitizer; Body Luxuries Dahlia Blossom Scented Waterless Anti Bacterial Hand gel; Body Luxuries English Pear Antibacterial Hand Sanitizer; Body Luxuries English Pear Scented Waterless Anti Bacterial Hand gel; Body Luxuries French Lavender Antibacterial Hand Sanitizer; Body Luxuries French Lavender Scented Waterless Anti Bacterial Hand gel; Body Luxuries French Lavender Waterless Anti-bacterial Hand Sanitizer; Body Luxuries Fresh Cotton Hand Sanitizer; Body Luxuries Lotus Flower Scented Waterless Anti Bacterial Hand gel; Body Luxuries Moroccan Rose Antibacterial Hand Sanitizer; Body Luxuries Pineapple Mango Waterless Anti-bacterial Hand Sanitizer; Body Luxuries Strawberry Scented Waterless Anti Bacterial Hand gel; Body Luxuries Sweet Lavender Hand Sanitizer; Body Luxuries Tihitian Vanilla Antibacterial Hand Sanitizer; Body Luxuries Waterless Hand Sanitizer; Body Raves Antibacterial Hand Sanitizer - Lavender Vanilla; Body Raves Antibacterial Hand Sanitizer - Wild Strawberry; Bodycology Brown Sugar Vanilla; Bodycology Brown Sugar Vanilla Hand Sanitizer; Bodycology Cherry Blossom Hand Sanitizer; Bodycology Cucumber Melon Hand Sanitizer; Bodycology Enchanted Forest Kit; Bodycology Exotic Cherry Blossom Kit; Bodycology Exotic Cherry Kit; Bodycology Fresh Cucumber Kit; Bodycology Fresh Cucumber Melon Kit; Bodycology Hand Sanitizer Gift Set; Bodycology Moisturizing Hand Sanitizer Brown Sugar Vanilla; Bodycology Moisturizing Hand Sanitizer Cherry Blossom; Bodycology Moisturizing Hand Sanitizer Cucumber Melon; Bodycology Moisturizing Hand Sanitizer Midnight Garden; Bodycology Moisturizing Hand Sanitizer Sweet Petals; Bodycology Moisturizing Hand Sanitzer White Gardenia; Bodycology Sweet Petals; Bodycology Sweet Petals Hand Sanitizer; Bodycology Toasted Vanilla Kit; Bodycology Toasted Vanilla Sugar Kit; Bodycology Vanilla Cupcake; Boolicious Antibacterial Hand; Boolicious Antibacterial Hand Sanitizer; Bortek E-3; Bortons Ethyl Rubbing Alcohol; Bortons Menticol; Branders Antiseptic Hand Sanitizer; Brompton and Langley Coconut Water and Habiscus Hand Sanitizer Coconut Water and Habiscus; Brompton and Langley Ginger Lily and Lime Moisturizing Hand Sanitizer ginger lily and lime; Brompton and Langley Green Apple Hand Sanitizer Green Apple; Brompton and Langley Lavender Vanilla Hand Sanitizer Lavender Vanilla; Brompton and Langley Moisturizing Candy and Apple Swirl scented Hand Sanitizer Candy and Apple Swirl; Brompton and Langley Moisturizing Hand Sanitizer Market Strawberry; Brompton and Langley Vanilla Marshmallow Hand Sanitizer Vanilla Marshmallow; Brompton and Langley Zesty Lemon Hand Sanitizer Zesty Lemon; Bubble Gum; Burger Time Hand Sanitizer; Bus and Classroom Yellow; Business Elite Amenity; C-000001228-064; CAREONE Antibacterial Sanitizer Fresh Water; CAREONE Antibacterial Sanitizer Limoncello; CAREONE Instant Hand Sanitizer with Aloe and Vitamin E; CAREONE Instant Hand Sanitizer with Moisturizers and Vitamin E; CAREONE Lemon; CELLEANSER Secret Mist; CS5412 hand sanitizer; CTCA Foaming Hand Sanitizer; CVS Decolorized Iodine; CVS Hand Sanitizer; CVS Health All Purpose Kit; CVS Health Healing on the Go Kit; CVS Health Prebiotic Sanitizer; CVS Iodine; CVS Pharmacy FOAM HAND SANITIZER WITH ALOE; CVS Pharmacy Instant Hand Sanitizer With Aloe And Vitamin E; CVS Pharmacy Instant Hand Sanitizer With Moisturizers And Vitamin E; CVS pharmacy Instant Hand Sanitizing Wipes; Candy Apple; Candy Apple Scented Anti-bacterial Hand Gel; Candy Cane; Candy Coated Apple anti-bacterial SCENTED HAND SANITIZER; Cardinal Health Hand Sanitizer with Aloe; Cardinal Health Sanitizer; Care; Care Bears Cotton Candy Antiseptic Hand Cleansing; Care Bus and Classroom Yellow; Care One Antibacterial Peppermint Swirl; Care One Antibacterial Rum Raisin; Care One Antibacterial Snow Kissed Pear; Care One Antibacterial Tangerine Spice; Care One Creamy Coconut; Care One Instant Sanitizer; Care One Lemon Verbena; Care One Peppermint Swirl; Care One Pine; Care One Pumpkin Pie; Care One Sun Kissed Pear; Care One Vanilla Apple Blossom; Care One Vanilla Bean; CareOne Country Apple; CareTouch; Careone; Careone Aloe and Vitamin E Hand Sanitizer; Careone Antibacterial Hand Sanitizer Festival Of Lights; Careone Antibacterial Hand Sanitizer Mistletoe Kisses; Careone Antibacterial Hand Sanitizer Pumpkin Roll; Careone Antibacterial Hand Sanitizer Seasons Greetings; Careone Antibacterial Hand Sanitizer Winter Sky; Careone Antibacterial Sanitizer Gingerbread House; Careone Antibacterial Sanitizer Pecan Pumpkin Pie; Careone Antibacterial Sanitizer Peppermint Candy; Careone Apple Berry; Careone Instant Hand Sanitizer With Aloe and Vitamin E; Careone Lemon Meringue Hand Sanitizer; Careone Lime Basil; Careone Tahitian Coconut; Careone Vanilla Buttercream Hand Sanitizer; Careone Vitamin E Hand Sanitizer; Celox Antiseptic; Celox Ultra; Certus Recens A; Charlie girl Blueberry Antibacterial Hand Sanitizer; Charlie girl Grape Antibacterial Hand Sanitizer; Charlie girl Strawberry Antibacterial Hand Sanitizer; Cheeky Fresh; ChemStation E3 Hand Sanitizer; Chemco Anisha K. Instant Skin Sanitizer; Chemisphere Hand Sanitizer; Cheracol Cough Syrup; Cherry Blossom Scented Hand Sanitizer; Cherry Blossom Waterless Anti-Antibateria Hand Sanitizer; Cida Wipes; Cida-rinse Antiseptic Towelettes; Cida-rinse Gel; Cida-rinse Liq 70%; Cinnamon Sugar; Cinnamon Sugar Scented Hand Sanitizer; Circle K Hand Sanitizer; Citrus Hand Sanitizer; Citrus Hand Sanitizer with vitamin E and aloe; Citrus Sparkle; Citrus Sunshine; Claires; Claires Fancy Nancy Antibacterial Glamourous Grape; Claires Fancy Nancy Antibacterial Strawberry Parfait; Clara Instant Waterless Hand Sanitizer; Claree; Clario Foaming Alcohol Instant Hand Sanitizer; Clario Instant Hand Sanitizer; Clean All; Clean Choice Alcohol Sanitizer; Clean Force; Clean Hands Sanitizer; Clean N Fresh Instant Hand Sanitizer; Clean Xpress Alcohol Gel Instant Skin Sanitizer; Clean hand sanitizer; Clear Defense; Clear Defense Citrus Sage; Clear Defense Citrus Sunrise; Clear Defense Glacial Ice; Clear Defense Hand Sanitizing Wipes; Clear Defense Harvest Apple; Clear Defense Maui Melon; Clearly Better; Clinical Works Cucumber Melon Waterless Hand Sanitizer; Clinical Works Lavender Blossom Waterless Hand Sanitizer; Clinical Works Ocean Breeze Waterless Hand Sanitizer; Clinical Works Pink Grapefruit Waterless Hand Sanitizer; Clinishield Instant Hand Sanitizer; Clobal Care Instant Hand Sanitizer 1.8oz; Clorox Antimicrobial Hand Sanitizer; Clorox Care Concepts Hand Sanitizer; Clorox Hand Sanitizer; Clorox HealthCare GBG AloeGel Instant Hand Sanitizer; Cnd Cool Blue; Coconut Anti Bacterial Hand Sanitizer; Coconut Antibacterial Hand Sanitizer; Coconut Lime; Coconut Lime Anti-Bacterial Hand Sanitizer; Coconut Lime Antibacterial Hand Sanitizer; Coconut Lime Antibacterial Sanitizer; Coconut Lime Scented Hand Sanitizer; Coconut Tuberose; Coconut Vanilla Hand Sanitizer; Coconut Water Scented Hand Sanitizer; ColemanHand Sanitizer Hand Sanitizer; Command AntiBac Instant Hand Sanitizer; Common Sense; Compact Hand Sanitizer; Companion Hand Sanitizer; Compound Benzoin Tincture USP; Cool Clementine anti-bacterial SCENTED HAND SANITIZER; Cool Mint Antiseptic Mouthwash; CoreTex Antibacterial Hand Sanitizer; Cotton Blossom Waterless Anti-Antibateria Hand Sanitizer; Cotton Candy; Cotton Candy Hand Sanitizer; Cotton Candy Scented Anti-bacterial Hand Gel; Cotton candy anti-bacterial SCENTED HAND SANITIZER; Cranberry Cake; Cranberry Cherry Scented Hand Sanitizer; Cranberry Chill Hand Sanitizer; Cranberry Garland; Cranberry Hand Sanitizer; Cranberry Vanilla Scented Antibacterial Hand Sanitizer; Crazy Coconut; Creamsicle Hand Sanitizer; Creations Garden Pomegranate Hand Sanitizer; Credit Card Shape Hand Sanitizer; Crisp Apple Hand Sani; Crisp Evergreen; Cucumber Melon Antibacterial Sanitizer; Cucumber Melon Hand Sanitizer; Cucumber Melon Scented Hand Sanitizer; Cupcake; Cupcake Scented Anti-bacterial Hand Gel; Cvs Pharmacy Aloe; Cvs Pharmacy Anti-aging Hand Sanitizer; Cvs Pharmacy Hand Sanitizer Aloe; Cvs Pharmacy Instant Hand Sanitizer Fresh Scent; Cvs Pharmacy Instant Hand Sanitizer With Moisturizers and Vitamin E; Cvs Pharmacy With Vitamin E; DDM Decolorized Iodine; DDM Iodine Tincture Mild; DEFENDER Foaming Hand Sanitizer; DIGISAN Healthcare; Daisy Blossom Antibacterial Hand Sanitizer; Dalmacol; DawnMist Alcohol Gel Hand Sanitizer; DawnMist Alcohol Hand Sanitizer; Daylogic Advanced Hand Sanitizer Refill; De La Cruz Decolorized Iodine; De La Cruz Tincture of Iodine; Deb InstantFOAM Alcohol Hand Sanitizer; Deb InstantFOAM Complete; Deb InstantFoam Alcohol Sanitizer; Deb Med InstantFOAM Hand Sanitizer; Deb Med InstantFOAM OptiDose Hand Sanitizer; Decolorized Iodine; Decon Hand Instant Hand Sanitizer; Dehydrated; Dehydrated Alcohol; Dehydrated Alcohol Injection; Dehydrated Alcohol Injection USP; Derma Stat; Derma-Glove; DermaCen Instant Hand Sanitizer; DermaCen Instant Hand Sanitizer with Aloe; DermaGel HAND SANITIZING; Desmanol Pure; Dial Antibacterial Hand Sanitizer; Dial Professional Antibacterial Hand Sanitizer; DigiSan; DigiSan Hand Sanitizer; Dignity Health Hand Sanitizer Alcare Plus; Dilusol Liq 38.7%; Discount Drug Mart Prebiotic Hand Sanitizer; Discount Drug Mart Vitamin E Hand Sanitizer; Disney FAIRIES Sweet Berry Scented Antiseptic Hand Cleansing; Disney FROZEN BERRY SCENTED ANTISEPTIC HAND CLEANSING; Disney MINNIE Cotton Candy Scented Antiseptic Hand CLEANSING; Disney Minnie Antiseptic Hand Cleansing Cotton Candy Scented; Disney Monsters University Antiseptic Hand Cleansing Grape Scented; Disney PIXAR Cars Antiseptic Hand Cleansing Cherry Scented; Disney PIXAR Cars BERRY SCENTED Antiseptic Hand CLEANSING; Disney PIXAR Toy Story Antiseptic Hand Cleansing Berry Scented; Disney PLANES FIRE and RESCUE BERRY SCENTED Antiseptic Hand CLEANSING; Disney PRINCESS Raspberry Scented Antiseptic Hand CLEANSING; Disney Princess Antiseptic Hand Cleansing Raspberry Scented; Diversey Antiseptic Hand Gel 70%; Dologesic; Dots Apple Cinnamon Anti-Bacterial Hand Sanitizer; Dots Asian Spice Anti-Bacterial Hand Sanitizer; Dr Tichenors First Aid Antispetic; Dr. Rothmans Dermashield; Dr.Phi Advanced Hand sanitizer; Dr.Phi Instant Hand Sanitizer; Dreamy Glow hand sanitizer 01; Dreumex Omnicare Hand Sanitizer; Dynarex Green; ECOLAB Hand Sanitizer; EO HAND SANITIZER Lavender; EO HAND SANITIZER Lemon; EO HAND SANITIZER Peppermint; EO HAND SANITIZER Sweet Orange; EO HAND SANITIZER Unscented; EO HAND SANITIZING wipes geranium; EO HAND sanitizer geranium; EO Hand Sanitizer Wipes Lavender; ESCA Hand Sanitizing Wipes; EXTENDED CARE Foaming Hand Sanitizer; Easy Care First Aid; Easy Care First Aid - All Purpose; Easy Care First Aid Chest - Home and Workshop; Easy Care First Aid Hand Sanitizer; Easy Care First Aid Kit - Outdoor and Travel; Easy Care First Aid Kit - Sports and Travel; Easy to break-off cleaning and disinfecting swabstick JJB-I; Eclair Naturals (french Lavender) Hand Sanitizer; Eclair Naturals (vanilla Peppermint) Hand Sanitizer; EcoCare 370; Ecolab; Ecolab Facilipro; Egyptian Cotton Antibacterial Hand Sanitizer; Elgin Instant Hand Sanitizer; Elyptol Antimicrobial Hand Gel; Elyptol Antimicrobial Rub; Elyptol Hand Sanitizer Wipe; Elyptol Light Scent Antimicrobial; Elyptol Light Scent- Antimicrobial Hand Gel; Emergency Preparedness; EnMotion Foam Hand Sanitizer; EnMotion Foam Hand Sanitizer With Moisturizers; Enbac skin antiseptic/sanitizer contains aloe vera; Enchanted Forest Hand Sanitizer Bodycology; Enchanted Moments Berries and Cream Hand Sanitizer; Enchanted Moments Candy Apple Hand Sanitizer; Enchanted Moments Mistletoe Kisses Hand Sanitizer; Enchanted Moments Vanilla Snow Hand Sanitizer; Encore Hand Sanitizing Gel; Endure 300; Endure 300 Cida Rinse Gel Antimicrobial Hand Rinse; Endure 320 Advanced Care; Endure 450; Energy Infusion Hand Sanitizer; Envirokleen Instant Hand Sanitizer; Epi-Clenz Hand Sanitizer; Epi-Clenz Instant Hand Antiseptic; Epi-Clenz Instant Hand Antiseptic Scented; Epi-Clenz Plus Instant Hand Antiseptic; Epi-Clenz Plus Instant Hand Sanitizer; Epi-Clenz Pure Instant Hand Antiseptic; EpiCare Waterless Antimicrobial Hand Rinse; Epoch; Equaline; Equate Anti Bacterial Hand Sanitizer; Equate Anti Bacterial Hand Sanitizer Beach; Equate Anti Bacterial Hand Sanitizer Black Cherry Grape; Equate Anti Bacterial Hand Sanitizer Coconut; Equate Anti Bacterial Hand Sanitizer Lemon; Equate Anti Bacterial Hand Sanitizer Strawberry; Equate Hand Sanitizer; Erysol; Essence Of Beauty Citrus Coconuti; Essence Of Beauty Japanese Garden; Essence Of Beauty Japanese Garden Antibacterial; Essence Of Beauty Lilies and Freesia; Essence Of Beauty Snowy Apple; Essence Of Beauty Sugar Frosted Mint; Essence Of Beauty Vanilla Wishes; Essence Of Beauty Wind Kissed; Ethyl Alcohol; Ethyl Alcohol 70 percent; Ethyl Rubbing Alcohol; Ethyl Rubbing Alcohol 70 Percent; Ethyl alcohol; Ethyl alcohol 70 percent ReadyInCase; Evergreen Snowman; Every Day Shea Moisturizing Shea Butter Hand Sanitizer Lavender; Every Day Shea Moisturizing Shea Butter Hand Sanitizer Unscented; Every Day Shea Moisturizing Shea Butter Hand Sanitizer Vanilla Mint; Everyone Hand Sanitizer Lavender Aloe; Exotic Cherry Blossom Hand Sanitizer; Exotic Cherry Blossom Kit Bodycology; Exotic Cherry Blossom Kit bodycology; FAIR and SQUARE ANTIBACTERIAL HAND SANITIZER with ALOE VERA; FAK Care4 Bus and School Yellow ORM D; FAK Large Office First Aid kit; FIRST AID Contains 1000 PIECES; FIRST AID Contains 202 PIECES; FIRST AID Contains 303 PIECES; FIRST AID Contains 303 PIECES HARDCASE; FIRST AID Contains 404 PIECES; FIRST AID Plus More ALCOHOL Prep Pad; Facilipro; Facilipro Protecting FHS; Facilipro Waterless Hand Rinse; Facility Maintenance Instant Hand Sanitizer HS-67; Fair and Square Antibacterial Hand Sanitizer with Vitamine E; Faith Family Ducks Antiseptic Hand Cleansing; Family Dollar Instant Hand Sanitizer with Moisturizers and Vitamin E; Fast; Fengliaoxing Fengshi Dieda Yaojiu; Fikes Instant Hand Sanitizer; Finafta; First Aid Kit; Five Photo Brand First Aid Antiseptic; Five Senses Almond Vanilla Fragranced Hand Sanitizer; Five Senses Cherry Blossom Fragranced Hand Sanitizer; Five Senses Lavender and Chamomile Fragranced Hand Sanitizer; Five Senses Orchid Bloom Fragranced Hand Sanitizer; Floral Frenzy; Foam Aid; Foam Hand Sanitizer; Foam San Hand Sanitizer; FoamFresh Alco-Foam Hand Sanitizer; Foamahol; Foamahol Hand Sanitizer; Foaming Hand Sanitizer; Foaming Instant Hand Sanitizer with Aloe; Foaming Mousse Anti-Bacterial Hand Sanitizer Cherry Scented; Foaming Mousse Anti-Bacterial Hand Sanitizer Pineapple Scented; Foaming Mousse Anti-Bacterial Hand Sanitizer Pink Grapefruit Scented; Foaming Sanitizing Hand; Forever Hand Sanitizer Hand Sanitizer; Foxy Citrus; Frais Hand Sanitizer; Free Hand; Freeman Packaging Hand Sanitizer; Freeman Packing Alcohol Wipe; Fresh Breeze; Fresh Cucumber Melon Bodycology; Fresh Decor Basil Green Tea; Fresh Decor Citrus Pomegranate; Fresh Decor Coconut Cream; Fresh Decor Lemon Verbena; Fresh Fries Hand Sanitizer; Fresh Fruit Scented Hand Sanitizer; Fresh Hand Sanitizer with vitamin E and aloe; Fresh Lavender Waterless Anti-Antibateria Hand Sanitizer; Fresh Med Solution; Fresh Scent Hand Sanitizer; Fresh Splash Scented Hand Sanitizer; Fresh Up Antiseptic Hand; Freshorize hand sanitizer; Frisky Cinnamon; Friuts and Flowers Clean Cotton Waterless Hand Sanitizer; Friuts and Flowers Grapefruit Waterless Hand Sanitizer; Frosted Berries and Cream Sanitizer Pen; Frosted Berry Hand Sanitizer; Frosted Berry Hand Sanitizer None; Frosted Sugar Cookie; Frosted Sugar Plum Hand Sanitizer Bodycology; Frosted cranberry anti-bacterial SCENTED HAND SANITIZER; Fruit Floral Scented Hand Sanitizer; Fuller Foaming Hand Sanitizer; Funky Monkey Hawaiian HAND SANITIZER; GBG AloeGel; GBG AloeGel Instant Hand Sanitizer; GENUINE FIRST AID Emergency Preparedness Contains 167 PIECES HARDCASE; GENUINE FIRST AID Emergency Preparedness Contains 167 Pieces; GFA First Aid 75 Person Metal Case; GNP Ethyl Rubbing Alcohol 70 Percent; GNP Idoinde Tincture 2% Mild; GOJO Advanced Hygienic Hand Rub; GOJO Instant Hand Sanitizer; GOJO Medical Hand Sanitizer; GOOD NEIGHBOR PHARMACY FIRST AID Contains 202 PIECES; Game Day MSC Mainstreet Collection Hand Sanitizer; Gas Island Hand Sanitizer; Gattex; Gbg; Gbgf; Gel Instant Hand Sanitizer; Gelrite; Genuine Hand Sanitizer; Georgia-Pacific Alcohol Hand Sanitizer; GeriGentle Hand Wipes; Germ Blaster Hand Sanitizer; Germ Bullet; Germ Fighter; Germ Free Zone Sanitizing Wipe; Germ SOS Sanitizing Wipes; Germ Safe; Germ-X; Germ-X Advanced; Germ-X Everywhere; Germ-X Hand Sanitizer; Germstar Premium Hand Sanitizer; Giant Eagle Aloe Hand Sanitizer; Giant Eagle Hand Sanitizer with Vitamin E; Giant Eagle Lemon Hand Sanitizer; Giant Eagle Pecan Pumpkin Pie Hand Sanitizer; Giant Eagle Vanilla Bean Hand Sanitizer; Ginger Lime Hand Sanitizer; Ginger Lime Waterless Hand Wash; Gingerbread; Gingerbread Jubilee; Gingerhead Girl anti-bacterial SCENTED HAND SANITIZER; Glazed Pear; Glistening Pear Hand Sainitizer; Glitter Ritz Golden Vanilla Embers; Glitter Ritz Iced Berry; Global Care 2 Pack Hand Sanitizer; Global Care 8oz Hand Sanitizer -original; Global Care Instant 8oz Hand Sanitizer - Original; Global Care Instant Hand Sanitizer 1.8oz; Global Clean Instant Hand Sanitizer; Goldlove Hand Sanitizer None; Good Neighbor Pharmacy Emergency Preparedness and First Aid Contains 167 Pieces; Good to Go Hand Sanitizer; Goongsecret Hands Clean; Green Antiseptic Mwh & Gargle; Green Apple Hand Sanitizer; Green Earth Alcohol Gel Sanitizer; Green Guard Antimicrobial Towelettes; Green Tea Antibacterial Hand Sanitizer; Greenex Hand Sanitizer; Gum Drop Hand Sanitizer; Gumdrop Glitz Hand Sanitizer; HAND AND NATURE SANITIZER PEACH 250mL; HAND SANITIZER CITRUS COCONUT with moisture beads; HAND SANITIZER PASSION FLOWER with moisture beads; HAND SANITIZER POMEGRANATE APPLE with moisture beads; HAND SANITIZER SUN BLOSSOM with moisture beads; HAND SANITIZER with ALOE VERA; HDX Hand Sanitizer; HEALTHCARE Instant Hand Sanitizer Strawberry Scent; HEALTHCARE Instant Hand Sanitizer Vanilla Scent; HEISCLEAN FOR MAN 150g; HER LH2473 Vanilla Scented Hand Sanitizer Kit; HER LH2475 Vanilla Scented Hand Sanitizer Kit; HER LH2476 Citrus Scented Hand Sanitizer Kit; HER LH2484 Strawberry Scented Hand Sanitizer Kit; HER LT279 Vanilla Limited Too Hand Sanitizer Kit; HER LT288 Citrus Limited Too Hand Sanitizer Kit; HER LT289 Vanilla Limited Too Hand Sanitizer Kit; HER LT297 Strawberry Limited Too Sanitizer Kit; HUGO Naturals FRENCH LAVENDER HAND SANITIZER; HUGO Naturals VANILLA PEPPERMINT HAND SANITIZER; HUSKY 515 Instant Hand Sanitizer; Han-I-Foam; Han-I-Size; Hand; Hand Care Set Fresh Berries; Hand Care Set Spiced Vanilla; Hand Care Set Winter Citrus; Hand Citrus Sanitizer; Hand Coconut Lime Sanitizer; Hand E San; Hand Essentials Instant Hand Antiseptic; Hand Gel Prolim Instant Hand Sanitizer; Hand Guard Foaming Instant Hand Sanitizer; Hand Recovery; Hand San; Hand Sanitiser; Hand Sanitizer; Hand Sanitizer 3pk; Hand Sanitizer All Variants; Hand Sanitizer Aloe Vera; Hand Sanitizer Antibacterial With Moisturizers and Aloe 8oz; Hand Sanitizer Antibacterial With Moisturizers and Vitamin E 1.8oz; Hand Sanitizer Anticeptic; Hand Sanitizer Apple Cider; Hand Sanitizer Apple Spice; Hand Sanitizer Banana Split; Hand Sanitizer Berry Pretty; Hand Sanitizer Birthday Cake; Hand Sanitizer Blow Pop Raspberry; Hand Sanitizer BlowPop Cherry; Hand Sanitizer Blue Raspberry; Hand Sanitizer Bodycology; Hand Sanitizer Bubble; Hand Sanitizer CDS Office Products; Hand Sanitizer Cherry; Hand Sanitizer Chocolate; Hand Sanitizer Circle K; Hand Sanitizer Citrus; Hand Sanitizer Clear; Hand Sanitizer Coastal Surf; Hand Sanitizer Coconut Dreams; Hand Sanitizer Cookies n Cream; Hand Sanitizer Cotton Candy; Hand Sanitizer Cranberry Tart; Hand Sanitizer Cucumber Aloe; Hand Sanitizer Dubble Bubble Original; Hand Sanitizer Free and Clear; Hand Sanitizer Fresh Snow; Hand Sanitizer Gel; Hand Sanitizer Gel 62%; Hand Sanitizer Gift Set 3-pack; Hand Sanitizer Graepfruit Grove; Hand Sanitizer Grape; Hand Sanitizer Grapefruit Grove; Hand Sanitizer Hand Rx; Hand Sanitizer Juicy Blueberry; Hand Sanitizer Lavender; Hand Sanitizer Lavender Field; Hand Sanitizer Lavender With Aloe; Hand Sanitizer Lavender with aloe; Hand Sanitizer Lemon; Hand Sanitizer Lemon Lime; Hand Sanitizer Lemon Scent Hand Rx; Hand Sanitizer Lemongrass with aloe; Hand Sanitizer Lil Drug Store Products, Inc.; Hand Sanitizer Lime; Hand Sanitizer Liq Top 60%; Hand Sanitizer Liq. 62%; Hand Sanitizer Merry Berry; Hand Sanitizer Moisturizing with Vitamin E and Glycerin; Hand Sanitizer Mojito Mint; Hand Sanitizer Orange; Hand Sanitizer Orange Blossom; Hand Sanitizer Orange Tangerine; Hand Sanitizer Orange With Aloe; Hand Sanitizer Orange with aloe; Hand Sanitizer Original; Hand Sanitizer Passionfruit Pomegranate; Hand Sanitizer Peach; Hand Sanitizer Peppermint Vanilla; Hand Sanitizer Pink Lemon; Hand Sanitizer Pink Lemonade; Hand Sanitizer Pink Strawberry Lollipop; Hand Sanitizer Pumpkin Cardamom; Hand Sanitizer Raspberry; Hand Sanitizer Razz; Hand Sanitizer Refill 15 oz; Hand Sanitizer Smarties Grape; Hand Sanitizer Smarties Orange Cream; Hand Sanitizer Smarties Pineapple; Hand Sanitizer Smarties Strawberry Banana; Hand Sanitizer Sour Apple; Hand Sanitizer Sparkling Rose; Hand Sanitizer Spicy Peppermint; Hand Sanitizer Spraying; Hand Sanitizer Strawberry; Hand Sanitizer Sugar Coated Plum; Hand Sanitizer Sugared Berry; Hand Sanitizer Sweet Sugar Cookie; Hand Sanitizer Toasted Vanilla; Hand Sanitizer Ultrathon; Hand Sanitizer Unscented; Hand Sanitizer Vanilla; Hand Sanitizer Vanilla Bourbon; Hand Sanitizer Vanilla Scent; Hand Sanitizer Warm Vanilla; Hand Sanitizer Watermellon; Hand Sanitizer Watermelon; Hand Sanitizer Winter Jelly Bean; Hand Sanitizer Wipes; Hand Sanitizer With Moisturizers and Vitamin E; Hand Sanitizer With Ve; Hand Sanitizer bottle with carabiner; Hand Sanitizer w Travel Clip 1.8 oz; Hand Sanitizer w/ Carabiner (Lemon Scented) 2oz Bonus pack; Hand Sanitizer w/ Carabiner (Strawberry Scented) 2oz Bonus pack; Hand Sanitizer w/ Carabiner (Watermelon Scented) 2oz Bonus pack; Hand Sanitizer w/Carabiner; Hand Sanitizer with Aloe; Hand Sanitizer with Aloe Vera; Hand Sanitizer with Moisturizers; Hand Sanitizer with Moisturizers Vitamin E and Aloe; Hand Sanitizer with Moisturizers and Aloe Vera Modesa; Hand Sanitizer with Moisturizers and Vitamin E; Hand Sanitizer, Cross the lime; Hand Sanitizer, Flower Power; Hand Sanitizer, Hello Sunshine; Hand Sanitizer, Mystic Fruits; Hand Sanitizer, Namaste; Hand Sanitizer, Unicorn Edition; Hand Sanitizing A Plus Teacher Unscented; Hand Sanitizing Blueberry; Hand Sanitizing Green Apple; Hand Sanitizing Lavender; Hand Sanitizing Mandarin; Hand Sanitizing Special Teacher Green Apple; Hand Sanitizing Strawberry; Hand Sanitizing Teachers Rule Mandarin; Hand Sanitizing Unscented; Hand Sanitizing Wipes; Hand and Nature Sanitizer Acacia; Hand and Nature Sanitizer Almond; Hand and Nature Sanitizer Aloe; Hand and Nature Sanitizer Apple; Hand and Nature Sanitizer Apple Mango; Hand and Nature Sanitizer Avocado; Hand and Nature Sanitizer Calendula; Hand and Nature Sanitizer Camellia; Hand and Nature Sanitizer Cherry Blossom; Hand and Nature Sanitizer Grape; Hand and Nature Sanitizer Grapefruit; Hand and Nature Sanitizer Green Tea; Hand and Nature Sanitizer Honey; Hand and Nature Sanitizer Jasmine; Hand and Nature Sanitizer Kiwi; Hand and Nature Sanitizer Lavender; Hand and Nature Sanitizer Lemon; Hand and Nature Sanitizer Orance; Hand and Nature Sanitizer Peach; Hand and Nature Sanitizer Peony; Hand and Nature Sanitizer Peppermint; Hand and Nature Sanitizer Raspberry; Hand and Nature Sanitizer Rose; Hand and Nature Sanitizer Rosemary; Hand and Nature Sanitizer Tomato; Hand and Nature Sanitizer White Musk; Hand sanitizer; Hand sanitizer lemongrass with aloe; Hand-Aid; Hand-E XL; Handex Instant Hand Sanitizer; Handful Sanitizer; Handi Sani; Handi-Sani; Handy Solutions Instant Hand Sanitizer With Aloe And Vitamin E; Hanitizer; Hannaford Hand Sanitizer; Hansan Foam; Hansan Spray; Harmon Face Values Cherry Blossom Scent Hand Sanitizer; Harmon Face Values Cucumber Melon Scent Hand Sanitizer; Harmon Face Values Fresh Waters Scent Hand Sanitizer; Harmon Face Values Hand Sanitizer Spray; Harmon Face Values Pomegranate Scent Hand Sanitizer; Harmon Face Values Warm Vanilla Sugar Scent Hand Sanitizer; Harris Teeter Hand Sanitizer With Vitamin E; Harris Teeter Hand Sanitizer With Vitamin E and Aloe; Harris Teeter Iodine Tincture Mild; Hawaiian Passion Hand Sanitizer; Healing Water Amber Flower Anti-Bacterial Hand Sanitizer; Healing Waters Aloe Cucumber Hand Sanitizer; Healing Waters Cherry Blossom Scented Waterless Hand Sanitizer; Healing Waters Clean Cotton Scented Anti-Bacterial Hand Sanitizer; Healing Waters Cotton Blossom Hand Sanitizer; Healing Waters Cucumber Melon Scented Anti-Bacterial Hand Sanitizer; Healing Waters Cucumber Melon Scented Waterless Hand Sanitizer; Healing Waters Island Nectar Scented Anti-Bacterial Hand Sanitizer; Healing Waters Lemon Verbena Hand Sanitizer; Healing Waters Peach Nectarine Hand Sanitizer; Healing Waters Sweet Pea Lily Hand Sanitizer; Healing Waters Sweet Pea Scented Anti-Bacterial Hand Sanitizer; Healing Waters Vanilla Orchid Anti-Bacterial Hand Sanitizer; Healing Waters Violet Rose Hand Sanitizer; Healing Waters White Tea Pear Hand Sanitizer; Health And Beyond Instant Hand Sanitizer; Health And Beyond Instant Hand Sanitizer Twin Pack Twin Pack; Health Care Instant Hand Sanitizer Ice Clear; Health Mart Iodides; Health Mart Iodine Tincture Mild; Health Smart Instant Hand Sanitizer with aloe vera and vitamin e; Health Smart Instant Hand Sanitizer with aloe vera and vitamin e cucumber melon; Health Smart Instant Hand Sanitizer with aloe vera and vitamin e lavender; Health Smart Instant Hand Sanitizer with aloe vera and vitamin e peach; Health Smart Instant Hand Sanitizer with aloe vera and vitamin e sweet pea; Health and Beyond Antiseptic Hand Sanitizer; Health and Beyond Green; Healthcare Personnel Handwash; Healthy Hands Aloe Instant Hand Antibacterial; Healthy Hands Instant Antiseptic Hand Cleanser; Healthy Hands Instant Antiseptic Hand Cleanser With Moisturizers; Heb Jasmine Tea and Basil; Heisclean for Man; Heisclean for Woman; Hello Kitty Hand Sanitizer; Hello Kitty by Sanrio Hand Sanitizer; Hes Clean; Hes Clean Adam; Hes Clean Eve; Hes Clean Plus; Hes Clean for Woman; Hexifoam-skin Disinfectant Aer 1%; HiGeen Antiseptic Hand Sanitizer Gel FRESH LEMON FRAGRANCE; HiGeen Antiseptic Hand Sanitizer Gel FRESH MARACUJA FRAGRANCE; HiGeen Antiseptic Hand Sanitizer Gel Fragrance Free; HiGeen Antiseptic Hand Sanitizer Gel LEMON VERBENA FRAGRANCE; HiGeen Antiseptic Hand Sanitizer Gel With Vitamin Beads Blue Flowers With Silicon Holder; HiGeen Antiseptic Hand Sanitizer Gel With Vitamin Beads Damask Rose With Silicon Holder; HiGeen Antiseptic Hand Sanitizer Gel With Vitamin Beads Fragrance Free With Silicon Holder; HiGeen Antiseptic Hand Sanitizer Gel With Vitamin Beads Green Tea and Cucumber With Silicon Holder; HiGeen Antiseptic Hand Sanitizer Gel With Vitamin Beads Jasmine With Silicon Holder; HiGeen Antiseptic Hand Sanitizer Gel With Vitamin Beads Kiwi With Silicon Holder; HiGeen Antiseptic Hand Sanitizer Gel With Vitamin Beads Lemon With Silicon Holder; HiGeen Antiseptic Hand Sanitizer Gel With Vitamin Beads Marine With Silicon Holder; HiGeen Antiseptic Hand Sanitizer Gel With Vitamin Beads Oud With Silicon Holder; HiGeen Antiseptic Hand Sanitizer Gel With Vitamin Beads Papaya with Silicon Holder; HiGeen Antiseptic Hand Sanitizer Gel With Vitamin Beads Passion Flower With Silicon Holder; HiGeen Antiseptic Hand Sanitizer Gel With Vitamin Beads Red Fruits With Silicon Holder; HiGeen Antiseptic Hand Sanitizer Gel With Vitamin Beads Together in love With Silicon Holder; HiGeen Antiseptic Hand Sanitizer Gel With Vitamin Beads Wild Berry With Silicon Holder; HiGeen Antiseptic Hand Sanitizer Gel with Vitamin Beads Blue Flowers; HiGeen Antiseptic Hand Sanitizer Gel with Vitamin Beads Damask Rose; HiGeen Antiseptic Hand Sanitizer Gel with Vitamin Beads For Kids and Adults BiBo; HiGeen Antiseptic Hand Sanitizer Gel with Vitamin Beads For Kids and Adults Bitty and Mitty; HiGeen Antiseptic Hand Sanitizer Gel with Vitamin Beads For Kids and Adults Dooh; HiGeen Antiseptic Hand Sanitizer Gel with Vitamin Beads For Kids and Adults FiLo; HiGeen Antiseptic Hand Sanitizer Gel with Vitamin Beads For Kids and Adults Gito; HiGeen Antiseptic Hand Sanitizer Gel with Vitamin Beads For Kids and Adults Kitty; HiGeen Antiseptic Hand Sanitizer Gel with Vitamin Beads For Kids and Adults MiDo; HiGeen Antiseptic Hand Sanitizer Gel with Vitamin Beads For Kids and Adults NiNo; HiGeen Antiseptic Hand Sanitizer Gel with Vitamin Beads Fragrance Free; HiGeen Antiseptic Hand Sanitizer Gel with Vitamin Beads Gold; HiGeen Antiseptic Hand Sanitizer Gel with Vitamin Beads Gold With Silicon Holder; HiGeen Antiseptic Hand Sanitizer Gel with Vitamin Beads Green Tea and Cucumber; HiGeen Antiseptic Hand Sanitizer Gel with Vitamin Beads Jasmine; HiGeen Antiseptic Hand Sanitizer Gel with Vitamin Beads Kiwi; HiGeen Antiseptic Hand Sanitizer Gel with Vitamin Beads Lemon; HiGeen Antiseptic Hand Sanitizer Gel with Vitamin Beads Marine; HiGeen Antiseptic Hand Sanitizer Gel with Vitamin Beads Oud; HiGeen Antiseptic Hand Sanitizer Gel with Vitamin Beads Papaya; HiGeen Antiseptic Hand Sanitizer Gel with Vitamin Beads Passion Flower; HiGeen Antiseptic Hand Sanitizer Gel with Vitamin Beads Red Fruits; HiGeen Antiseptic Hand Sanitizer Gel with Vitamin Beads Together in love; HiGeen Antiseptic Hand Sanitizer Gel with Vitamin Beads Wild Berry; Hibiscus Breeze; Hibiscus Coconut Hand Sanitizer; Hidden Passion Hand Sanitizer 01; High Five; Hillyard Foaming Instant Hand Sanitizer; Hillyard Instant Hand Sanitizer; Holiday Cookie Antibacterial; Holiday Wonders Frosted Marshmallow Antibacterial Hand Sanitizer; Holiday Wonders Sugared Plums Antibacterial Hand Sanitizer; Holiday Wonders Vanilla Peppermint Antibacterial Hand Sanitizer; Holiday Wonders Winter Berries Antibacterial Hand Sanitizer; Honeysuckle Ginger Hand Sanitizer; Hootin Pomegranate; Hootin Pomegranate HAND SANITIZER; Hs; Hubot Healthcare Hand Sanitizer; Humco Iodides Tincture; Humco Strong Iodine Tincture; Humphreys Alcoholado Maravilla; Husky Instant Hand Sanitizer; HyTouch; Hydrating Instant Hand Sanitizer; Hygenix Sanitizer; Hygiene; Hygiene Master Instant Hand Sanitizer; Hypercare; I LOVE NY Hand Sanitizer Vanilla Scent; ICI Alcohol Hand Sanitizer; ICS3 Blue Healthcare Hand Antiseptic; INSTANT HAND SANITIZER WITH ALOE and VITAMIN E; INSTANT Hand Sanitizer Extra Enriched With Vitamin E Lemon Fresh Scent; INSTANT Hand Sanitizer Extra Enriched With Vitamin E Strawberry Scent; INSTANT Hand Sanitizer Extra Enriched With Vitamin E Vanilla Scent; INSTANT Hand Sanitizer with Moisturizers All In One; Icee Blue Raspberry Scented Hand Sanitizer; Icee Strawberry Scented Hand Sanitizer; Icee White Cherry Scented Hand Sanitizer; Icing; Icing Iced Frosting Anti-Bacterial Hand Sanitizer; Icing Peppermint Candy Anti-Bacterial Hand Sanitizer; Icing Winterberry Anti-Bacterial Hand Sanitizer; Ihs 2000 Instant Hand Sanitizer; Ili Hand Sanitizer Instant; Industrial Antiseptic Sanitizer; Infectiguard Hand Sanitizer; Insect Sting Relief; Insect Sting Relief Pad; Insect String Relief pad; Insta Clean Foam Hand Sanitizer; InstaClean Hand Sanitizer; InstaFresh; Instaclean Hand Sanitizing; Instant Anti-bacterial Hand Gel; Instant Foam; Instant Foam Hand Sanitizer; Instant Foaming Hand Sanitizer; Instant Hand Antiseptic; Instant Hand Sanitizer; Instant Hand Sanitizer (Gel-Type); Instant Hand Sanitizer - Clear; Instant Hand Sanitizer - Cocoa Butter; Instant Hand Sanitizer - Ice Clear; Instant Hand Sanitizer - Original; Instant Hand Sanitizer - Strawberry Scented; Instant Hand Sanitizer - Vanilla Scented; Instant Hand Sanitizer 2oz Bonus pack; Instant Hand Sanitizer Aloe Vera; Instant Hand Sanitizer Blue Raspberry; Instant Hand Sanitizer Bubble Gum; Instant Hand Sanitizer Candy Apple; Instant Hand Sanitizer Chinese Cherry Blossom; Instant Hand Sanitizer Citrus Scent; Instant Hand Sanitizer Citrus Zest; Instant Hand Sanitizer Convenience Pack; Instant Hand Sanitizer Extra Enriched With Vitamin E Bead Lemon Fresh Scent; Instant Hand Sanitizer Extra Enriched With Vitamin E Bead Strawberry Scent; Instant Hand Sanitizer Extra Enriched With Vitamin E Bead Vanilla Scent; Instant Hand Sanitizer Foam; Instant Hand Sanitizer Fresh Aloe; Instant Hand Sanitizer Fresh Lemon Scented; Instant Hand Sanitizer Gel; Instant Hand Sanitizer Green Apple Scented; Instant Hand Sanitizer HAND SANITIZER BEACH; Instant Hand Sanitizer Harmon; Instant Hand Sanitizer KickPrints; Instant Hand Sanitizer Kuretek; Instant Hand Sanitizer Lavender; Instant Hand Sanitizer Lemon Drop; Instant Hand Sanitizer Original; Instant Hand Sanitizer Original With Aloe Vera And Vitamin E; Instant Hand Sanitizer Original With Moisturizer and Vitamin E; Instant Hand Sanitizer Strawberry Kiss; Instant Hand Sanitizer Strawberry Scented; Instant Hand Sanitizer Sugar Plum; Instant Hand Sanitizer TENNder CARE; Instant Hand Sanitizer Twisted Peppermint; Instant Hand Sanitizer Unscented; Instant Hand Sanitizer Unscented With Moisturizer and Vitamin E; Instant Hand Sanitizer Vanilla Noel; Instant Hand Sanitizer With Aloe; Instant Hand Sanitizer With Aloe and Vitamin E; Instant Hand Sanitizer With Moisturizers; Instant Hand Sanitizer With Moisturizers and Vitamin E; Instant Hand Sanitizer With Shea Butter; Instant Hand Sanitizer With Shea Butter Beads; Instant Hand Sanitizer With Vitamin E; Instant Hand Sanitizer and Moisterizer; Instant Hand Sanitizer with Moisturizers Aloe Scented; Instant Hand Sanitizer with Moisturizers Ocean Scented; Instant Hand Sanitizer with Moisturizers Unscented; Instant Hand Sanitizer with moisturizers (Vitamin E and aloe); Instant Hand Sanitizer with moisturizers (aloe vera and moisturizers); Instant Hand sanitizer; Instant Skin Sanitizer; Instant hand Sanitizer; InstantFOAM alcohol hand sanitizer; International First Amenity Kit; Iodides Tincture; Iodine; Iodine 0.5% Alcoholic Soln; Iodine Tincture Mild; Iris Antimicrobial Hand Sanitizer; Iris Hand Sanitizing Wipes; Irresistible Apple Scented Hand Sanitizer; Isagel; Island Cotton; Iso-Quin; Iso-quin; Isopropyl Alcohol; Jack Nicklaus Antiseptic Hand Sanitizer; Janitech Jan-HS-40 Instant Hand Sanitizer; Japanese Blossom Scented Hand Sanitizer; Japanese Cherry Blossom; Japanese Cherry Blossom Hand Sanitizer 01; Jasmine Tea and Basil Antibacterial Hand Sanitizer; Jasmine and Green Tea Antibacterial Sanitizer; Jelly Bean Antibacterial Hand; Jelly Bean Hand Sanitizer; Jingle Berry Scented Antibacterial Hand Sanitizer; John Deere Instant Hand Sanitizer; Jurlique Moisturizing Hand Sanitizer Natural Antibacterial; Just 4 Girl Waterless Anti Bacterial Hand Sanitizer Berry Blast; Justice ANTI BAC HAND SANITIZER; Justice Aztec Apple Scented Anti-Bacterial Hand Sanitizer; Justice BFF BERRY Scented Anti-bacterial Hand Sanitizer; Justice BFF Cotton Candy Scent Anti-Bacterial Hand Sanitizer; Justice BFF go together like unicorns glitter Berry Scented Anti-Bacterial Hand Sanitizer; Justice Be Strong Bright Citrus Scented Anti-Bacterial Hand Sanitizer; Justice Beautiful Berry Scent Anti-bacterial Hand Sanitizer; Justice Berry Blast Scented Anti-bacterial Hand Sanitizer; Justice Berry Scented Anti-bacterial Hand Sanitizer; Justice Berry Scented Anti-bacterial Hand Sanitizer - BFF; Justice Berry Twist Scent Antibacterial Hand Sanitizer; Justice Blue berry Scent ANTI BAC HAND SANITIZER; Justice Blueberry Scent Anti-bacterial Hand Sanitizer; Justice Boho Berry Scent Antibacterial Hand Sanitizer; Justice Bright Citrus Scent Anti-Bacterial Hand Sanitizer; Justice Bubble Gum Scent Anti-bacterial Hand Sanitizer; Justice Bubbling Blueberry Scented Anti-bacterial Hand Sanitizer; Justice Cactus Vanilla Scent Anti-Bacterial Hand Sanitizer; Justice Confetti Cupcake Scented Anti-bacterial Hand Sanitizer; Justice Cool Candy Pink Scented Anti-Bacterial Hand Sanitizer; Justice Cotton Candy Scent ANTI BAC HAND SANITIZER; Justice Cotton Candy Scent Anti-bacterial Hand Sanitizer; Justice Cotton Candy Scented Anti bacterial Hand Sanitizer; Justice Cotton Candy Scented Anti-bacterial Hand Sanitizer - Cat; Justice Cranberry Scented Anti-bacterial Hand Sanitizer; Justice Create Inspire Explore Blueberry Scent Anti-Bacterial Hand Sanitizer; Justice Dance Berry Blast Scented Anti-Bacterial Hand Sanitizer; Justice Dance Orange Scent Anti-Bacterial Hand Sanitizer; Justice Dazzling Berry Scented Anti-Bacterial Hand Sanitizer; Justice Electric LIME Bright Citrus Scented Anti-Bacterial Hand Sanitizer; Justice Elephant Mango Scent Anti-Bacterial Hand Sanitizer; Justice Frosted Cupcake Scented Anti-Bacterial Hand Sanitizer; Justice Frosted Vanilla Scented Anti-Bacterial Hand Sanitizer; Justice Fruit Punch Scent Antibacterial Hand Sanitizer; Justice Fruit Punch Scented Anti bacterial Hand Sanitizer; Justice Fruit Scent ANTI BAC HAND SANITIZER; Justice Glitter Berry Scented Anti-bacterial Hand Sanitizer - A; Justice Glitter Berry Scented Anti-bacterial Hand Sanitizer - Llama; Justice Grape Scent ANTI BAC HAND SANITIZER; Justice Grape Scented Anti bacterial Hand Sanitizer; Justice Hamburger Green Apple Scent Anti-Bacterial Hand Sanitizer; Justice Latte Cotton Candy Scent Anti-Bacterial Hand Sanitizer; Justice Lavender DREAM Scented Anti-Bacterial Hand Sanitizer; Justice Lemonade Scented Anti bacterial Hand Sanitizer; Justice Letter A Blueberry Scent Anti-bacterial Hand Sanitizer; Justice Letter B Blueberry Scent Anti-bacterial Hand Sanitizer; Justice Letter C Blueberry Scent Anti-bacterial Hand Sanitizer; Justice Letter D Blueberry Scent Anti-bacterial Hand Sanitizer; Justice Letter E Blueberry Scent Anti-bacterial Hand Sanitizer; Justice Letter G Blueberry Scent Anti-bacterial Hand Sanitizer; Justice Letter H Blueberry Scent Anti-bacterial Hand Sanitizer; Justice Letter I Blueberry Scent Anti-bacterial Hand Sanitizer; Justice Letter J Blueberry Scent Anti-bacterial Hand Sanitizer; Justice Letter K Blueberry Scent Anti-bacterial Hand Sanitizer; Justice Letter L Blueberry Scent Anti-bacterial Hand Sanitizer; Justice Letter M Blueberry Scent Anti-bacterial Hand Sanitizer; Justice Letter N Blueberry Scent Anti-bacterial Hand Sanitizer; Justice Letter P Blueberry Scent Anti-bacterial Hand Sanitizer; Justice Letter R Blueberry Scent Anti-bacterial Hand Sanitizer; Justice Letter S Blueberry Scent Anti-bacterial Hand Sanitizer; Justice Letter T Blueberry Scent Anti-bacterial Hand Sanitizer; Justice Letter T Frosted Berry Scented Anti-Bacterial Hand Sanitizer; Justice Love Hugs Me and You Cotton Candy Scent Anti-Bacterial Hand Sanitizer; Justice MAGICAL MELON Scented Anti-bacterial Hand Sanitizer; Justice Meow Mint Scented Anti-bacterial Hand Sanitizer; Justice Mermaid Mix Berry Scent Anti-Bacterial Hand Sanitizer; Justice Mixed Berry ANTI BAC HAND SANITIZER; Justice Mixed Berry Scent Antibacterial Hand Sanitizer; Justice Mixed berry Scent ANTI BAC HAND SANITIZER; Justice Outta This World Vanilla Scented Anti-bacterial Hand Sanitizer; Justice PUPPY LOVE Cotton Candy Scent Anti-bacterial Hand Sanitizer; Justice Paris Punch Scent Antibacterial Hand Sanitizer; Justice Peace Love Lemonade Scented Anti-Bacterial Hand Sanitizer; Justice Peppermint Twist Scented Anti-Bacterial Hand Sanitizer; Justice Pinapple Pizazz Scented Anti-bacterial Hand Sanitizer; Justice Pineapple Scent Anti-Bacterial Hand Sanitizer; Justice Plum Berry Scented Anti-Bacterial Hand Sanitizer; Justice Pop Corn Vanilla Scent Anti-Bacterial Hand Sanitizer; Justice Rabbit Strawberry Scent Anti-Bacterial Hand Sanitizer; Justice Rainbow Raspberry Scented Anti-bacterial Hand Sanitizer; Justice Rhinestone Raspberry Scent Anti-Bacterial Hand Sanitizer; Justice SPARKLING BERRY Scented Anti-Bacterial Hand Sanitizer; Justice Shimmer Strawberry Scent Anti-bacterial Hand Sanitizer; Justice Sparkling Strawberry Scented Anti-bacterial Hand Sanitizer; Justice Sparkling Vanilla Scented Anti-Bacterial Hand Sanitizer; Justice Strawberry Macaroon Scented Anti-Bacterial Hand Sanitizer; Justice Strawberry Scent ANTI BAC HAND SANITIZER; Justice Strawberry Scent Anti-bacterial Hand Sanitizer; Justice Strawberry Stardust Scented Anti-Bacterial Hand Sanitizer; Justice Strawberry Swirl Scented Anti-Bacterial Hand Sanitizer; Justice Sugar Swirl Scent Antibacterial Hand Sanitizer; Justice Sugared DONUT Scented Anti-Bacterial Hand Sanitizer; Justice Sweet Cinnamon Scented Anti-Bacterial Hand Sanitizer; Justice Tortoise Green Apple Scent Anti-Bacterial Hand Sanitizer; Justice Tribal Tangerine Scent Anti-bacterial Hand Sanitizer; Justice Tucan Strawberry Scent Anti-Bacterial Hand Sanitizer; Justice Twist Peppermint Scented Anti-Bacterial Hand Sanitizer; Justice VANILLA Latte Scented Anti-Bacterial Hand Sanitizer; Justice Vanilla ANTI BAC HAND SANITIZER; Justice Vanilla Latte Scented Anti-Bacterial Hand Sanitizer; Justice Vanilla Scent ANTI BAC HAND SANITIZER; Justice Vanilla Scent Anti-bacterial Hand Sanitizer; Justice Vanilla Scented Anti-bacterial Hand Sanitizer; Justice Vanilla Vibes Scented Anti-bacterial Hand Sanitizer; Justice WATERMELON Scented Anti-bacterial Hand Sanitizer; Justice Watermelon Scent Antibacterial Hand Sanitizer; Justice Watermelon Scented Anti bacterial Hand Sanitizer; Justice Wild Melon Scented Anti-Bacterial Hand Sanitizer; Justice very BERRY Grape Scented Anti-Bacterial Hand Sanitizer; K-Mart SmartSense First Aid Contains 303 Pieces; KDS Lab Liquid Styptic; KE-53PS Gel Hand Sanitizer; KE-53PS Hand Sanitizer; KLAR and DANVER INSTANT HAND SANTIZER; KLEENEX Antiseptic Hand Rub with Moisturizers; KLEENEX Hand Sanitizer; KLEENEX Luxury Moisturizing Instant Hand Sanitizer; KUB Cartridge Refeel Antiseptic Hand Sanitizer Unscented; KUB Cartridge Refill Antiseptic Hand Sanitizer Unscented; Kay Actigel; Kay Alphasan Hand Sanitizer; Keystone Liquid Hand Sanitizer; KidzStuff Hand Sanitizer; Kimcare Moisturizing Instant Hand Sanitizer; Kindest Kare Air-Infused Foam Antiseptic Handrub; Kindest Kare Antimicrobial Foam Handwash; Kindest Kare Foam Antiseptic Handrub with Enhanced Emollients; Kit Breakroom Office First Aid; Kit Large Office First Aid; Kleen Instant Hand Sanitizer with Moisturizers; Kleenex Hand Sanitizer, Green Certified; Kleenex Instant Hand Sanitizer; Kleenex Moisturizing Hand Sanitizer, Hydrates Skin; Kleenex Moisturizing Instant Hand Sanitizer; Kleenex Reveal Moisturizing Foam Hand Sanitizer; Kleenex Ultra Moisturizing Hand Sanitizer; Knockout Hand Sanitizer; Kong HandiPOD; Kroger Waterless Hand Sanitizer Citrus Scent; Kroger Waterless Hand Sanitizer Citrus Scent With Moisturizers And Vitamin E; Kroger Waterless Hand Sanitizer With Aloe With Moisturizers And Vitamin E; Kroger Waterless Hand Sanitizer with Aloe; LA Bodies Purita Anti-Bacterial Hand Sanitizer; LE TECHNIQ hAND SANITIZER APPLE POMEGRANATE; LEADER 2% Mild Iodine Tincture; LEADER Mild Iodine; LETTERS Lavender Hand Sanitizer; LETTERS Lemon Verbena Hand Sanitizer; LETTERS Ocean Blue Hand Sanitizer; LONDON Hand Sanitizer Vanilla Scent; LUCASOL Hand Instant Hand Sanitizer; La mer Hand Sanitizer; Lalaloopsy Watermelon Antiseptic Hand Cleansing; Landrum Instant Hand Sanitizer; Large ANSI First Aid Kit; Laughing Linen; Laughing Linen Hand Sanitizer; Lavender; Lavender Antibacterial Hand Sanitizer; Lavender Antibacterial Hand Sanitizer with Aloe and Vitamin E; Lavender Hand Sanitizer; Lavender Hand Sanitizer Wipes; Lavender Hand Sanitizing Wipes; Lavender Life Hand Sanitizer; Lavender Vanilla Anti-Bacterial Hand Sanitizer; Lavender Waterless Hand Wash; Lavender de Provence Antibacterial Hand Sanitizer; Le Techniq Aloe; Le Techniq Antibacterial Hand Island Citrus; Le Techniq Hand Sanitizer Jasmine Basil; Le Vital Berry Kissed; Le Vital Blossom Delight; Le Vital Dreamy Glow; Le Vital Hidden Passion; Le Vital Japanese Cherry Blossom; Le Vital Midnight Rush; Le Vital Moon to Light; Le Vital Sweet Pea; Le Vital Vanilla Heaven; Le Vital Wake Me Up; Leader Decolorized Iodine; Leap Frog Fresh HAND SANITIZER; Lemon Hand Sanitizer; Lemon Lime Hand Sanitizer; Lemon Love Hand Sanitizer; Lemon Scented Hand Sanitizer; Lemon Thyme Antibacterial Hand Sanitizer; Lemon Verbena Hand Sanitizer; Lemon Verbena Waterless Hand Wash; Lemon hand sanitizer 01; Lemon splash anti-bacterial SCENTED HAND SANITIZER; Lidl Instant Hand Sanitizer; Lisa Frank Bubblegum Antiseptic Hand Cleansing; Little Ones Baby Fresh Sanitizer; Little Ones Lavender; Little Ones Original; Lollipop; Lollipop Scented Anti-bacterial Hand Gel; Love Hand Sanitizer; Love You Berry Much; Love and Beauty Coconut Vanilla Essence Antibacterial Scented Hand Sanitizer; Love and Beauty Floral Rose Essence Antibacterial Scented Hand Sanitizer; Love and Beauty Grapefruit Citrus Essence Antibacterial Scented Hand Sanitizer; Love and Beauty Lemon Fresh Essence Antibacterial Scented Hand Sanitizer; Love and Beauty Melon and Mint Anti-Bacterial Hand Sanitizer; Love and Beauty Peach Mango Anti-Bacterial Hand Sanitizer; Love and Beauty Sweet Berry Essence Antibacterial Scented Hand Sanitizer; Lovely Lavender; Lucky Hand Sanitizer Citrus Zest; Lucky Hand Sanitizer Lavender; Lucky Hand Sanitizer with Aloe Vera; Lucky Hand Sanitizer with Vitamin E; Lucky Instant Hand Cleanser with Aloe Vera; Lucky Instant Hand Cleanser with Vitamin E; Lucky Instant Hand Sanitizer Citrus Zest; Lucky Instant Hand Sanitizer with Aloe Vera; Lucky Instant Hand Sanitizer with Vitamin E; Lucky Instant Hand Sanitizer with Vitamin E and Moisturizers; Lucky Sanitizing Hand Towels; Lupaneta Pack; Luscious Lime; Lynx san a foam; MADA Hand Sanitizing Wipes; MY INSTANT HAND SANITIZER with aloe and vitamin e; Mada; Mada 70% Alcohol; Mandarin Antibacterial Hand Sanitizer; Mandarin Orange Anti-Bacterial Hand Sanitizer; Mandarin Orange and Lemon Antibacterial Sanitizer; Mango Antibacterial Hand Sanitizer; Mango Madness Hand Sanitizer; Mango papaya anti-bacterial SCENTED HAND SANITIZER; Manorapid Synergy; Manugel 85; Marshmallow; Marshmallow Antibacterial Hand; Marshmallow Scented Anti-bacterial Hand Gel; Marvel Iron Man 3 Hand Sanitizer; Marvel The Avengers Hand Sanitizer; Marvel Ultimate Spider-man Antiseptic Hand Cleansing Berry Scented; Marvel Ultimate Spider-man Berry Scented Antiseptic Hand Cleansing; Mayfair Anti-bacterial Hand Sanitizer; McD Hand Sanitizer; McKesson Hand Sanitizer; Mcd Antiseptic Hand Gel 70%; Med Plus; Medama Waterless Foam hand Sanitizer; Medi Fect Antiseptic Hand Wash; Medi-Pak Performance Instant Hand Sanitizer; Medi-Pak Performance Instant Hand Sanitizer with Aloe; Medi-wipes; MediChoice Hand Sanitizer; MediChoice Instant Hand Sanitizer Fragrance free; MediChoice Instant Hand Sanitizer Honey scented; MediSoft; Medimaxx Citrus; MegaFresh Hand Sanitizer; Mellow Hand Sanitizer (aloe and Vitamin E); Mellow Hand Sanitizer (original) With Moisturizer and Vitamin E; Mellow Instant Hand Sanitizer Original; Mellow Instant Hand Sanitizer With Aloe and Vitamin E; Melon Mango Melt Hand Sanitizer; Members Selection Aloe Vera Sanitizer; Menticol first aid antiseptic and external analgesic lotion; Microban; Microban 80; Microban Medical; Microban Unscented; Midnight Rush hand sanitizer 01; Mini Hand Sanitizer - Coconut and Lime; Mini Hand Sanitizer - Orange and Lemon; Minions Hand Sanitizer; Miss Spa; Mist; Mius; Mix Berries Anti Bacterial Hand Sanitizer; Modesa; Modesa Antibacterial Hand Sanitizer Lemon; Modesa Hand Sanitizer 2 fl.oz. 3 pk; Modesa anti-bacterial hand gel; Moist SURE; Moisturizing Hand Sanitizer; Moisturizing Instant Hand Sanitizer; Mojito Sun; Mommy Tillia Antibacterial Hand; Moon To Light Hand Sanitizer 01; Moonglade Hand Sanitizer; Morning Fresh Hand Sanitizer; Mousse Vite; Mrs. Meyers Clean Day Hand Sanitizer Basil Scent; Mrs. Meyers Clean Day Hand Sanitizer Lavender Scent; Mrx Liq; Mueller Instant Hand Sanitizer; Multimist Healthy Hands Gel 60%; My Little Pony Antibacterial Hand Sanitizer with Moisturizers; My Little Pony Grape Antiseptic Hand Cleansing; MyTerra Hand Sanitizer Foam; Myrrh Woman Essence; Mysotrol No Rinse Antiseptic Hand Cleanser; Natural Concepts Aloe Hand Sanitizer; Natural Hand Sanitizer; Natural Inclination Hand Sanitize; Naturally Nova Scotia Hand Sanitizer; Naturals Cucumber Melon Antibacterial Hand; Naturals Pomegranate and Mango Antibacterial Hand; Naturals Vanilla Antibacterial Hand; Nickelodeon Jojo Siwa Hand Sanitizer Berry Sweet Scent; North Safety First Aid Kit 35P10BBK; North Safety First Aid Kit 553001; North Safety First Aid Kit 554001; North Safety First Aid Kit 68G100; North Safety First Aid Kit SF00000669; North Safety First Aid Kit SF00003588; North Safety First Aid Kit Z019814; North Safety First Aid Kit Z42500MG; North Safety First Aid Kit Z42750; North Safety First Aid Kit Z63157978; North Safety First Aid Kit Z63158027; Northside Hospital Amenity Kit; Northside Hospital Amenity Kit--GI Dept; Northside Hospital Bereavement; Northside Hospital C-Section Mothers Bag; Northside Hospital H.E.A.R.T. Strings Bag; Northside Hospital Mothers Bag; Northside Hospital Natural Mothers Bag; NovaClenz Instant Hand Sanitizer; Nox-A-Sting; Nu Skin Epoch; Nuvalu Hand Sanitizer Sweet Pea 1oz; Nuvalu Hand Sanitizer Sweet Pea Blue 1oz; Nuvalu Instant Hand Sanitizer Aloe Vera; Nuvalu Instant Hand Sanitizer Aloe Vera 8oz; Nuvalu Instant Hand Sanitizer Lavender 8oz; Nuvalu Instant Hand Sanitizer Original; Nuvalu Instant Hand Sanitizer Original 8oz; Nuvel Hand Sanitizer; O BlancTis; ODD-SAN Services Hand Sanitizer; ODO-SAN Services Hand Sanitizer; ONID Wipe; Ocean Breeze; Ocean Breeze Antibacterial Hand; Ocean Breeze Antibacterial Hand Sanitizer with Aloe and Vitamin E; Ocean Breeze Scented Hand Sanitizer; Ocean Hand Sanitizer; Ocean Waterless Hand Wash; Olive Antibacterial Hand Sanitizer; On Guard Hand Sanitizing Wipe; On Guard Sanitizing Mist; One Step; One Step - Instant Hand Sanitizer; One Step Hand Sanitizer; One Step Hand Sanitizer Aloe; One Step Sanitizer; One Step Wipes; Orange Blossom Antibacterial Hand; Orange Scented Hand Sanitizer; Orange Spice Scented Antibacterial Hand Sanitizer; Orbel; Orchid Antibacterial Vanilla and Apple Blossom; Orchid By H E B Jasmine Tea and Basil; Orchid By H E B Vanilla Brown Sugar; Orchid Jasmine Tea and Basil; Orchid Sugar Cookie; Organic Hand Sanitizer Peppermint; Organic Lavender Hand Sanitizer; Osceola Skin Care Sani-Gel Instant Hand Sanitizer; Out Of The Blue Scented Hand Sanitizer; Outlast Long-lasting Hand Sanitizer; P.O.V. Aloe Vera Hand Sanitizer; P.O.V. Vitamin E Hand Sanitizer; PC HanSan; PDI Alcohol Prep Pad Large and Medium; PDI Alcohol Prep Pad Sterile Large and Medium; PDI Alcohol Swabstick Threes and Ones; PDI Sani Hands; PDI Sani-Hands ALC Antimicrobial Alcohol Gel Hand Wipes; PDI Sani-Hands Instant Hand Sanitizing Wipes; PDI Sani-Hands for Kids Antimicrobial Alcohol Gel Hand Wipes; PDI Sani-HandsInstant Hand Sani Instant Hand Sanitizing Wipes; PF Hand Sanitizing; PMS-oxtriphylline Elixir; PRIME SOURCE Hand Sanitizer; PRO-LINK Hand Sanitizer; PURELL Advanced E3 Rated Instant Hand Sanitizer; PURELL Advanced E3 Rated Instant Hand Sanitizer Foam; PURELL Advanced Foam Hand Rub; PURELL Advanced Green Certified Instant Hand Sanitizer; PURELL Advanced Hand Rub; PURELL Advanced Hand Sanitizer Aspen Retreat; PURELL Advanced Hand Sanitizer Biobased Content; PURELL Advanced Hand Sanitizer Blushing Pink Orchid; PURELL Advanced Hand Sanitizer Foam; PURELL Advanced Hand Sanitizer Fresh Peppermint Cheer; PURELL Advanced Hand Sanitizer Gel; PURELL Advanced Hand Sanitizer Grandma s Apple Delight; PURELL Advanced Hand Sanitizer Green; PURELL Advanced Hand Sanitizer Holiday Spice; PURELL Advanced Hand Sanitizer Mandarin Medley; PURELL Advanced Hand Sanitizer Naturals Gel; PURELL Advanced Hand Sanitizer Nightime Winterberry; PURELL Advanced Hand Sanitizer Nourishing; PURELL Advanced Hand Sanitizer O Christmas Tree; PURELL Advanced Hand Sanitizer Ocean Kiss; PURELL Advanced Hand Sanitizer Ocean Mist Gel; PURELL Advanced Hand Sanitizer Oven-Baked Apples; PURELL Advanced Hand Sanitizer Pumpkin Delight; PURELL Advanced Hand Sanitizer Refreshing Gel; PURELL Advanced Hand Sanitizer SpongeBob Splash; PURELL Advanced Hand Sanitizer Spring Bloom Gel; PURELL Advanced Hand Sanitizer Spring Breeze; PURELL Advanced Hand Sanitizer Sweet Papaya Mango; PURELL Advanced Hand Sanitizer Sweet Plum; PURELL Advanced Hand Sanitizer Ultra Nourishing Foam; PURELL Advanced Hand Sanitizer Warm Fall Spice; PURELL Advanced Hand Sanitizer Warm Fireplace Gathering; PURELL Advanced Hand Sanitizer Watermelon Splash; PURELL Advanced Hand Sanitizer Winter Wonderland Spice; PURELL Advanced Hand Sanitizer Winterberry Delight; PURELL Advanced Hand Sanitizer Wintergreen Mint; PURELL Advanced Hand Sanitizer be Blissful; PURELL Advanced Hand Sanitizer be Peaceful; PURELL Advanced Hand Sanitizer be Vibrant; PURELL Advanced Hygienic Hand Rub; PURELL Advanced Hygienic Hand Sanitising Foam; PURELL Advanced Instant Hand Sanitiser Aloe Gel; PURELL Advanced Instant Hand Sanitiser Gel; PURELL Advanced Instant Hand Sanitizer; PURELL Advanced Instant Hand Sanitizer Fragrance Free; PURELL Advanced Skin Balancing Hand Sanitizer; PURELL Advanced Skin Nourishing Instant Hand Sanitizer; PURELL Advanced for Surgical Scrub Use; PURELL Advanced with Aloe Instant Hand Sanitizer; PURELL Alcohol Hand Sanitizing Wipes; PURELL Antiseptic Hand Foam; PURELL Antiseptic Hand Gel; PURELL Cottony Soft; PURELL Education Advanced Hand Sanitizer Gentle and Free Foam; PURELL Foaming Hand Sanitizer; PURELL Food Processing Advanced Hand Sanitizer E3 Foam; PURELL Foodservice Advanced Hand Sanitizer Foam; PURELL Foodservice Advanced Hand Sanitizer VF481 Gel; PURELL Green Certified Instant Hand Sanitizer Foam (ETHYL ALCOHOL); PURELL Hand Sanitising Gel VF481; PURELL Hand Sanitizing Wipe Alcohol Formula; PURELL Healthcare Advanced Hand Sanitizer Foam; PURELL Healthcare Advanced Hand Sanitizer Gel; PURELL Healthcare Advanced Hand Sanitizer Gentle and Free Foam; PURELL Healthcare Advanced Hand Sanitizer ULTRA NOURISHING Foam; PURELL Instant Hand Sanitiser Fragrance Free; PURELL Instant Hand Sanitizer; PURELL Instant Hand Sanitizer Advanced Formula (VF481); PURELL Instant Hand Sanitizer Foam (ETHYL ALCOHOL); PURELL Instant Hand Sanitizer Moisture Therapy; PURELL Instant Hand Sanitizer Ocean Mist; PURELL Instant Hand Sanitizer with Moisturizers and Vitamin E; PURELL Professional Advanced Hand Sanitizer Foam; PURELL Professional Advanced Hand Sanitizer Fragrance Free Foam; PURELL Professional Advanced Hand Sanitizer Fragrance Free Gel; PURELL Professional Advanced Hand Sanitizer Gel; PURELL VF PLUS Hand Sanitizer Gel; PURELL VF481 Hand Sanitizer; PURELL Waterless Surgical Scrub; Pacific Blue Basic Gel Hand Sanitizer with Moisturizers; Pacific Blue Select Foam Hand Sanitizer, Fragrance Free, Dye Free; Pacific Blue Select Gel Hand Sanitizer Fragrance and Dye Free; Pacific Blue Ultra Foaming Fragrance Free; Pacific Garden E3 Rated Foam Hand Sanitizer; Pacific Garden Foam Hand Sanitizer, Fragrance Free, Dye Free; Panrosa Instant Antiseptic Hand Sanitizer With Moisturizers; Papaya Mango Antibacterial Hand; Paris Hand Sanitizer Vanilla Scent; Passion Fruit Hand Sanitizer; Passion Fruit Kiss; Patterson Waterless Gel; Paw Patrol Chase Hand Sanitizer (berry Scent); Paw Patrol Hand Sanitizer; Paw Patrol Jkye Hand Sanitizer (berry Scent); Paw Patrol Mashall Hand Sanitizer (berry Scent); Paws; Peach Mango Anti-Bacterial Hand Sanitizer; Penguin Icicles; Peppermint Hand Sanitizer; Peppermint Hand Sanitizer None; Peppermint Ice anti-bacterial SCENTED HAND SANITIZER; Peppermint Swirl Antibacterial Hand Sanitizer; Perfect Purity Advanced Hand Refreshing Aloe; Perfect Purity Advanced Hand Sanitizer Refreshing; Perk Hand Sanitizer; Perk Hand Sanitizer Moisturizing Gel; Persist Povidone Iodine Prep; Personal CARE Hand Sanitizer with Moisturizers Vitamin E; Personal Care; Personal Care Hand Sanitizer; Personal Care Hand Sanitizer Aloe; Personnelle Desinfectant Pour Les Mains; Pharmacy Prescription 1.8oz Hand Sanitizer - Cucumber Melon; Pharmacy Prescription 1.8oz Hand Sanitizer - Original Scent; Pharmacy Prescription 1.8oz Hand Sanitizer - Sweet Pea; Pharmacy Prescription 1.8oz Hand Sanitizer - Sweet Peach; Pharmacys Prescription 1.8oz Hand Sanitizer Cucumber Melon; Pharmacys Prescription 1.8oz Hand Sanitizer Original Scent; Pharmacys Prescription 1.8oz Hand Sanitizer Sweet Pea; Pharmacys Prescription 1.8oz Hand Sanitizer Sweet Peach; Pharmacys Prescription 2pk 2oz Hand Sanitizer; Pharmacys Prescription 8oz Hand Sanitizer; Pharmacys Prescription Hand Sanitizer 2oz; Pharmacys Prescription Hand Sanitizer 8oz; Pier 1 Imports Blueberry Parfait Anti-Bacterial Hand Sanitizer; Pier 1 Imports Cherry Anti-Bacterial Hand Sanitizer; Pier 1 Imports Crisp Bamboo Anti-Bacterial Hand Sanitizer; Pier 1 Imports Ginger Peach Anti-Bacterial Hand Sanitizer; Pier 1 Imports Iced Cookie Anti-Bacterial Hand Sanitizer; Pier 1 Imports Lavender Anti-Bacterial Hand Sanitizer; Pier 1 Imports Lavender Vanilla Anti-Bacterial Hand Sanitizer Pier 1 Imports; Pier 1 Imports Lily blossom Anti-Bacterial Hand Sanitizer; Pier 1 Imports Melon and Mint Anti-Bacterial Hand Sanitizer; Pier 1 Imports Passion Fruit Anti-Bacterial Hand Sanitizer; Pier 1 Imports Sugared Plum Anti-Bacterial Hand Sanitizer; Pier 1 Imports Vanilla Mint Anti-Bacterial Hand Sanitizer; Pineapple Paradise; Pineapple Paradise Scented Hand Sanitizer; Pineapple Scented Hand Sanitizer; Pink Grape Fruit Waterless Anti-bacterial Hand Sanitizer; Pink Grapefruit Antibacterial Hand Sanitizer; Pink Lemonade Hand Sanitizer; Pink Macaroon Hand Sanitizer; Pioneer Eclipse Touche Foaming Hand Sanitizer; Piranha Brand Foaming Alcohol Hand Sanitizer; Pizza Party Hand Sanitizer; Pl-0591; Pl-1807; Pl-1808; Plane It Safe Hand Sanitizer; Pomegranate Rose Hand Sanitizer; Pomegranate Scented Hand Sanitizer; Pomegranate Vanilla Scented Hand Sanitizer; Prednisone; Preference Hand Sanitizer; Premier Value Iodine Tincture Mild; Premium Hand Sanitizer; Premium Hand Sanitizer Cucumber Green Tea; Premium Hand Sanitizer Nectarine Mint; Premium Hand Sanitizer with Aloe; Pretty Peppermint Antibacterial; Pretty Pump Hand Sanitizer; Pretty Punch; Pretty in Paris Hand Sanitizer bodycology; Pretty in Paris Kit Bodycology; Prevail Hand Sanitizer Lemongrass; Prevail One Step; Prevail Pomegranate Hand Sanitizer; Prevail White Tea Hand Sanitizer; Prevent; Prevent Hand Sanitizer; Prime-cide; Pro Advantage Instant Hand Sanitizer; Pro-Source Distributors; ProCure Hand Sanitizing; ProFormance Series Foam Alcohol Hand Sanitizer; Proandre; Proformance Foam Alcohol Sanitizer; Protect U Guard 62% Foaming Hand Sanitizer; Protecteav; Protecting FHS; Protection; Pumpkin Spice Antibacterial Hand Sanitizer; Pumpkin pie anti-bacterial SCENTED HAND SANITIZER; Pure Foam; Pure Gel; Pure Hands; Pure Spring; Pure Spring Lemon and Mint; Pure Spring Strawberry and Pomegranate; PureForce; Pureforce; Purehold Antiseptic Instant Hand Sanitizer; Purel Hand Sanitizer; Purell; Purell Advanced Hand Sanitizer Coconut Beach Siesta; Purell Advanced Hand Sanitizer Fresh Peach Blossoms; Purell Advanced Hand Sanitizer Inspiring Island Getaway; Purell Advanced Hand Sanitizer Moonlit Moments; Purell Advanced Hand Sanitizer Refreshing Florals; Purell Advanced Hand Sanitizer Revitalizing Rain; Purell Advanced Hand Sanitizer Sprinkled With Love; Purell Advanced Hand Sanitizer Tranquil Sunset; Purell Advanced Hand Sanitizer Warm Holiday Treats; Purell Advanced Hand Sanitizer Winter Jubilee; Purell Advanced Refreshing; Purell Advanced Refreshing Aloe; Purell Advanced Soothing; Purell Alcohol Formulation; Purell Instant Hand Sanitizer; Purell Instant Hand Sanitizer with a touch of a Lubriderm moisturizer; Purell Instant Ultra; Purell Personal Pack Sanitizing; Purell Sanitizing Hand Wipes; Puresan Ocean Breeze; Purgel; Puritan Hand Sanitizer; Purmist; Puro 70 Percent Alcohol Foaming Hand Sanitizer; Purrfect Cherry; Purrfect Cherry HAND SANITIZER; Purrfect Rasberry HAND SANITIZER; Purse Essentials hand sanitizer Anti-Bacterial Hand Berry Sorbet; Purse Essentials hand sanitizer Anti-Bacterial Hand Vanilla Sugar; Purse Essentials hand sanitizer Anti-Bacterial Hand Wild Passion Flower; QC Iodine Tincture Mild; QSR Hand Sanitizer; Qc 2oz Instant Hand Sanitizer (original); Qc 8oz Instant Hand Sanitizer (original); Quality Choice Iodides Tincture; Quality Choice Iodine Tincture Mild; Quick Fix - Instant Hand Sanitizer; Quick San ll Hand Sanitizer Wipes; Quik Gel; Quik Spray; Quik Wipes; Quik-Care; RUE 21 Apple Anti Bacterial Hand Sanitizer; RUE 21 Dream Dance Love Vanilla Spice Anti Bacterial Hand Sanitizer; RUE 21 Fallen Vixen Anti Bacterial Hand Sanitizer; RUE 21 Free Spirit Fresh Flowers Anti Bacterial Hand Sanitizer; RUE 21 Legend Blueberry Anti Bacterial Hand Sanitizer; RUE 21 Love Cherry Blossom Anti Bacterial Hand Sanitizer; RUE 21 Paris Creamsicle Anti Bacterial Hand Sanitizer; RUE 21 Queen Cherry Anti Bacterial Hand Sanitizer; RUE 21 Sugar Cookie Anti Bacterial Hand Sanitizer; RUE 21 Young Strawberry Anti Bacterial Hand Sanitizer; RUE Beaute Cherry Hand Sanitizer; RUE Beaute Grapefruit Hand Sanitizer; RUE Beaute Strawberry Hand Sanitizer; RUE Beaute Vanilla Cupcake Hand Sanitizer; RUE21 Apple Spice Antibacterial Hand Sanitizer; RUE21 Cherry Antibacterial Hand Sanitizer; RUE21 Cherry Blossom Antibacterial Hand Sanitizer; RUE21 Cotton Candy Antibacterial Hand Sanitizer; RUE21 Doughnut Sprinkles Antibacterial Hand Sanitizer; RUE21 Midnight Musk Antibacterial Hand Sanitizer; RUE21 Ocean Breeze Antibacterial Hand Sanitizer; RUE21 Peppermint Twist Antibacterial Hand Sanitizer; RUE21 Posh Antibacterial Hand Sanitizer; RUE21 Runway 21 Antibacterial Hand Sanitizer; RUE21 Strawberry Antibacterial Hand Sanitizer; RUE21 Sugar Cookie Antibacterial Hand Sanitizer; RUE21 Vanilla Spice Antibacterial Hand Sanitizer; Rainbow Berry Hand Sanitizer; Raining Rose Antiseptic Hand Sanitizer; Raspberry Guava Antibacterial; Raspberry Hand Sanitizer; Raspberry Vanilla Scented Waterless Hand Sanitizer; Raw Sugar Hand Sanitizer- Coconut and Lemon Verbena; Raw Sugar Hand Sanitizer- Peppermint and Sea Salt.; Raymond Waites Gerber Daisy Waterless Anti-bacterial Hand Sanitizer; Raymond Waites Honeysuckle Rose Waterless Anti-bacterial Hand Sanitizer; Ready America First Aid Outdoor- 107 Pieces; Rebel Green Hand Sanitizer Peppermint and Lemon; Recens; Recens A; Recens Foam; Recens Foam Plus; Recens Hand Sanitizer Wipes; Recens Ultra; Red Hot Cinnamon; Red Hot Cinnamon Hand Sanitizer; Redeem; RediCleanse Instant Hand Sanitizer; Redicare Antiseptic Wipes; Refill 6; Refresh Foaming Instant Hand Sanitizer; Refresher; Regimen; Regular Anti Bacterial Hand Sanitizer; Renewal Hand Sanitizing Wipes; Rexall Hand Sanitizer; Rite Aid Decolorized Iodine; Rite Aid Instant Hand Sanitizer; Rite Aid Instant Hand Sanitizer With Moisturizers; Rite Aid Renewal Moisturizers and Vitamin E; Rite Aid Renewal With Moisturizers; Ritz Spritz Mulled Cranberry; Rose Rush Hand Sanitizer; Royal 70-percent Alcohol Foam Hand Sanitizer; Royal Hand Sanitizer; Rubbing; Rubbing Alcohol Compound Liq 70%; Rubbing Alcohol Compound/poison; Rue 21 Asian Spice Anti-Bacterial Hand Sanitizer; Rue21 Coco Breeze Anti-Bacterial Hand Sanitizer; Rue21 Island Fruits Anti-Bacterial Hand Sanitizer; Rue21 Ocean Anti-Bacterial Hand Sanitizer; Rx 100 Citrus Sanitizer; SJ Antibacterial Hand Gel; SPF30 Sunscreen and Antibacterial Hand Sanitizer; STAPLES Hand Sanitizer; STAPLES Hand Sanitizer Aloe; SUKANG Alcohol Prep Pads Medium; SURGICEPT Waterless, Surgical Handscrub and Healthcare Personnel Handwash; Safe Hands Hand Sanitizer with Alcohol; Safeguard Hand Sanitizer; Safesha Lavender; Safesha Sweet Orange; Safesha Unfragranced; Safeway; Safeway Care Aloe; Safeway Care Hand Sanitizer; Safeway Instant Hand Sanitizing wipes; San-E-foam; San-X E3; Sanell Hand Sanitizer; Sani; Sani Claw Wipes; Sani Med Citrus Gel Hand Sanitizer; Sani Mousse; Sani Professional Brand Sani-Hands; Sani Professional Brand Sani-Hands Instant Hand Sanitizing Wipes; Sani Professional Brand Sani-Hands for Kids Instant Hand Sanitizing Wipes; Sani Professional Brand Sani-Hands with Tencel Instant Hand Sanitizing Wipes; Sani Professional Brand Sani-HandsInstant Hand Sani Instant Hand Sanitizing Wipes; Sani Soft; Sani Spritz; Sani Wipes; Sani-Care; Sani-Gel; Sani-Hands II Instant Hand Sanitizing Wipes; Sani-Hands Instant Hand Sanitizing Wipes; Sani-Hands for Kids; Sani-Kleen Instant Hand Sanitizer; Sani-Professional Sani-Hands made with Tencel; Sani-Silk; Sani-Smooth; Sani-Soft; Sani-Spritz; Sani-dex Antimicrobial Hand Wipes; Sani-kleen Hand Sanitizer; SaniFoam; SaniGuard-SF; SaniKlean E3 Hand Sanitizer; SaniLuxe Hand Sanitizer with Alcohol; SaniSmart 3; SaniSuds Foam Instant Hand Sanitizer; SaniTyze; SaniTyze Hand Sanitizer; Sanifoam Hand Sanitizer; Sanigizer Plus; Sanitaxe; Sanitaxe 27 Oz Instant Hand Sanitizer With Aloe Vera; Sanitaxe Instant Hand Sanitizer With Aloe Vera 27 Fl Oz; Sanitex MVP Instant Hand Sanitizer; Sanitizer; Sanitizer Hand Sanitizer; Sanitizing Alcohol Rub; Sanitizing Wipes; SannyTize Hand Sanitizer; SannyTize Hand Sanitizer Wipe; Sans-acne Solution; Santi-Gel Instant Hand Sanitizer; Sarasota Memorial Amenity; Sassy Strawberry; Satsuma Antibacterial Hand Sanitizer; Scaredy Cat Antibacterial Hand; Scott Moisturizing Foam Hand Sanitizer; Scott Moisturizing Foam Hand Sanitizer (Ultra); Scott Moisturizing Instant Hand Sanitizer; Sea Marine Antibacterial; Sedanos Instant Hand Sanitizer With Moistruizing Formula; Select Antiseptic Hand Gel With Aloe; SensBlok Desensitizer; Sephora By Opi Moisturizing Hand Sanitizer; SeptoSan Hand Sanitizer; Servo Stat-Foam; Servo-Stat; Servo-Stat Balm; Shopkins 3D Hand Sanitizer 6 pack; Shopkins 3D Hand Sanitizer DLish Donut; Shopkins 3D Hand Sanitizer Lippy Lips; Shopkins hand sanitizer; Shopko Antibacterial Hand Sanitizer; Shopko Beauty Hand Sanitizer with Vitamin E; Sierra Soft Alcohol Foam Sanitizer; Sierra Soft Alcohol Hand Sanitizer; Signature Alcohol Foaming Hand Sanitizer; Silken Hand Sanitizer; Simple Hygiene Hand Sanitizer; Simply Clean Instant Hand Sanitizer; Skin Protectant; Skin Shield Liquid Bandage; Skintegrity; Skintegrity Foaming Hand Sanitizer Fragrance Free; Skintegrity Instant Hand Sanitizer; Smart Care Generic Emoji Hand Sanitizer; Smart San CHG; Smart San ES Hand Sanitizer Spray; Smart San Hand Sanitizer; Smart San Hand Sanitizer Fragrance-free; Smart San Hand Sanitizer Spray; Smart San Hand Sanitizer Spray Fragrenace-Free; Smart San Healthcare Personnel Handwash; Smart Sense Aloe; Smart Sense Hand Sanitizer Cotton Breeze; Smart Sense Hand Sanitizer Lychee Berry; Smart Sense Original; Smart Sense Vitamin E Sanitizer; SmartCare Shopkins; Smileplus Alcohol Pad; Snappy Apple Scented Hand Sanitizer; SnugZ Beaded Hand Sanitizer Gel; SnugZ Hand Sanitizer Gel; SnugZ Hand Sanitizing Spry; Soft Care Foam Instant Hand Sanitizer; Soft Care Fragrance Free Instant Hand Sanitizer; Soft Care Hand Sanitizer; Soft Care Hand Sanitizing Wipes; Soft Care Impact Alcohol Instant Hand Sanitizer; Soft Care Impact Foam Alcohol Foam Instant Hand Sanitizer; Soft Care Impact Mini Instant Hand Sanitizer; Soft Care Instant Hand Sanitizer; Soft N Sure Antiseptic; Soft N Sure Antiseptic Hand; Soft N Sure Foamed Antiseptic Handrub; SoftSan; Softsoap Instant Hand Sanitizer with moisturizers; Soothe-A-sting; Spa Originals Instant Hand Sanitizer; SpaSoap; Sparkled Donut Hand Sanitizer; Sparkling Snow; Spatheraphy; Spatherapy; Spatherapy Cherry Blossom; Spatherapy Cucumber Aloe; Spatherapy Eucalyptus Mint; Spatherapy French Lavender; Spatherapy Grapefruit Nectar; Spatherapy Lavender Jasmine; Spatherapy Lemon Citrus; Spatherapy Lemon Pomegranate; Spatherapy Raspberry Brulee; Spatherapy Vanilla Coconut; Spectrum; Spectrum 62% Hand Sanitizer; Spectrum Hand Sanitizer; Spectrum Hand Sanitizer Wipes; Spooky PUmpkin Antibacterial Hand Sanitizer; Spooky Vanilla Antibacterial Hand; Spooky Vanilla Antibacterial Hand Sanitizer; Spring Grove Unscented Hand Sanitizer; Standard ANSI First Aid; Staples Instant Hand Sanitizer; Stat-Foam; Stat-Rinse; Sterigel Plus; Sterile Alcohol Prep Pad; Sterillium Comfort; Sterillium Foam; Sterillium Med; Sterillium Rub; Sterillium Rub Fragrance Free; Sting Relief; Sting Relief Pad; Sting relief pad; Stoko Gel Free Instant Hand Sanitizer; Stoko Gel Instant Hand Sanitizer; Stoko Refresh 4in1 Instant Hand Sanitizer; Stoko Refresh 4in1 Instant Hand Sanitizer Sp.; Stoko Refresh Foaming Instant Hand Sanitizer; Stoko Sp. Instant Hand Sanitizer; Strawberry Antibacterial Hand Sanitizer; Strawberry Antibacterial Hand Sanitizer with Aloe and Vitamin E; Strawberry Champagne Hand Sanitizer; Strawberry Hand Sanitizer; Strawberry Ice cream Anti-Bacterial Hand Sanitizer; Strawberry Shortcake Berry Best Friends Mixed Berry Antiseptic Hand Cleansing; Strong Iodine Tincture; Sugar Cookie Cheer Hand Sanitizer; Sugar Cookies Scented Antibacterial Hand Sanitizer; Sugar Plum; Sugared Pear Antibacterial Hand Sanitizer; SunDrops 73; SunDrops 75; Sunkissed Honeydew Hand Sanitizer; Sunmark Iodides Tincture; Sunmark Iodine; Sunny Day Scented Hand Sanitizer; Sunny Tropicolada; Sunny Tropicolada HAND SANITIZER; Sunshiny Day Scented Hand Sanitizer; Super Septic; Super Suds Anti-bacterial; Superman Berry Scented Antiseptic Hand Cleansing; Susan Winget Berries and Cream Hand Sanitizer; Sween Clementine Scented Hand Sanitizer; Sweet Berry Hand Sanitizer; Sweet Candy Kiss Sanitizer Pen; Sweet Candy Scented Hand Sanitizer; Sweet Daisy Antibacterial Hand Sanitizer; Sweet Grape Antibacterial Hand; Sweet Lemon Antibacterial Hand Sanitizer; Sweet Love Hand Sanitizer Bodycology; Sweet Pea; Sweet Pea Blossom Hand Sanitizer; Sweet Pea Hand Sanitizer 01; Sweet Pea Scented Antimicrobial Hand Gel; Sweet Pea Scented Hand Sanitizer; Sweet Pea Waterless Anti-Antibateria Hand Sanitizer; Sweet Stardust Hand Sanitizer; Sweet pea anti-bacterial SCENTED HAND SANITIZER; Swirling Lollipop; Swiss Hand Guard Antiseptic Handwash Antibacterial; Swiss Hand Guard antiseptic handwash antibacterial; Symmetry Foaming Hand Sanitizer; Symmetry Foaming Hand Sanitizer-Fragrance Free with Aloe and Vitamin E; Symmetry Foaming Hand Sanitizer-Unscented; Symmetry Hand Sanitizer; Synergy 700 Series Hand Sanitizer; Sysco Reliance; T-chem Antimicrobial Hand; T-stat Lot; T-stat Pad-lot; T. H. Antiseptic Hand Gel 70%; T36 Antiseptic Hand Sanitizer; T36 Antiseptic Hand Sanitizer Spray; T36 The Liquid Antiseptic Hand Sanitizer; T36 The Wipe Antiseptic Hand Sanitizer; TC Enriched Foam Alcohol Hand Sanitizer; TC EnrichedFoam Alcohol Hand Sanitizer; TC Instant Hand Sanitizer; TENSOGEL Antiseptic Hand Sanitizer; TOUGH GUY Instant Hand Sanitizer; TOUGH GUY Instant Hand Sanitizer with Moisturizers and Vitamin E; Take Care Clinic Instant Hand Sanitizer Spray; Tampa General Hospital Instant Hand Degermer; Tazza; TenderSant Hand Sanitizer; Thario Instant Hand Sanitizer; The Amazing SPIDER-MAN Hand Sanitizer Moisturizing With Vitamin E and Aloe; The Fresh Market Hand Sanitizer With Moisturizers Aloe And Vitamin E; The New Parent First Aid; Theophylline Rougier Elixir; Thieves Waterless Hand Sanitizer with Peppermint Oil; Thumbs-Up Lime Hand Sanitizer; Tidy San - Instant Hand Sanitizer; Tincture Green; Tincture Green Soap; Tincture Of Iodine 2.5%; Toasted Vanilla Kit Bodycology; Toasted Vanilla Sugar Hand Sanitizer Bodycology; Toasted Vanilla Sugar Kit Bodycology; Tokyo Hand Sanitizer Vanilla Scent; Top Care Decolorized Iodine; TopCare Advanced Hand Sanitizer Aloe; TopCare Advanced Hand Sanitizer Vitamin E; TopCare Prebiotic Hand Sanitizer; Topcare Aloe; Topcare Apple Pomegranate; Topcare Citrus Escape; Topcare Coconut Cream; Topcare Hand Sanitizer; Topcare Jasmine Tea and Basil; Topcare Vitamin E; Tork Hand Sanitizer Alcohol Foam; Tork Hand Sanitizer Alcohol Gel; Tork Premium Hand Sanitizer Foam; Total Skin Care Alcohol Gel Skin Antiseptic; Touchland Power Mist Moisturizing Hand Sanitizer Aloe Vera Scented; Touchland Power Mist Moisturizing Hand Sanitizer Citrus Scented; Touchland Power Mist Moisturizing Hand Sanitizer Forest Berry Scented; Touchland Power Mist Moisturizing Hand Sanitizer Lavender Scented; Touchland Power Mist Moisturizing Hand Sanitizer Mint Scented; Touchland Power Mist Moisturizing Hand Sanitizer Neutral Scented; Touchland Power Mist Moisturizing Hand Sanitizer Vanilla Cinnamon Scented; Touchland Power Mist Moisturizing Hand Sanitizer Watermelon Scented; Tough Guy Instant Hand Sanitizer; Toy Cleaner; Toys-R-Us Babies-R-Us Hand Sanitizer; Trader Joes Hand Sanitizer Grapefruit Lemon; Trailways hand sanitizer; Trick or Treat Antibacterial Hand; Triseptin; Triseptin Hand and Body Antiseptic; Triseptin Water Aided; Triseptin Waterless; Triseptin Waterless Antiseptic Lotion; Triton HS-777; Trolls Hand Sanitizer; Tropical Berries Scented Hand Sanitizer; Twisted Peppermint; ULTRACEPT Antiseptic Handwash; Ulta Anti-Bacterial Hand Sanitizer; Ulta Freshwater Mist Anti-Bacterial Hand Sanitizer; Ulta Lavender Woods Anti-Bacterial Hand Sanitizer; Ulta Mandarin Mint Anti-Bacterial Hand Sanitizer; Ulta Pomegranate Lime Anti-Bacterial Hand Sanitizer; Ulta Sparkling Lemon Anti-Bacterial Hand Sanitizer; Ulta Vanilla Sugar Anti-Bacterial Hand Sanitizer; Ultra Care-aid Sanitizer Antiseptic Hand Sanitizer Citric Fragrance with Aloe Vera; Under Paris Hand Sanitizer; United Laboratories 464 PUMP and PROTECT Alcohol Hand Sanitizer; Unscented; Unscented Hand Sanitizer; Unscented Refill; Up and up Alcohol prep pad; VIAMED Alcohol Prep Pad; VIRX Instant Hand Sanitizer with moisturizers and Vitamin E; Vanilla; Vanilla Bean Antibacterial Hand; Vanilla Bean Antibacterial Hand Sanitizer; Vanilla Brown Sugar Scented Hand Sanitizer; Vanilla Cream and Apple Blossom Antibacterial Hand Sanitizer; Vanilla Cupcake Antibacterial Hand Sanitizer; Vanilla Fig Hand Sanitizer; Vanilla Hand Sanitizer; Vanilla Hand Sanitizer with Vitamin E and Aloe; Vanilla Hand Sanitizer with vitamin E and aloe; Vanilla Heaven hand sanitizer 01; Vanilla Ice cream Anti-Bacterial Hand Sanitizer; Vanilla Mint Antibacterial Hand Sanitizer; Vanilla Scented Hand Sanitizer; Vanilla Sugar Antibacterial Hand; Vanilla Sugar Antibacterial Hand Sanitizer; Vanilla Sugar Hand Sanitizer; Vanilla cupcake anti-bacterial SCENTED HAND SANITIZER; Vanilla sugar anti-bacterial SCENTED HAND SANITIZER; Very Vanilla; Very Vanilla Antibacterial; Very Vanilla Scented Hand Sanitizer; Vida Mia Decolorized Iodine; Vida Mia Hand Sanitizer; Vida Mia Hand Sanitizer (62%); Vida Mia Hand Sanitizer (70% v/v); Vida Mia Hand Sanitizer Aloe Vera (62%); Vida Mia Hand Sanitizer Aloe Vera (70% v/v); Vindicator Instant Hand Sanitizer; Vindicator Instant Hand Sanitizer Gel; Vinotinto Hand Sanitizer; VioNexus; Vionexus; Vionexus No-rinse Spray; Virx; Virx Hand Sanitizer Liquid; Virx Instant Hand Sanitizer with moisturizers and Vitamin E; Virx Instant Hand Sanitizer with security clip; Visibly Clean Hand Sanitizer; Wake Me Up hand sanitizer 01; Walgreens Instant Hand Sanitizer; Warm Vanilla Hand Sanitizer; Water Mountain Hand Sanitizer; Waterless Aloe Scented Hand Sanitizer; Waterless Anti Bacterial Hand Sanitizer; Waterless Anti-Bacterial Hand Cleanser; Waterless Fragrance Free Hand Sanitizer; Waterless Hand Sanitizer; Waterless Hand Sanitizer Citrus Scent; Waterless Lavender Scented Hand Sanitizer; Watermelon Anti Bacterial Hand Sanitizer; Wegmans Hand Sanitizer Lychee Berry; Wegmans Hand Sanitizer Thai Bamboo; Well at Walgreens Advanced Hand Sanitizer with Vitamin E; Welly Human Repair Kit; Welly Quick Fix Kit; Welly Superhero Supplies Kit; WhiskCare 371; WhiskCare 373; WhiskCare 375; WhiskCare 375 Fragrance Free; White Hand Sanitizer; White Spruce Hand Sanitizer; Wild Passion Flower Anti-bacterial Hand Sanitizer; Wild Strawberry Anti-Bacterial Hand Sanitizer; Wilde Orchid; Winning Hands Alcohol Foaming; Winning Hands Hand Sanitizer; Winter Apple; Winter Vanilla Hand Sanitizer Bodycology; Winter Vanilla Hand Sanitizer None; Witchs Brew Antibacterial Hand; Workforce Essentials Hand Sanitizer; Wyandotte Sanifect E3; XOXO Kit Bodycology; XOXO Kit bodycology; XtraCare Cucumber Melon; XtraCare Hand Sanitizer Moisturize with Vitamin E; XtraCare Hand Sanitizer Moisurize with Vitamin E and Aloe; XtraCare Instand Hand Sanitizer; XtraCare Instant Hand Sanitizer; XtraCare Lavender Chamomile; XtraCare Sweet Pea Blossom; XtraCare Warm Vanilla; XtraCare instant Hand Sanitizer; XtraCare instant Hand Sanitizer Aloe Vera; XtraCare instant Hand Sanitizer Cocoa Butter; XtraCare instant Hand Sanitizer Original; ZYTEC Germ Buster Hand Sanitizer; Zep Alcohol Hand Sanitizer; Zep Alcohol Sanitizer; Zep Commercial Foaming Alcohol Hand Sanitizer; Zep Hand Sanitizer Wipes; Zep Handstand Instant Hand Sanitizer; Zep Instant Hand Sanitizer; Zep Professional Alcohol Hand Sanitizing; Zesty Lemon; Zoe and Zac Naturals Hand Sanitizer Apples and Pears; Zoono Ultra Hand Sanitizer; Zylast Antiseptic; Zylast Antiseptic S; Zylast Antiseptic Surgical Scrub; Zytec Germ Buster Hand Sanitizer; anti-bacterial Hand Cleanser; aurafresh instant hand sanitizer with moisturizeers vitamin E and aloe; b4 Antiseptic Hand Sanitizer with ethyl alcohol; body luxuries Strawberry Shortcake Antibacterial Hand Sanitizer; body luxuries Vanilla Frosting Antibacterial Hand Sanitizer; chempace SANI-GEL INSTANT SKIN SANITIZER; claires BEyouTIFUL hand sanitizer; enMotion E3 Rated Gel Hand Sanitizer With Moisturizers Fragrance Free, Dye Free; enMotion Foam Hand Sanitizer w-Moisturizers, Fragrance Free; enMotion Foam High Frequency Use; enMotion Foam with Moisturizers fragrance free; enMotion Hand Sanitizer with Moisturizers, Fragrance Free, Dye Free; enMotion High Frequency Foam Hand Sanitizer; enMotion High Frequency Use Foam Hand Sanitizer; everyone Hand Sanitizer Coconut Lemon; everyone Hand Sanitizer Peppermint Citrus; everyone hand SANITIZER Coconut Lemon; ezFoam Foaming Alcohol Hand Sanitizer; germstarCitrus; germstarLuxe; germstarNORO; germstarNORO unscented; hand san INSTANT HAND SANITIZER; infectiguard Fast Acting Antiseptic Hand Sanitizer; infectiguard Fast Acting Antiseptic Hand Sanitizer with Moisturizer; kindred goods HAND SANITIZER FRESIA PETALS RAIN; kindred goods HAND SANITIZER ISLAND ORCHARD COCONUT; kindred goods HAND SANITIZER ORANGE BLOSSOM TEA; kindred goods HAND SANITIZER SEA SALT FIG; max2originale PROTECTIVE COATING SEALANT; natural extensions Fragrance- Free Instant Hand Sanitizer; pacific garden Foam Hand Sanitizer; puresan Hand Santizing Gel; simple pleasures ANTIBACTERIAL HAND SANITIZER; simplepleasures SCENTED ANTI BACTERIAL HAND SANITIZER; skin protectant Aloe Vera; skin protectant Lavender; skin protectant Original; skin protectant Sweet Pea; symmetry Foaming Hand Sanitizer Fragrance Free with Aloe and Vitamin E; symmetry Foaming Hand Sanitizer with Aloe and Vitamin E; symmetry Hand Sanitizer with Aloe and Vitamin E; whole health Hand Sanitizers 3-pack

> <INTERNATIONAL_BRANDS>
Dehydrated ethanol

$$$$
