REMARK  Name = 5749
REMARK  10 active torsions:
REMARK  status: ('A' for Active; 'I' for Inactive)
REMARK    1  A    between atoms: C_1  and  C_2
REMARK    2  A    between atoms: C_1  and  C_8
REMARK    3  A    between atoms: C_1  and  O_14
REMARK    4  A    between atoms: C_1  and  C_17
REMARK    5  A    between atoms: C_17  and  O_18
REMARK    6  A    between atoms: O_18  and  C_19
REMARK    7  A    between atoms: C_19  and  C_20
REMARK    8  A    between atoms: C_20  and  N_21
REMARK    9  A    between atoms: N_21  and  C_23
REMARK   10  A    between atoms: N_21  and  C_25
REMARK                            x       y       z     vdW  Elec       q    Type
REMARK                         _______ _______ _______ _____ _____    ______ ____
ROOT
ATOM      1  C   UNL     1       1.581   0.130   0.722  0.00  0.00    +0.196 C 
ENDROOT
BRANCH   1   2
ATOM      2  C   UNL     1       1.658   1.311  -0.243  0.00  0.00    +0.039 C 
ATOM      3  C   UNL     1       0.963   2.543   0.351  0.00  0.00    +0.003 C 
ATOM      4  C   UNL     1       3.117   1.626  -0.600  0.00  0.00    +0.003 C 
ATOM      5  C   UNL     1       1.072   3.753  -0.573  0.00  0.00    +0.000 C 
ATOM      6  C   UNL     1       3.223   2.838  -1.522  0.00  0.00    +0.000 C 
ATOM      7  C   UNL     1       2.523   4.058  -0.932  0.00  0.00    +0.000 C 
ENDBRANCH   1   2
BRANCH   1   8
ATOM      8  C   UNL     1       2.201  -1.181   0.244  0.00  0.00    +0.012 C 
ATOM      9  C   UNL     1       2.127  -1.537  -1.102  0.00  0.00    -0.002 C 
ATOM     10  C   UNL     1       2.840  -2.022   1.154  0.00  0.00    -0.002 C 
ATOM     11  C   UNL     1       2.693  -2.735  -1.539  0.00  0.00    -0.000 C 
ATOM     12  C   UNL     1       3.406  -3.220   0.718  0.00  0.00    -0.000 C 
ATOM     13  C   UNL     1       3.333  -3.576  -0.629  0.00  0.00    -0.000 C 
ENDBRANCH   1   8
BRANCH   1  14
ATOM     14  O   UNL     1       2.298   0.515   1.902  0.00  0.00    -0.373 OA
ATOM     15  H   UNL     1       3.232   0.658   1.681  0.00  0.00    +0.211 HD
ENDBRANCH   1  14
BRANCH   1  17
ATOM     16  O   UNL     1      -0.314   0.140   2.260  0.00  0.00    -0.247 OA
ATOM     17  C   UNL     1       0.123  -0.080   1.137  0.00  0.00    +0.345 C 
BRANCH  17  18
ATOM     18  O   UNL     1      -0.606  -0.551   0.081  0.00  0.00    -0.449 OA
BRANCH  18  19
ATOM     19  C   UNL     1      -1.990  -0.797   0.347  0.00  0.00    +0.187 C 
BRANCH  19  20
ATOM     20  C   UNL     1      -2.842   0.062  -0.566  0.00  0.00    -0.025 C 
BRANCH  20  21
ATOM     21  N   UNL     1      -4.276  -0.170  -0.260  0.00  0.00    +0.391 N 
ATOM     22  C   UNL     1      -5.171   0.708  -1.145  0.00  0.00    -0.096 C 
BRANCH  21  23
ATOM     23  C   UNL     1      -4.655  -1.637  -0.504  0.00  0.00    -0.073 C 
ATOM     24  C   UNL     1      -4.437  -1.971  -1.963  0.00  0.00    -0.024 C 
ENDBRANCH  21  23
BRANCH  21  25
ATOM     25  C   UNL     1      -4.580   0.165   1.207  0.00  0.00    -0.073 C 
ATOM     26  C   UNL     1      -4.289   1.629   1.455  0.00  0.00    -0.024 C 
ENDBRANCH  21  25
ENDBRANCH  20  21
ENDBRANCH  19  20
ENDBRANCH  18  19
ENDBRANCH  17  18
ENDBRANCH   1  17
TORSDOF 10
