REMARK  Name = 4781
REMARK  5 active torsions:
REMARK  status: ('A' for Active; 'I' for Inactive)
REMARK    1  A    between atoms: N_3  and  C_8
REMARK    2  A    between atoms: N_4  and  C_14
REMARK    3  A    between atoms: C_5  and  C_20
REMARK    4  A    between atoms: C_20  and  C_21
REMARK    5  A    between atoms: C_21  and  C_22
REMARK                            x       y       z     vdW  Elec       q    Type
REMARK                         _______ _______ _______ _____ _____    ______ ____
ROOT
ATOM      1  O   UNL     1       0.459  -3.095   0.172  0.00  0.00    -0.272 OA
ATOM      2  O   UNL     1       2.082   0.881   2.125  0.00  0.00    -0.272 OA
ATOM      3  N   UNL     1      -0.356  -0.861   0.292  0.00  0.00    -0.179 N 
ATOM      4  N   UNL     1       0.186   0.351   0.785  0.00  0.00    -0.179 N 
ATOM      5  C   UNL     1       1.651  -1.367   1.360  0.00  0.00    +0.157 C 
ATOM      6  C   UNL     1       0.541  -1.920   0.497  0.00  0.00    +0.254 C 
ATOM      7  C   UNL     1       1.351   0.104   1.527  0.00  0.00    +0.254 C 
ENDROOT
BRANCH   3   8
ATOM      8  C   UNL     1      -1.742  -1.071   0.023  0.00  0.00    +0.073 C 
ATOM      9  C   UNL     1      -2.159  -2.224  -0.645  0.00  0.00    +0.017 C 
ATOM     10  C   UNL     1      -2.686  -0.125   0.428  0.00  0.00    +0.017 C 
ATOM     11  C   UNL     1      -3.514  -2.430  -0.908  0.00  0.00    +0.001 C 
ATOM     12  C   UNL     1      -4.041  -0.331   0.165  0.00  0.00    +0.001 C 
ATOM     13  C   UNL     1      -4.454  -1.483  -0.503  0.00  0.00    +0.000 C 
ENDBRANCH   3   8
BRANCH   4  14
ATOM     14  C   UNL     1      -0.122   1.642   0.257  0.00  0.00    +0.073 C 
ATOM     15  C   UNL     1       0.317   2.792   0.917  0.00  0.00    +0.017 C 
ATOM     16  C   UNL     1      -0.863   1.759  -0.921  0.00  0.00    +0.017 C 
ATOM     17  C   UNL     1       0.017   4.053   0.401  0.00  0.00    +0.001 C 
ATOM     18  C   UNL     1      -1.163   3.020  -1.437  0.00  0.00    +0.001 C 
ATOM     19  C   UNL     1      -0.723   4.167  -0.776  0.00  0.00    +0.000 C 
ENDBRANCH   4  14
BRANCH   5  20
ATOM     20  C   UNL     1       3.007  -1.589   0.715  0.00  0.00    +0.018 C 
BRANCH  20  21
ATOM     21  C   UNL     1       3.111  -0.872  -0.631  0.00  0.00    +0.001 C 
BRANCH  21  22
ATOM     22  C   UNL     1       4.490  -1.070  -1.261  0.00  0.00    +0.000 C 
ATOM     23  C   UNL     1       4.609  -0.331  -2.584  0.00  0.00    +0.000 C 
ENDBRANCH  21  22
ENDBRANCH  20  21
ENDBRANCH   5  20
TORSDOF 5
