REMARK  Name = 5284371
REMARK  2 active torsions:
REMARK  status: ('A' for Active; 'I' for Inactive)
REMARK    1  A    between atoms: C_12  and  O_21
REMARK    2  A    between atoms: C_18  and  O_23
REMARK                            x       y       z     vdW  Elec       q    Type
REMARK                         _______ _______ _______ _____ _____    ______ ____
ROOT
ATOM      1  O   UNL     1      -1.593  -1.037   1.189  0.00  0.00    -0.473 OA
ATOM      2  N   UNL     1       3.299   0.713   0.461  0.00  0.00    +0.387 N 
ATOM      3  C   UNL     1       0.758  -0.677   0.665  0.00  0.00    +0.061 C 
ATOM      4  C   UNL     1       1.807  -1.022  -0.403  0.00  0.00    +0.010 C 
ATOM      5  C   UNL     1       2.550   0.309  -0.753  0.00  0.00    -0.049 C 
ATOM      6  C   UNL     1      -0.317  -1.740   0.988  0.00  0.00    +0.200 C 
ATOM      7  C   UNL     1       1.469  -0.145   1.926  0.00  0.00    -0.015 C 
ATOM      8  C   UNL     1      -0.153   0.367   0.111  0.00  0.00    +0.014 C 
ATOM      9  C   UNL     1       1.590   1.405  -1.332  0.00  0.00    +0.006 C 
ATOM     10  C   UNL     1       2.445   1.002   1.618  0.00  0.00    -0.077 C 
ATOM     11  C   UNL     1       0.197   1.382  -0.762  0.00  0.00    -0.025 C 
ATOM     12  C   UNL     1      -0.460  -2.853  -0.084  0.00  0.00    +0.172 C 
ATOM     13  C   UNL     1       1.187  -1.725  -1.583  0.00  0.00    -0.030 C 
ATOM     14  C   UNL     1      -1.454   0.135   0.495  0.00  0.00    +0.168 C 
ATOM     15  C   UNL     1       0.137  -2.546  -1.431  0.00  0.00    +0.002 C 
ATOM     16  C   UNL     1       4.255   1.789   0.222  0.00  0.00    -0.101 C 
ATOM     17  C   UNL     1      -0.813   2.263  -1.152  0.00  0.00    -0.001 C 
ATOM     18  C   UNL     1      -2.466   0.995   0.131  0.00  0.00    +0.172 C 
ATOM     19  C   UNL     1      -2.132   2.080  -0.690  0.00  0.00    +0.040 C 
ATOM     20  H   UNL     1       3.840  -0.117   0.704  0.00  0.00    -0.080 HD
ENDROOT
BRANCH  12  21
ATOM     21  O   UNL     1      -1.830  -3.222  -0.221  0.00  0.00    -0.377 OA
ATOM     22  H   UNL     1      -2.201  -3.417   0.654  0.00  0.00    +0.211 HD
ENDBRANCH  12  21
BRANCH  18  23
ATOM     23  O   UNL     1      -3.749   0.788   0.518  0.00  0.00    -0.468 OA
ATOM     24  C   UNL     1      -4.725   1.739   0.087  0.00  0.00    +0.253 C 
ENDBRANCH  18  23
TORSDOF 2
