REMARK  Name = 9651
REMARK  2 active torsions:
REMARK  status: ('A' for Active; 'I' for Inactive)
REMARK    1  A    between atoms: C_12  and  O_20
REMARK    2  A    between atoms: C_15  and  O_22
REMARK                            x       y       z     vdW  Elec       q    Type
REMARK                         _______ _______ _______ _____ _____    ______ ____
ROOT
ATOM      1  O   UNL     1      -1.673   0.032   0.900  0.00  0.00    -0.476 OA
ATOM      2  N   UNL     1       3.483  -0.239  -0.134  0.00  0.00    +0.388 N 
ATOM      3  C   UNL     1       0.368  -1.109   0.185  0.00  0.00    +0.075 C 
ATOM      4  C   UNL     1      -0.840  -1.124   1.176  0.00  0.00    +0.176 C 
ATOM      5  C   UNL     1       0.418   0.372  -0.031  0.00  0.00    +0.015 C 
ATOM      6  C   UNL     1       1.621  -1.681   0.879  0.00  0.00    -0.011 C 
ATOM      7  C   UNL     1      -1.681  -2.401   1.101  0.00  0.00    +0.078 C 
ATOM      8  C   UNL     1       0.060  -1.833  -1.112  0.00  0.00    -0.021 C 
ATOM      9  C   UNL     1      -0.786   0.939   0.376  0.00  0.00    +0.168 C 
ATOM     10  C   UNL     1       2.944  -1.577   0.104  0.00  0.00    -0.076 C 
ATOM     11  C   UNL     1       1.422   1.158  -0.584  0.00  0.00    -0.044 C 
ATOM     12  C   UNL     1      -2.138  -2.729  -0.323  0.00  0.00    +0.136 C 
ATOM     13  C   UNL     1       2.720   0.577  -1.080  0.00  0.00    -0.050 C 
ATOM     14  C   UNL     1      -1.060  -2.534  -1.340  0.00  0.00    -0.002 C 
ATOM     15  C   UNL     1      -1.055   2.286   0.238  0.00  0.00    +0.172 C 
ATOM     16  C   UNL     1       1.163   2.533  -0.721  0.00  0.00    -0.003 C 
ATOM     17  C   UNL     1      -0.061   3.090  -0.315  0.00  0.00    +0.040 C 
ATOM     18  C   UNL     1       3.869   0.471   1.079  0.00  0.00    -0.100 C 
ATOM     19  H   UNL     1       4.360  -0.421  -0.622  0.00  0.00    -0.079 HD
ENDROOT
BRANCH  12  20
ATOM     20  O   UNL     1      -3.243  -1.910  -0.694  0.00  0.00    -0.380 OA
ATOM     21  H   UNL     1      -3.958  -2.020  -0.047  0.00  0.00    +0.211 HD
ENDBRANCH  12  20
BRANCH  15  22
ATOM     22  O   UNL     1      -2.239   2.818   0.631  0.00  0.00    -0.468 OA
ATOM     23  C   UNL     1      -3.291   2.861  -0.335  0.00  0.00    +0.253 C 
ENDBRANCH  15  22
TORSDOF 2
