REMARK  Name = 4440
REMARK  5 active torsions:
REMARK  status: ('A' for Active; 'I' for Inactive)
REMARK    1  A    between atoms: C_2  and  C_12
REMARK    2  A    between atoms: C_7  and  C_19
REMARK    3  A    between atoms: C_19  and  C_20
REMARK    4  A    between atoms: C_20  and  S_21
REMARK    5  A    between atoms: S_21  and  N_24
REMARK                            x       y       z     vdW  Elec       q    Type
REMARK                         _______ _______ _______ _____ _____    ______ ____
ROOT
ATOM      1  N   UNL     1      -1.678  -3.227   0.681  0.00  0.00    -0.312 N 
ATOM      2  C   UNL     1      -2.051  -1.103   0.178  0.00  0.00    -0.007 C 
ATOM      3  C   UNL     1      -0.669  -1.364  -0.016  0.00  0.00    +0.010 C 
ATOM      4  C   UNL     1      -2.647  -2.263   0.606  0.00  0.00    +0.058 C 
ATOM      5  C   UNL     1      -0.460  -2.706   0.307  0.00  0.00    +0.048 C 
ATOM      6  C   UNL     1       0.430  -0.588  -0.436  0.00  0.00    -0.003 C 
ATOM      7  C   UNL     1       1.694  -1.183  -0.517  0.00  0.00    -0.020 C 
ATOM      8  C   UNL     1       0.798  -3.314   0.231  0.00  0.00    +0.014 C 
ATOM      9  C   UNL     1       1.873  -2.525  -0.188  0.00  0.00    -0.003 C 
ATOM     10  H   UNL     1      -1.830  -4.159   0.962  0.00  0.00    +0.152 HD
ENDROOT
BRANCH   2  12
ATOM     11  N   UNL     1      -5.121   1.950  -0.060  0.00  0.00    +0.386 N 
ATOM     12  C   UNL     1      -2.755   0.216  -0.045  0.00  0.00    +0.019 C 
ATOM     13  C   UNL     1      -3.369   0.786   1.244  0.00  0.00    -0.018 C 
ATOM     14  C   UNL     1      -3.827   0.140  -1.144  0.00  0.00    -0.018 C 
ATOM     15  C   UNL     1      -4.093   2.109   0.976  0.00  0.00    -0.077 C 
ATOM     16  C   UNL     1      -4.534   1.486  -1.325  0.00  0.00    -0.077 C 
ATOM     17  C   UNL     1      -5.841   3.207  -0.263  0.00  0.00    -0.101 C 
ATOM     18  H   UNL     1      -5.782   1.242   0.258  0.00  0.00    -0.080 HD
ENDBRANCH   2  12
BRANCH   7  19
ATOM     19  C   UNL     1       2.863  -0.367  -0.961  0.00  0.00    +0.053 C 
BRANCH  19  20
ATOM     20  C   UNL     1       3.605   0.333   0.180  0.00  0.00    +0.173 C 
BRANCH  20  21
ATOM     21  S   UNL     1       5.009   1.244  -0.383  0.00  0.00    +0.041 S 
ATOM     22  O   UNL     1       5.978   0.305  -0.924  0.00  0.00    -0.157 OA
ATOM     23  O   UNL     1       4.526   2.348  -1.196  0.00  0.00    -0.157 OA
BRANCH  21  24
ATOM     24  N   UNL     1       5.595   1.883   1.091  0.00  0.00    -0.182 NA
ATOM     25  C   UNL     1       4.673   2.634   1.961  0.00  0.00    +0.110 C 
ATOM     26  H   UNL     1       6.365   2.510   0.859  0.00  0.00    +0.148 HD
ENDBRANCH  21  24
ENDBRANCH  20  21
ENDBRANCH  19  20
ENDBRANCH   7  19
TORSDOF 5
