REMARK  Name = 3308
REMARK  5 active torsions:
REMARK  status: ('A' for Active; 'I' for Inactive)
REMARK    1  A    between atoms: C_3  and  C_15
REMARK    2  A    between atoms: C_3  and  C_19
REMARK    3  A    between atoms: C_10  and  C_17
REMARK    4  A    between atoms: C_19  and  C_21
REMARK    5  A    between atoms: C_21  and  O_22
REMARK                            x       y       z     vdW  Elec       q    Type
REMARK                         _______ _______ _______ _____ _____    ______ ____
ROOT
ATOM      1  O   UNL     1      -2.401   1.179  -0.629  0.00  0.00    -0.352 OA
ATOM      2  N   UNL     1       0.638  -0.817   0.090  0.00  0.00    -0.355 N 
ATOM      3  C   UNL     1      -1.786  -0.080  -0.243  0.00  0.00    +0.136 C 
ATOM      4  C   UNL     1      -0.313   0.149  -0.087  0.00  0.00    +0.055 A 
ATOM      5  C   UNL     1       0.314   1.376  -0.066  0.00  0.00    -0.005 A 
ATOM      6  C   UNL     1      -0.468   2.627  -0.232  0.00  0.00    +0.060 C 
ATOM      7  C   UNL     1       1.704   1.153   0.117  0.00  0.00    +0.013 A 
ATOM      8  C   UNL     1      -1.944   2.342   0.082  0.00  0.00    +0.147 C 
ATOM      9  C   UNL     1       1.881  -0.232   0.212  0.00  0.00    +0.052 A 
ATOM     10  C   UNL     1       3.138  -0.819   0.398  0.00  0.00    -0.007 C 
ATOM     11  C   UNL     1       2.835   1.989   0.211  0.00  0.00    +0.001 C 
ATOM     12  C   UNL     1       4.244   0.030   0.488  0.00  0.00    -0.003 C 
ATOM     13  C   UNL     1       4.097   1.413   0.397  0.00  0.00    -0.000 C 
ATOM     14  H   UNL     1       0.463  -1.785   0.125  0.00  0.00    +0.166 HD
ENDROOT
BRANCH   3  15
ATOM     15  C   UNL     1      -2.081  -1.056  -1.385  0.00  0.00    +0.033 C 
ATOM     16  C   UNL     1      -1.529  -0.546  -2.700  0.00  0.00    +0.003 C 
ENDBRANCH   3  15
BRANCH  10  17
ATOM     17  C   UNL     1       3.332  -2.295   0.501  0.00  0.00    +0.028 C 
ATOM     18  C   UNL     1       3.580  -2.944  -0.858  0.00  0.00    +0.005 C 
ENDBRANCH  10  17
BRANCH   3  19
ATOM     19  C   UNL     1      -2.419  -0.585   1.056  0.00  0.00    +0.142 C 
BRANCH  19  21
ATOM     20  O   UNL     1      -4.732   0.032   0.596  0.00  0.00    -0.250 OA
ATOM     21  C   UNL     1      -3.897  -0.807   0.900  0.00  0.00    +0.317 C 
BRANCH  21  22
ATOM     22  O   UNL     1      -4.192  -2.108   1.151  0.00  0.00    -0.480 OA
ATOM     23  H   UNL     1      -3.509  -2.707   1.380  0.00  0.00    +0.295 HD
ENDBRANCH  21  22
ENDBRANCH  19  21
ENDBRANCH   3  19
TORSDOF 5
