REMARK  Name = 5359272
REMARK  1 active torsions:
REMARK  status: ('A' for Active; 'I' for Inactive)
REMARK    1  A    between atoms: C_17  and  O_20
REMARK                            x       y       z     vdW  Elec       q    Type
REMARK                         _______ _______ _______ _____ _____    ______ ____
ROOT
ATOM      1  N   UNL     1      -2.258   1.787  -0.222  0.00  0.00    +0.387 N 
ATOM      2  C   UNL     1      -0.566  -0.613  -0.707  0.00  0.00    +0.015 C 
ATOM      3  C   UNL     1      -1.657  -0.576   0.397  0.00  0.00    -0.015 C 
ATOM      4  C   UNL     1      -1.827   0.879   0.870  0.00  0.00    -0.053 C 
ATOM      5  C   UNL     1      -1.063   0.285  -1.873  0.00  0.00    -0.019 C 
ATOM      6  C   UNL     1      -0.452  -2.080  -1.206  0.00  0.00    +0.004 C 
ATOM      7  C   UNL     1      -1.377  -1.565   1.546  0.00  0.00    -0.002 C 
ATOM      8  C   UNL     1       0.758  -0.020  -0.189  0.00  0.00    -0.024 C 
ATOM      9  C   UNL     1      -0.526   1.393   1.520  0.00  0.00    +0.005 C 
ATOM     10  C   UNL     1      -1.412   1.712  -1.422  0.00  0.00    -0.077 C 
ATOM     11  C   UNL     1      -0.165  -3.074  -0.079  0.00  0.00    +0.000 C 
ATOM     12  C   UNL     1      -1.217  -2.990   1.021  0.00  0.00    -0.000 C 
ATOM     13  C   UNL     1       0.752   0.936   0.853  0.00  0.00    -0.028 C 
ATOM     14  C   UNL     1       1.992  -0.352  -0.776  0.00  0.00    +0.032 C 
ATOM     15  C   UNL     1      -3.672   1.613  -0.558  0.00  0.00    -0.101 C 
ATOM     16  C   UNL     1       1.963   1.484   1.310  0.00  0.00    -0.002 C 
ATOM     17  C   UNL     1       3.187   0.205  -0.316  0.00  0.00    +0.133 C 
ATOM     18  C   UNL     1       3.174   1.118   0.731  0.00  0.00    +0.036 C 
ATOM     19  H   UNL     1      -2.137   2.728   0.151  0.00  0.00    -0.080 HD
ENDROOT
BRANCH  17  20
ATOM     20  O   UNL     1       4.367  -0.143  -0.899  0.00  0.00    -0.506 OA
ATOM     21  H   UNL     1       4.377  -0.759  -1.605  0.00  0.00    +0.292 HD
ENDBRANCH  17  20
TORSDOF 1
