3767
  -OEChem-10051719263D

 17 17  0     0  0  0  0  0  0999 V2000
    1.8074   -1.4510    0.4097 O   0  0  0  0  0  0  0  0  0  0  0  0
    2.1524    0.7510   -0.2342 N   0  0  0  0  0  0  0  0  0  0  0  0
   -2.8588    0.2716   -0.0594 N   0  0  0  0  0  0  0  0  0  0  0  0
    3.5276    0.6185   -0.2224 N   0  0  0  0  0  0  0  0  0  0  0  0
   -0.0944   -0.1299    0.0425 C   0  0  0  0  0  0  0  0  0  0  0  0
   -0.9469   -1.2013   -0.2006 C   0  0  0  0  0  0  0  0  0  0  0  0
   -0.6225    1.1419    0.2345 C   0  0  0  0  0  0  0  0  0  0  0  0
    1.3432   -0.3392    0.0968 C   0  0  0  0  0  0  0  0  0  0  0  0
   -2.3089   -0.9500   -0.2412 C   0  0  0  0  0  0  0  0  0  0  0  0
   -1.9990    1.2884    0.1743 C   0  0  0  0  0  0  0  0  0  0  0  0
   -0.5765   -2.2084   -0.3596 H   0  0  0  0  0  0  0  0  0  0  0  0
   -0.0141    2.0119    0.4540 H   0  0  0  0  0  0  0  0  0  0  0  0
   -3.0163   -1.7512   -0.4283 H   0  0  0  0  0  0  0  0  0  0  0  0
   -2.4617    2.2585    0.3239 H   0  0  0  0  0  0  0  0  0  0  0  0
    1.7814    1.6434   -0.5430 H   0  0  0  0  0  0  0  0  0  0  0  0
    3.8546    0.8490   -1.1598 H   0  0  0  0  0  0  0  0  0  0  0  0
    3.8890    1.3490    0.3893 H   0  0  0  0  0  0  0  0  0  0  0  0
  1  8  2  0  0  0  0
  2  4  1  0  0  0  0
  2  8  1  0  0  0  0
  2 15  1  0  0  0  0
  3  9  2  0  0  0  0
  3 10  1  0  0  0  0
  4 16  1  0  0  0  0
  4 17  1  0  0  0  0
  5  6  2  0  0  0  0
  5  7  1  0  0  0  0
  5  8  1  0  0  0  0
  6  9  1  0  0  0  0
  6 11  1  0  0  0  0
  7 10  2  0  0  0  0
  7 12  1  0  0  0  0
  9 13  1  0  0  0  0
 10 14  1  0  0  0  0
M  END
> <DATABASE_ID>
DB00951

> <DATABASE_NAME>
drugbank

> <ORIGINAL_SOURCE>
PUBCHEM

> <ORIGINAL_SOURCE_URL>
https://pubchem.ncbi.nlm.nih.gov/rest/pug/compound/inchikey/QRXWMOHMRWLFEY-UHFFFAOYSA-N/SDF?record_type=3d

> <SMILES>
NNC(=O)C1=CC=NC=C1

> <INCHI_IDENTIFIER>
InChI=1S/C6H7N3O/c7-9-6(10)5-1-3-8-4-2-5/h1-4H,7H2,(H,9,10)

> <INCHI_KEY>
QRXWMOHMRWLFEY-UHFFFAOYSA-N

> <FORMULA>
C6H7N3O

> <MOLECULAR_WEIGHT>
137.1393

> <EXACT_MASS>
137.058911861

> <JCHEM_ACCEPTOR_COUNT>
3

> <JCHEM_AVERAGE_POLARIZABILITY>
13.211068752970714

> <JCHEM_BIOAVAILABILITY>
1

> <JCHEM_DONOR_COUNT>
2

> <JCHEM_FORMAL_CHARGE>
0

> <JCHEM_GHOSE_FILTER>
0

> <JCHEM_IUPAC>
pyridine-4-carbohydrazide

> <ALOGPS_LOGP>
-0.71

> <JCHEM_LOGP>
-0.6902620096666666

> <ALOGPS_LOGS>
-0.59

> <JCHEM_MDDR_LIKE_RULE>
0

> <JCHEM_NUMBER_OF_RINGS>
1

> <JCHEM_PHYSIOLOGICAL_CHARGE>
0

> <JCHEM_PKA_STRONGEST_ACIDIC>
13.605501981551239

> <JCHEM_PKA_STRONGEST_BASIC>
3.3508081159530896

> <JCHEM_POLAR_SURFACE_AREA>
68.01

> <JCHEM_REFRACTIVITY>
37.46360000000001

> <JCHEM_ROTATABLE_BOND_COUNT>
1

> <JCHEM_RULE_OF_FIVE>
1

> <ALOGPS_SOLUBILITY>
3.49e+01 g/l

> <JCHEM_TRADITIONAL_IUPAC>
isoniazid

> <JCHEM_VEBER_RULE>
0

> <DRUGBANK_ID>
DB00951

> <SECONDARY_ACCESSION_NUMBERS>
APRD01055; EXPT01940

> <DRUG_GROUPS>
approved; investigational

> <GENERIC_NAME>
Isoniazid

> <SYNONYMS>
4-pyridinecarbohydrazide; INH; Isoniazid; Isoniazida; Isonicotinic acid hydrazide; Isonicotinic hydrazide; Isonicotinohydrazide; Isonicotinoylhydrazide; IsonicotinsÃ¤urehydrazid; Isonicotinylhydrazine; Pyridine-4-carboxylic acid hydrazide

> <PRODUCTS>
Dom-isoniazid 300mg Tablets; IsonaRif; Isoniazid; Isoniazid Syrup 50mg/5ml; Isoniazid Tab 100mg; Isoniazid Tab 300mg; Isoniazid Tab 50mg; Isoniazide 100mg Tablets; Isotamine; Isotamine B 300; Pdp-isoniazid; Rifamate; Rifater

> <INTERNATIONAL_BRANDS>
Nicozid; Nidrazid; Nydrazid; Rimicid; Rimifon; Servizid; Tibinide

$$$$
