REMARK  Name = 7638
REMARK  4 active torsions:
REMARK  status: ('A' for Active; 'I' for Inactive)
REMARK    1  A    between atoms: O_1  and  C_2
REMARK    2  A    between atoms: O_1  and  C_10
REMARK    3  A    between atoms: C_7  and  O_8
REMARK    4  A    between atoms: C_10  and  C_11
REMARK                            x       y       z     vdW  Elec       q    Type
REMARK                         _______ _______ _______ _____ _____    ______ ____
ROOT
ATOM      1  O   UNL     1       0.028  -0.446  -0.009  0.00  0.00    -0.471 OA
ENDROOT
BRANCH   1   2
ATOM      2  C   UNL     1       1.388  -0.277  -0.002  0.00  0.00    +0.139 C 
ATOM      3  C   UNL     1       1.922   1.005  -0.068  0.00  0.00    +0.040 C 
ATOM      4  C   UNL     1       2.220  -1.389   0.070  0.00  0.00    +0.040 C 
ATOM      5  C   UNL     1       3.306   1.178  -0.062  0.00  0.00    +0.040 C 
ATOM      6  C   UNL     1       3.604  -1.216   0.076  0.00  0.00    +0.040 C 
ATOM      7  C   UNL     1       4.147   0.067   0.010  0.00  0.00    +0.134 C 
BRANCH   7   8
ATOM      8  O   UNL     1       5.498   0.235   0.017  0.00  0.00    -0.506 OA
ATOM      9  H   UNL     1       5.863   1.097  -0.027  0.00  0.00    +0.292 HD
ENDBRANCH   7   8
ENDBRANCH   1   2
BRANCH   1  10
ATOM     10  C   UNL     1      -0.763   0.733  -0.084  0.00  0.00    +0.232 C 
BRANCH  10  11
ATOM     11  C   UNL     1      -2.208   0.364  -0.036  0.00  0.00    +0.021 C 
ATOM     12  C   UNL     1      -2.900   0.102  -1.218  0.00  0.00    -0.001 C 
ATOM     13  C   UNL     1      -2.866   0.280   1.191  0.00  0.00    -0.001 C 
ATOM     14  C   UNL     1      -4.251  -0.244  -1.173  0.00  0.00    -0.000 C 
ATOM     15  C   UNL     1      -4.216  -0.066   1.236  0.00  0.00    -0.000 C 
ATOM     16  C   UNL     1      -4.909  -0.328   0.054  0.00  0.00    -0.000 C 
ENDBRANCH  10  11
ENDBRANCH   1  10
TORSDOF 4
