REMARK  Name = 60857
REMARK  5 active torsions:
REMARK  status: ('A' for Active; 'I' for Inactive)
REMARK    1  A    between atoms: C_2  and  C_11
REMARK    2  A    between atoms: C_4  and  C_19
REMARK    3  A    between atoms: C_11  and  C_15
REMARK    4  A    between atoms: C_19  and  C_20
REMARK    5  A    between atoms: C_20  and  N_21
REMARK                            x       y       z     vdW  Elec       q    Type
REMARK                         _______ _______ _______ _____ _____    ______ ____
ROOT
ATOM      1  N   UNL     1       2.344  -2.945  -0.781  0.00  0.00    -0.312 N 
ATOM      2  C   UNL     1      -1.052  -1.227   0.801  0.00  0.00    -0.020 C 
ATOM      3  C   UNL     1       1.161  -1.151  -0.180  0.00  0.00    +0.010 C 
ATOM      4  C   UNL     1       2.409  -0.727  -0.717  0.00  0.00    -0.008 C 
ATOM      5  C   UNL     1       1.146  -2.546  -0.232  0.00  0.00    +0.048 C 
ATOM      6  C   UNL     1       0.040  -0.479   0.346  0.00  0.00    -0.003 C 
ATOM      7  C   UNL     1      -1.040  -2.619   0.737  0.00  0.00    -0.003 C 
ATOM      8  C   UNL     1       3.114  -1.852  -1.078  0.00  0.00    +0.057 C 
ATOM      9  C   UNL     1       0.061  -3.307   0.219  0.00  0.00    +0.014 C 
ATOM     10  H   UNL     1       2.608  -3.880  -0.938  0.00  0.00    +0.152 HD
ENDROOT
BRANCH   2  11
ATOM     11  C   UNL     1      -2.244  -0.522   1.360  0.00  0.00    +0.050 C 
BRANCH  11  15
ATOM     12  O   UNL     1      -5.131   1.188  -0.038  0.00  0.00    -0.433 OA
ATOM     13  O   UNL     1      -4.146   2.692  -1.459  0.00  0.00    -0.226 OA
ATOM     14  N   UNL     1      -2.943   0.961  -0.474  0.00  0.00    -0.268 N 
ATOM     15  C   UNL     1      -3.272  -0.197   0.294  0.00  0.00    +0.123 C 
ATOM     16  C   UNL     1      -4.630   0.175   0.853  0.00  0.00    +0.230 C 
ATOM     17  C   UNL     1      -4.068   1.715  -0.729  0.00  0.00    +0.402 C 
ATOM     18  H   UNL     1      -2.036   1.190  -0.781  0.00  0.00    +0.153 HD
ENDBRANCH  11  15
ENDBRANCH   2  11
BRANCH   4  19
ATOM     19  C   UNL     1       2.874   0.667  -0.868  0.00  0.00    +0.005 C 
BRANCH  19  20
ATOM     20  C   UNL     1       3.639   1.173   0.370  0.00  0.00    -0.073 C 
BRANCH  20  21
ATOM     21  N   UNL     1       4.067   2.560   0.221  0.00  0.00    +0.384 N 
ATOM     22  C   UNL     1       4.750   3.020   1.431  0.00  0.00    -0.101 C 
ATOM     23  C   UNL     1       2.922   3.422  -0.076  0.00  0.00    -0.101 C 
ATOM     24  H   UNL     1       4.721   2.610  -0.559  0.00  0.00    -0.080 HD
ENDBRANCH  20  21
ENDBRANCH  19  20
ENDBRANCH   4  19
TORSDOF 5
