REMARK  Name = 5960
REMARK  6 active torsions:
REMARK  status: ('A' for Active; 'I' for Inactive)
REMARK    1  A    between atoms: CA_1  and  N_2
REMARK    2  A    between atoms: CA_1  and  C_7
REMARK    3  A    between atoms: CA_1  and  CB_10
REMARK    4  A    between atoms: C_7  and  O_8
REMARK    5  A    between atoms: CB_10  and  CG_12
REMARK    6  A    between atoms: CG_12  and  OD1_13
REMARK                            x       y       z     vdW  Elec       q    Type
REMARK                         _______ _______ _______ _____ _____    ______ ____
ROOT
ATOM      1  CA  ASP A   1       0.727   0.637   0.550  0.00  0.00    +0.047 C 
ENDROOT
BRANCH   1   2
ATOM      2  N   ASP A   1       1.744   1.679   0.406  0.00  0.00    +0.389 N 
ATOM      3  H1  ASP A   1       1.423   2.534   0.859  0.00  0.00    -0.088 HD
ATOM      4  H2  ASP A   1       1.907   1.860  -0.585  0.00  0.00    -0.088 HD
ATOM      5  H3  ASP A   1       2.613   1.369   0.841  0.00  0.00    -0.088 HD
ENDBRANCH   1   2
BRANCH   1   7
ATOM      6  OXT ASP A   1       2.008  -0.589  -1.127  0.00  0.00    -0.253 OA
ATOM      7  C   ASP A   1       1.275  -0.598  -0.147  0.00  0.00    +0.293 C 
BRANCH   7   8
ATOM      8  O   ASP A   1       0.876  -1.748   0.461  0.00  0.00    -0.482 OA
ATOM      9  H   ASP A   1       0.314  -1.711   1.210  0.00  0.00    +0.295 HD
ENDBRANCH   7   8
ENDBRANCH   1   7
BRANCH   1  10
ATOM     10  CB  ASP A   1      -0.596   1.116  -0.061  0.00  0.00    +0.098 C 
BRANCH  10  12
ATOM     11  OD2 ASP A   1      -1.802  -0.779   0.899  0.00  0.00    -0.250 OA
ATOM     12  CG  ASP A   1      -1.686   0.073   0.031  0.00  0.00    +0.312 C 
BRANCH  12  13
ATOM     13  OD1 ASP A   1      -2.547   0.208  -1.011  0.00  0.00    -0.480 OA
ATOM     14  HD1 ASP A   1      -2.409   0.882  -1.648  0.00  0.00    +0.295 HD
ENDBRANCH  12  13
ENDBRANCH  10  12
ENDBRANCH   1  10
TORSDOF 6
