REMARK  Name = 3331
REMARK  7 active torsions:
REMARK  status: ('A' for Active; 'I' for Inactive)
REMARK    1  A    between atoms: C_1  and  C_2
REMARK    2  A    between atoms: C_1  and  C_8
REMARK    3  A    between atoms: C_1  and  C_15
REMARK    4  A    between atoms: C_8  and  O_9
REMARK    5  A    between atoms: O_9  and  C_12
REMARK    6  A    between atoms: C_15  and  O_16
REMARK    7  A    between atoms: O_16  and  C_19
REMARK                            x       y       z     vdW  Elec       q    Type
REMARK                         _______ _______ _______ _____ _____    ______ ____
ROOT
ATOM      1  C   UNL     1       0.015   0.639   0.373  0.00  0.00    +0.110 C 
ENDROOT
BRANCH   1   2
ATOM      2  C   UNL     1      -0.006  -0.861   0.107  0.00  0.00    -0.015 C 
ATOM      3  C   UNL     1      -0.602  -1.323  -1.048  0.00  0.00    -0.004 C 
ATOM      4  C   UNL     1       0.570  -1.709   1.029  0.00  0.00    -0.004 C 
ATOM      5  C   UNL     1      -0.622  -2.697  -1.291  0.00  0.00    -0.000 C 
ATOM      6  C   UNL     1       0.550  -3.082   0.786  0.00  0.00    -0.000 C 
ATOM      7  C   UNL     1      -0.046  -3.576  -0.375  0.00  0.00    -0.000 C 
ENDBRANCH   1   2
BRANCH   1   8
ATOM      8  C   UNL     1       1.270   1.305  -0.211  0.00  0.00    +0.218 C 
BRANCH   8   9
ATOM      9  O   UNL     1       2.446   0.784   0.400  0.00  0.00    -0.434 OA
BRANCH   9  12
ATOM     10  O   UNL     1       3.744   2.166  -0.907  0.00  0.00    -0.227 OA
ATOM     11  N   UNL     1       4.690   0.727   0.617  0.00  0.00    -0.295 N 
ATOM     12  C   UNL     1       3.632   1.304  -0.042  0.00  0.00    +0.398 C 
ATOM     13  H   UNL     1       4.527   0.039   1.302  0.00  0.00    +0.148 HD
ATOM     14  H   UNL     1       5.611   1.002   0.405  0.00  0.00    +0.148 HD
ENDBRANCH   9  12
ENDBRANCH   8   9
ENDBRANCH   1   8
BRANCH   1  15
ATOM     15  C   UNL     1      -1.254   1.318  -0.164  0.00  0.00    +0.218 C 
BRANCH  15  16
ATOM     16  O   UNL     1      -2.396   0.792   0.503  0.00  0.00    -0.434 OA
BRANCH  16  19
ATOM     17  O   UNL     1      -3.761   2.174  -0.733  0.00  0.00    -0.227 OA
ATOM     18  N   UNL     1      -4.626   0.728   0.832  0.00  0.00    -0.295 N 
ATOM     19  C   UNL     1      -3.604   1.310   0.123  0.00  0.00    +0.398 C 
ATOM     20  H   UNL     1      -4.428   0.039   1.506  0.00  0.00    +0.148 HD
ATOM     21  H   UNL     1      -5.558   1.001   0.666  0.00  0.00    +0.148 HD
ENDBRANCH  16  19
ENDBRANCH  15  16
ENDBRANCH   1  15
TORSDOF 7
