REMARK  Name = 54746
REMARK  8 active torsions:
REMARK  status: ('A' for Active; 'I' for Inactive)
REMARK    1  A    between atoms: N_1  and  C_35
REMARK    2  A    between atoms: C_6  and  C_23
REMARK    3  A    between atoms: N_21  and  C_28
REMARK    4  A    between atoms: N_22  and  C_26
REMARK    5  A    between atoms: C_28  and  C_29
REMARK    6  A    between atoms: C_29  and  C_30
REMARK    7  A    between atoms: C_30  and  N_31
REMARK    8  A    between atoms: C_35  and  C_36
REMARK                            x       y       z     vdW  Elec       q    Type
REMARK                         _______ _______ _______ _____ _____    ______ ____
ROOT
ATOM      1  N   UNL     1       1.387   2.440  -0.246  0.00  0.00    +0.392 N 
ATOM      2  N   UNL     1       5.749  -1.408   1.312  0.00  0.00    -0.312 N 
ATOM      3  C   UNL     1       1.616  -0.063  -0.368  0.00  0.00    +0.004 C 
ATOM      4  C   UNL     1       2.129   1.282   0.311  0.00  0.00    -0.049 C 
ATOM      5  C   UNL     1       0.101  -0.209  -0.173  0.00  0.00    +0.009 C 
ATOM      6  C   UNL     1      -0.626   1.040  -0.661  0.00  0.00    +0.057 C 
ATOM      7  C   UNL     1       3.692   1.455   0.186  0.00  0.00    +0.007 C 
ATOM      8  C   UNL     1      -0.060   2.302  -0.010  0.00  0.00    -0.068 C 
ATOM      9  C   UNL     1       2.403  -1.264   0.130  0.00  0.00    -0.024 C 
ATOM     10  C   UNL     1       3.718  -1.026   0.549  0.00  0.00    +0.007 C 
ATOM     11  C   UNL     1       4.394   0.209   0.607  0.00  0.00    -0.009 C 
ATOM     12  C   UNL     1       4.563  -2.029   0.987  0.00  0.00    +0.048 C 
ATOM     13  C   UNL     1       1.986  -2.601   0.146  0.00  0.00    -0.004 C 
ATOM     14  C   UNL     1       5.658  -0.051   1.082  0.00  0.00    +0.057 C 
ATOM     15  C   UNL     1       4.149  -3.359   1.029  0.00  0.00    +0.015 C 
ATOM     16  C   UNL     1       2.840  -3.622   0.594  0.00  0.00    +0.001 C 
ATOM     17  H   UNL     1       1.581   2.440  -1.248  0.00  0.00    -0.079 HD
ATOM     18  H   UNL     1       6.548  -1.868   1.659  0.00  0.00    +0.152 HD
ENDROOT
BRANCH   6  23
ATOM     19  O   UNL     1      -2.627   1.785   0.343  0.00  0.00    -0.275 OA
ATOM     20  O   UNL     1      -2.619  -2.027  -2.378  0.00  0.00    -0.252 OA
ATOM     21  N   UNL     1      -2.772  -0.188  -0.918  0.00  0.00    -0.214 N 
ATOM     22  N   UNL     1      -1.809   0.005  -3.079  0.00  0.00    -0.288 N 
ATOM     23  C   UNL     1      -2.093   0.924  -0.363  0.00  0.00    +0.230 C 
ATOM     24  C   UNL     1      -2.428  -0.831  -2.147  0.00  0.00    +0.310 C 
ATOM     25  H   UNL     1      -1.677   0.954  -2.853  0.00  0.00    +0.151 HD
BRANCH  22  26
ATOM     26  C   UNL     1      -1.355  -0.477  -4.363  0.00  0.00    +0.091 C 
ATOM     27  C   UNL     1      -1.655  -1.957  -4.502  0.00  0.00    +0.023 C 
ENDBRANCH  22  26
BRANCH  21  28
ATOM     28  C   UNL     1      -3.909  -0.688  -0.137  0.00  0.00    +0.100 C 
BRANCH  28  29
ATOM     29  C   UNL     1      -3.503  -1.145   1.262  0.00  0.00    -0.001 C 
BRANCH  29  30
ATOM     30  C   UNL     1      -4.665  -1.643   2.127  0.00  0.00    -0.076 C 
BRANCH  30  31
ATOM     31  N   UNL     1      -5.681  -0.615   2.319  0.00  0.00    +0.384 N 
ATOM     32  C   UNL     1      -5.111   0.553   2.995  0.00  0.00    -0.101 C 
ATOM     33  C   UNL     1      -6.810  -1.143   3.086  0.00  0.00    -0.101 C 
ATOM     34  H   UNL     1      -6.018  -0.326   1.401  0.00  0.00    -0.080 HD
ENDBRANCH  30  31
ENDBRANCH  29  30
ENDBRANCH  28  29
ENDBRANCH  21  28
ENDBRANCH   6  23
BRANCH   1  35
ATOM     35  C   UNL     1       1.837   3.723   0.302  0.00  0.00    -0.050 C 
BRANCH  35  36
ATOM     36  C   UNL     1       1.133   4.877  -0.343  0.00  0.00    -0.049 C 
ATOM     37  C   UNL     1       0.368   5.751   0.320  0.00  0.00    -0.007 C 
ENDBRANCH  35  36
ENDBRANCH   1  35
TORSDOF 8
