6057
  -OEChem-11291912103D

 24 24  0     1  0  0  0  0  0999 V2000
   -1.7727   -1.6313   -0.9931 O   0  0  0  0  0  0  0  0  0  0  0  0
    4.2183   -0.6351   -0.3947 O   0  0  0  0  0  0  0  0  0  0  0  0
   -3.4801   -1.1584    0.4234 O   0  0  0  0  0  0  0  0  0  0  0  0
   -3.2387    1.4947   -0.2351 N   0  0  0  0  0  0  0  0  0  0  0  0
   -1.0493    1.0210    0.7633 C   0  0  0  0  0  0  0  0  0  0  0  0
   -2.0479    0.6553   -0.3458 C   0  0  1  0  0  0  0  0  0  0  0  0
    0.3618    0.5774    0.4529 C   0  0  0  0  0  0  0  0  0  0  0  0
    0.7803   -0.6798    0.8553 C   0  0  0  0  0  0  0  0  0  0  0  0
    1.2077    1.4373   -0.2276 C   0  0  0  0  0  0  0  0  0  0  0  0
   -2.5197   -0.7846   -0.2378 C   0  0  0  0  0  0  0  0  0  0  0  0
    2.0827   -1.0891    0.5690 C   0  0  0  0  0  0  0  0  0  0  0  0
    2.5101    1.0280   -0.5141 C   0  0  0  0  0  0  0  0  0  0  0  0
    2.9476   -0.2353   -0.1158 C   0  0  0  0  0  0  0  0  0  0  0  0
   -1.3631    0.5945    1.7261 H   0  0  0  0  0  0  0  0  0  0  0  0
   -1.0322    2.1089    0.9190 H   0  0  0  0  0  0  0  0  0  0  0  0
   -1.6246    0.8135   -1.3445 H   0  0  0  0  0  0  0  0  0  0  0  0
    0.1158   -1.3512    1.3914 H   0  0  0  0  0  0  0  0  0  0  0  0
    0.8752    2.4217   -0.5440 H   0  0  0  0  0  0  0  0  0  0  0  0
   -2.9777    2.4737   -0.3486 H   0  0  0  0  0  0  0  0  0  0  0  0
   -3.6297    1.4190    0.7038 H   0  0  0  0  0  0  0  0  0  0  0  0
    2.4114   -2.0754    0.8853 H   0  0  0  0  0  0  0  0  0  0  0  0
    3.1790    1.6973   -1.0482 H   0  0  0  0  0  0  0  0  0  0  0  0
   -2.0912   -2.5568   -0.9282 H   0  0  0  0  0  0  0  0  0  0  0  0
    4.3494   -1.5339   -0.0467 H   0  0  0  0  0  0  0  0  0  0  0  0
  1 10  1  0  0  0  0
  1 23  1  0  0  0  0
  2 13  1  0  0  0  0
  2 24  1  0  0  0  0
  3 10  2  0  0  0  0
  4  6  1  0  0  0  0
  4 19  1  0  0  0  0
  4 20  1  0  0  0  0
  5  6  1  0  0  0  0
  5  7  1  0  0  0  0
  5 14  1  0  0  0  0
  5 15  1  0  0  0  0
  6 10  1  0  0  0  0
  6 16  1  0  0  0  0
  7  8  2  0  0  0  0
  7  9  1  0  0  0  0
  8 11  1  0  0  0  0
  8 17  1  0  0  0  0
  9 12  2  0  0  0  0
  9 18  1  0  0  0  0
 11 13  2  0  0  0  0
 11 21  1  0  0  0  0
 12 13  1  0  0  0  0
 12 22  1  0  0  0  0
M  END
> <DATABASE_ID>
DB00135

> <DATABASE_NAME>
drugbank

> <ORIGINAL_SOURCE>
PUBCHEM

> <ORIGINAL_SOURCE_URL>
https://pubchem.ncbi.nlm.nih.gov/rest/pug/compound/inchikey/OUYCCCASQSFEME-QMMMGPOBSA-N/SDF?record_type=3d

> <SMILES>
N[C@@H](CC1=CC=C(O)C=C1)C(O)=O

> <INCHI_IDENTIFIER>
InChI=1S/C9H11NO3/c10-8(9(12)13)5-6-1-3-7(11)4-2-6/h1-4,8,11H,5,10H2,(H,12,13)/t8-/m0/s1

> <INCHI_KEY>
OUYCCCASQSFEME-QMMMGPOBSA-N

> <FORMULA>
C9H11NO3

> <MOLECULAR_WEIGHT>
181.1885

> <EXACT_MASS>
181.073893223

> <JCHEM_ACCEPTOR_COUNT>
4

> <JCHEM_ATOM_COUNT>
24

> <JCHEM_AVERAGE_POLARIZABILITY>
18.011281585436166

> <JCHEM_BIOAVAILABILITY>
1

> <JCHEM_DONOR_COUNT>
3

> <JCHEM_FORMAL_CHARGE>
0

> <JCHEM_GHOSE_FILTER>
0

> <JCHEM_IUPAC>
(2S)-2-amino-3-(4-hydroxyphenyl)propanoic acid

> <ALOGPS_LOGP>
-2.39

> <JCHEM_LOGP>
-1.4885940366836234

> <ALOGPS_LOGS>
-1.37

> <JCHEM_MDDR_LIKE_RULE>
0

> <JCHEM_NUMBER_OF_RINGS>
1

> <JCHEM_PHYSIOLOGICAL_CHARGE>
0

> <JCHEM_PKA>
9.792157836784154

> <JCHEM_PKA_STRONGEST_ACIDIC>
1.9998472511533614

> <JCHEM_PKA_STRONGEST_BASIC>
9.185299922384795

> <JCHEM_POLAR_SURFACE_AREA>
83.55

> <JCHEM_REFRACTIVITY>
47.09720000000001

> <JCHEM_ROTATABLE_BOND_COUNT>
3

> <JCHEM_RULE_OF_FIVE>
1

> <ALOGPS_SOLUBILITY>
7.67e+00 g/l

> <JCHEM_TRADITIONAL_IUPAC>
palladium(2+) (4S,5S,14R,15R)-10-acetyl-4-(2-carboxyethyl)-15-ethyl-2-(2-methoxy-2-oxoethyl)-5,9,14,19-tetramethyl-20-[(2-sulfoethyl)carbamoyl]-21,22,23,24-tetraazapentacyclo[16.2.1.1^{3,6}.1^{8,11}.1^{13,16}]tetracosa-1,3(24),6,8,10,12,16(22),17,19-nonaene-21,23-diide

> <JCHEM_VEBER_RULE>
0

> <DRUGBANK_ID>
DB00135

> <SECONDARY_ACCESSION_NUMBERS>
NUTR00059

> <DRUG_GROUPS>
approved; investigational; nutraceutical

> <GENERIC_NAME>
Tyrosine

> <SYNONYMS>
(−)-α-amino-p-hydroxyhydrocinnamic acid; (2S)-2-amino-3-(4-hydroxyphenyl)propanoic acid; (S)-(-)-Tyrosine; (S)-2-Amino-3-(p-hydroxyphenyl)propionic acid; (S)-3-(p-Hydroxyphenyl)alanine; (S)-alpha-amino-4-Hydroxybenzenepropanoic acid; (S)-Tyrosine; (S)-α-amino-4-hydroxybenzenepropanoic acid; 4-hydroxy-L-phenylalanine; L-Tyrosin; L-tyrosine; Tirosina; Tyr; Tyrosine; Tyrosinum; Y

> <PRODUCTS>
2.5% Travasol Amino Acid Injection With Electrolytes In 10% Dextrose; 2.5% Travasol Amino Acid Injection With Electrolytes In 10% Dextrose Clinimix; 2.5% Travasol Amino Acid Injection Without Electrolytes In 10% Dextrose Quickmix; 2.5%travasol Amino Acid InJ.W.eleC.W.25%dex; 2.75% Travas. Amino Acid InJ.W.elecw.25%dex; 2.75% Travasol Amino Acid Injection With Electrolytes In 25% Dextrose Quickmix; 2.75% Travasol Amino Acid Injection With Electrolytes In 5% Dextrose Quickmix; 2.75%travasol Amino Acid InJ.W.eleC.W.5%dex.; 20% Prosol; 4.25% Amino Acid Injection Without Electrolytes In 20% Dextrose Quickmix; 4.25% Travasol Amino Acid Injection With Electrolytes In 10% Dextrose; 4.25% Travasol Amino Acid Injection With Electrolytes In 20% Dextrose; 4.25% Travasol Amino Acid Injection With Electrolytes In 20% Dextrose Quickmix; 4.25% Travasol Amino Acid Injection With Electrolytes In 25% Dextrose; 4.25% Travasol Amino Acid Injection With Electrolytes In 5% Dextrose Quickmix; 4.25% Travasol Amino Acid Injection Without Electrlytes In 10% Dextrose; 4.25% Travasol Amino Acid Injection Without Electrolytes In 20% Dextrose; 4.25% Travasol Amino Acid Injection Without Electrolytes In 25% Dextrose; 4.25% Travasol Amino Acid Without Electrolytes In 5% Dextrose Quickmix; 4.25%trav. Amino Acid InJ.W.O.elect.5%dext.; 4.25%travasol Amino Acid InJ.W.elecw.5%dex.; 5% Travasol Amino Acid Injection With Electrolytes In 20% Dextrose; 5% Travasol Amino Acid Injection Without Electrolytes In 20% Dextrose; 5% Travasol Amino Acid Injection Without Electrolytes In 25% Dextrose; Aminosyn; Aminosyn 10% W Electrolytes; Aminosyn 3.5% M; Aminosyn 5%; Aminosyn 7%; Aminosyn 8.5%; Aminosyn 8.5% Injection With Electrolytes; Aminosyn Sulfite Free; Aminosyn-PF; Aminosyn-PF 10%; Aminosyn-PF 7%; Appbutamone; Appbutamone-D; Appformin; Appformin-D; Clinimix; Clinimix 2.5% Travasol Aa Without Electrolytes In 10% Dextrose Injec; Clinimix E; Clinisol; Kabiven; Novamine; Nutrineal Pd4; Olimel 3.3% E; Olimel 4.4%; Olimel 4.4% E; Olimel 5.7%; Olimel 5.7% E; Olimel 7.6%; Olimel 7.6% E; Perikabiven; Periolimel 2.5% E; Plenamine; Premasol - sulfite-free (Amino Acid); Primene; Primene 10%; Primene 10%-liq IV; ProSol; Quick Mix 2.5% Travasol Aa With Electrolytes With 25% Dextrose Injec; RenAmin; Renamin (amino Acids) Injection; Smofkabiven; Smofkabiven Electrolyte Free; Smofkabiven Peripheral; Synthamin; Travasol; Travasol Amino Acid Inj 5.5%; Travasol Amino Acid Inj 8.5%; Travasol E; Travasol Inj Without Electrolytes 5.5%; Travasol Inj Without Electrolytes 8.5%; TrophAmine; Vamin 18 Electrolyte-free; Vamin N

$$$$
