REMARK  Name = 3226
REMARK  3 active torsions:
REMARK  status: ('A' for Active; 'I' for Inactive)
REMARK    1  A    between atoms: C_3  and  C_6
REMARK    2  A    between atoms: C_3  and  O_7
REMARK    3  A    between atoms: O_7  and  C_10
REMARK                            x       y       z     vdW  Elec       q    Type
REMARK                         _______ _______ _______ _____ _____    ______ ____
ROOT
ATOM      1  F   UNL     1      -0.332   1.574  -0.693  0.00  0.00    -0.170 F 
ATOM      2  F   UNL     1      -0.349   0.551   1.241  0.00  0.00    -0.170 F 
ATOM      3  C   UNL     1      -0.422   0.358  -0.097  0.00  0.00    +0.414 C 
ENDROOT
BRANCH   3   6
ATOM      4 CL   UNL     1      -1.937  -1.872   0.290  0.00  0.00    -0.068 Cl
ATOM      5  F   UNL     1      -2.750   0.531  -0.051  0.00  0.00    -0.210 F 
ATOM      6  C   UNL     1      -1.742  -0.279  -0.472  0.00  0.00    +0.329 C 
ENDBRANCH   3   6
BRANCH   3   7
ATOM      7  O   UNL     1       0.672  -0.441  -0.531  0.00  0.00    -0.246 OA
BRANCH   7  10
ATOM      8  F   UNL     1       2.890  -0.726  -0.638  0.00  0.00    -0.166 F 
ATOM      9  F   UNL     1       2.040   0.180   1.150  0.00  0.00    -0.166 F 
ATOM     10  C   UNL     1       1.928   0.124  -0.199  0.00  0.00    +0.454 C 
ENDBRANCH   7  10
ENDBRANCH   3   7
TORSDOF 3
