REMARK  Name = 3869
REMARK  10 active torsions:
REMARK  status: ('A' for Active; 'I' for Inactive)
REMARK    1  A    between atoms: C_1  and  C_2
REMARK    2  A    between atoms: C_1  and  O_15
REMARK    3  A    between atoms: C_1  and  C_17
REMARK    4  A    between atoms: C_5  and  C_10
REMARK    5  A    between atoms: C_7  and  O_13
REMARK    6  A    between atoms: C_17  and  N_18
REMARK    7  A    between atoms: N_18  and  C_21
REMARK    8  A    between atoms: C_21  and  C_23
REMARK    9  A    between atoms: C_23  and  C_24
REMARK   10  A    between atoms: C_24  and  C_25
REMARK                            x       y       z     vdW  Elec       q    Type
REMARK                         _______ _______ _______ _____ _____    ______ ____
ROOT
ATOM      1  C   UNL     1      -2.294  -2.004   1.271  0.00  0.00    +0.112 C 
ENDROOT
BRANCH   1   2
ATOM      2  C   UNL     1      -2.535  -0.745   0.468  0.00  0.00    +0.002 C 
ATOM      3  C   UNL     1      -1.730   0.360   0.685  0.00  0.00    +0.006 C 
ATOM      4  C   UNL     1      -3.556  -0.725  -0.466  0.00  0.00    +0.001 C 
ATOM      5  C   UNL     1      -1.953   1.521  -0.055  0.00  0.00    +0.086 C 
ATOM      6  C   UNL     1      -3.779   0.436  -1.206  0.00  0.00    +0.037 C 
ATOM      7  C   UNL     1      -2.978   1.559  -1.001  0.00  0.00    +0.138 C 
BRANCH   5  10
ATOM      8  O   UNL     1      -1.396   3.534   1.034  0.00  0.00    -0.270 OA
ATOM      9  N   UNL     1       0.053   2.798  -0.585  0.00  0.00    -0.325 N 
ATOM     10  C   UNL     1      -1.106   2.683   0.176  0.00  0.00    +0.246 C 
ATOM     11  H   UNL     1       0.651   3.570  -0.457  0.00  0.00    +0.145 HD
ATOM     12  H   UNL     1       0.275   2.108  -1.251  0.00  0.00    +0.145 HD
ENDBRANCH   5  10
BRANCH   7  13
ATOM     13  O   UNL     1      -3.214   2.686  -1.731  0.00  0.00    -0.505 OA
ATOM     14  H   UNL     1      -2.683   3.447  -1.603  0.00  0.00    +0.292 HD
ENDBRANCH   7  13
ENDBRANCH   1   2
BRANCH   1  15
ATOM     15  O   UNL     1      -2.539  -1.710   2.646  0.00  0.00    -0.382 OA
ATOM     16  H   UNL     1      -2.390  -2.507   3.179  0.00  0.00    +0.211 HD
ENDBRANCH   1  15
BRANCH   1  17
ATOM     17  C   UNL     1      -0.863  -2.524   1.086  0.00  0.00    -0.047 C 
BRANCH  17  18
ATOM     18  N   UNL     1      -0.602  -2.833  -0.310  0.00  0.00    +0.387 N 
ATOM     19  H   UNL     1      -1.259  -3.547  -0.624  0.00  0.00    -0.084 HD
ATOM     20  H   UNL     1      -0.715  -1.982  -0.861  0.00  0.00    -0.084 HD
BRANCH  18  21
ATOM     21  C   UNL     1       0.764  -3.327  -0.484  0.00  0.00    -0.062 C 
ATOM     22  C   UNL     1       1.014  -3.633  -1.961  0.00  0.00    -0.023 C 
BRANCH  21  23
ATOM     23  C   UNL     1       1.790  -2.301   0.033  0.00  0.00    -0.017 C 
BRANCH  23  24
ATOM     24  C   UNL     1       1.824  -0.973  -0.738  0.00  0.00    +0.024 C 
BRANCH  24  25
ATOM     25  C   UNL     1       2.881  -0.013  -0.254  0.00  0.00    -0.022 C 
ATOM     26  C   UNL     1       2.570   0.895   0.747  0.00  0.00    -0.004 C 
ATOM     27  C   UNL     1       4.148  -0.054  -0.818  0.00  0.00    -0.004 C 
ATOM     28  C   UNL     1       3.548   1.783   1.194  0.00  0.00    -0.000 C 
ATOM     29  C   UNL     1       5.126   0.834  -0.370  0.00  0.00    -0.000 C 
ATOM     30  C   UNL     1       4.826   1.753   0.636  0.00  0.00    -0.000 C 
ENDBRANCH  24  25
ENDBRANCH  23  24
ENDBRANCH  21  23
ENDBRANCH  18  21
ENDBRANCH  17  18
ENDBRANCH   1  17
TORSDOF 10
