REMARK  Name = 38521
REMARK  3 active torsions:
REMARK  status: ('A' for Active; 'I' for Inactive)
REMARK    1  A    between atoms: C_9  and  C_11
REMARK    2  A    between atoms: C_11  and  N_12
REMARK    3  A    between atoms: N_12  and  C_15
REMARK                            x       y       z     vdW  Elec       q    Type
REMARK                         _______ _______ _______ _____ _____    ______ ____
ROOT
ATOM      1  O   UNL     1       0.348   0.011   0.016  0.00  0.00    -0.332 OA
ATOM      2  O   UNL     1       1.567   2.005   0.238  0.00  0.00    -0.332 OA
ATOM      3  C   UNL     1       1.669   0.581   0.067  0.00  0.00    +0.187 C 
ATOM      4  C   UNL     1       2.434  -0.002   1.258  0.00  0.00    +0.056 C 
ATOM      5  C   UNL     1       2.388   0.280  -1.252  0.00  0.00    +0.056 C 
ATOM      6  C   UNL     1       2.720  -1.492   1.086  0.00  0.00    +0.005 C 
ATOM      7  C   UNL     1       2.676  -1.210  -1.425  0.00  0.00    +0.005 C 
ATOM      8  C   UNL     1       3.438  -1.776  -0.231  0.00  0.00    +0.000 C 
ATOM      9  C   UNL     1      -0.519   1.061   0.451  0.00  0.00    +0.171 C 
ATOM     10  C   UNL     1       0.194   2.304  -0.019  0.00  0.00    +0.176 C 
ENDROOT
BRANCH   9  11
ATOM     11  C   UNL     1      -1.903   0.887  -0.138  0.00  0.00    +0.161 C 
BRANCH  11  12
ATOM     12  N   UNL     1      -2.496  -0.342   0.390  0.00  0.00    -0.238 NA
BRANCH  12  15
ATOM     13  N   UNL     1      -4.326  -1.765   0.443  0.00  0.00    -0.370 N 
ATOM     14  N   UNL     1      -4.493   0.087  -0.874  0.00  0.00    -0.370 N 
ATOM     15  C   UNL     1      -3.697  -0.628  -0.007  0.00  0.00    +0.189 C 
ATOM     16  H   UNL     1      -3.864  -2.367   1.071  0.00  0.00    +0.159 HD
ATOM     17  H   UNL     1      -5.237  -1.977   0.138  0.00  0.00    +0.159 HD
ATOM     18  H   UNL     1      -4.161   0.925  -1.270  0.00  0.00    +0.159 HD
ATOM     19  H   UNL     1      -5.395  -0.239  -1.098  0.00  0.00    +0.159 HD
ENDBRANCH  12  15
ENDBRANCH  11  12
ENDBRANCH   9  11
TORSDOF 3
