REMARK  Name = 441074
REMARK  5 active torsions:
REMARK  status: ('A' for Active; 'I' for Inactive)
REMARK    1  A    between atoms: C_1  and  C_3
REMARK    2  A    between atoms: C_1  and  C_16
REMARK    3  A    between atoms: C_1  and  O_25
REMARK    4  A    between atoms: C_10  and  O_12
REMARK    5  A    between atoms: C_18  and  C_23
REMARK                            x       y       z     vdW  Elec       q    Type
REMARK                         _______ _______ _______ _____ _____    ______ ____
ROOT
ATOM      1  C   UNL     1      -0.494   0.828  -1.226  0.00  0.00    +0.114 C 
ENDROOT
BRANCH   1   3
ATOM      2  N   UNL     1       3.043   2.399   0.597  0.00  0.00    -0.248 NA
ATOM      3  C   UNL     1       0.767   1.346  -0.581  0.00  0.00    +0.001 C 
ATOM      4  C   UNL     1       1.814   0.496  -0.224  0.00  0.00    -0.002 C 
ATOM      5  C   UNL     1       0.847   2.708  -0.357  0.00  0.00    +0.018 C 
ATOM      6  C   UNL     1       2.954   1.075   0.373  0.00  0.00    +0.060 C 
ATOM      7  C   UNL     1       1.754  -0.891  -0.443  0.00  0.00    +0.091 C 
ATOM      8  C   UNL     1       2.001   3.181   0.232  0.00  0.00    +0.098 C 
ATOM      9  C   UNL     1       4.003   0.233   0.732  0.00  0.00    +0.074 C 
ATOM     10  C   UNL     1       2.819  -1.709  -0.074  0.00  0.00    +0.117 C 
ATOM     11  C   UNL     1       3.945  -1.145   0.515  0.00  0.00    +0.013 C 
BRANCH  10  12
ATOM     12  O   UNL     1       2.757  -3.050  -0.288  0.00  0.00    -0.476 OA
ATOM     13  C   UNL     1       3.886  -3.825   0.116  0.00  0.00    +0.252 C 
ENDBRANCH  10  12
ENDBRANCH   1   3
BRANCH   1  16
ATOM     14  N   UNL     1      -1.656   0.647   0.988  0.00  0.00    +0.390 N 
ATOM     15  C   UNL     1      -3.964   0.051  -0.050  0.00  0.00    -0.002 C 
ATOM     16  C   UNL     1      -1.737   1.169  -0.403  0.00  0.00    -0.026 C 
ATOM     17  C   UNL     1      -3.033   0.694  -1.097  0.00  0.00    -0.018 C 
ATOM     18  C   UNL     1      -3.279  -1.212   0.523  0.00  0.00    +0.001 C 
ATOM     19  C   UNL     1      -4.116   1.052   1.110  0.00  0.00    -0.023 C 
ATOM     20  C   UNL     1      -1.860  -0.822   1.002  0.00  0.00    -0.073 C 
ATOM     21  C   UNL     1      -2.746   1.272   1.775  0.00  0.00    -0.077 C 
ATOM     22  H   UNL     1      -0.739   0.864   1.379  0.00  0.00    -0.079 HD
BRANCH  18  23
ATOM     23  C   UNL     1      -3.246  -2.351  -0.451  0.00  0.00    -0.029 C 
ATOM     24  C   UNL     1      -3.834  -3.533  -0.240  0.00  0.00    -0.005 C 
ENDBRANCH  18  23
ENDBRANCH   1  16
BRANCH   1  25
ATOM     25  O   UNL     1      -0.625   1.388  -2.529  0.00  0.00    -0.382 OA
ATOM     26  H   UNL     1      -1.436   1.055  -2.944  0.00  0.00    +0.211 HD
ENDBRANCH   1  25
TORSDOF 5
