REMARK  Name = 4848
REMARK  2 active torsions:
REMARK  status: ('A' for Active; 'I' for Inactive)
REMARK    1  A    between atoms: C_6  and  C_20
REMARK    2  A    between atoms: C_20  and  N_21
REMARK                            x       y       z     vdW  Elec       q    Type
REMARK                         _______ _______ _______ _____ _____    ______ ____
ROOT
ATOM      1  O   UNL     1       1.022  -1.393   1.477  0.00  0.00    -0.276 OA
ATOM      2  O   UNL     1      -2.307   1.380  -2.913  0.00  0.00    -0.270 OA
ATOM      3  N   UNL     1      -0.732  -0.158   0.521  0.00  0.00    -0.223 N 
ATOM      4  N   UNL     1      -2.635  -0.552  -1.750  0.00  0.00    -0.278 N 
ATOM      5  N   UNL     1      -1.451  -2.286   1.315  0.00  0.00    -0.227 NA
ATOM      6  C   UNL     1       0.576  -0.339   1.015  0.00  0.00    +0.213 C 
ATOM      7  C   UNL     1      -1.376   1.112   0.484  0.00  0.00    +0.064 C 
ATOM      8  C   UNL     1      -1.602  -1.292   0.392  0.00  0.00    +0.155 C 
ATOM      9  C   UNL     1      -2.135   1.554  -0.600  0.00  0.00    +0.068 C 
ATOM     10  C   UNL     1      -2.498  -1.438  -0.669  0.00  0.00    +0.083 C 
ATOM     11  C   UNL     1      -1.262   1.962   1.604  0.00  0.00    +0.015 C 
ATOM     12  C   UNL     1      -2.317   0.781  -1.838  0.00  0.00    +0.251 C 
ATOM     13  C   UNL     1      -2.732   2.828  -0.574  0.00  0.00    +0.006 C 
ATOM     14  C   UNL     1      -3.231  -2.632  -0.763  0.00  0.00    +0.019 C 
ATOM     15  C   UNL     1      -1.863   3.220   1.631  0.00  0.00    +0.001 C 
ATOM     16  C   UNL     1      -2.596   3.656   0.537  0.00  0.00    +0.000 C 
ATOM     17  C   UNL     1      -3.097  -3.627   0.192  0.00  0.00    +0.022 C 
ATOM     18  C   UNL     1      -2.196  -3.406   1.207  0.00  0.00    +0.100 C 
ATOM     19  H   UNL     1      -3.015  -0.947  -2.568  0.00  0.00    +0.155 HD
ENDROOT
BRANCH   6  20
ATOM     20  C   UNL     1       1.528   0.832   0.862  0.00  0.00    +0.011 C 
BRANCH  20  21
ATOM     21  N   UNL     1       2.852   0.260   0.623  0.00  0.00    +0.390 N 
ATOM     22  N   UNL     1       5.257  -0.103  -0.940  0.00  0.00    +0.383 N 
ATOM     23  C   UNL     1       2.853  -0.561  -0.594  0.00  0.00    -0.100 C 
ATOM     24  C   UNL     1       3.866   1.317   0.528  0.00  0.00    -0.100 C 
ATOM     25  C   UNL     1       4.241  -1.159  -0.847  0.00  0.00    -0.101 C 
ATOM     26  C   UNL     1       5.254   0.719   0.277  0.00  0.00    -0.101 C 
ATOM     27  C   UNL     1       6.581  -0.675  -1.177  0.00  0.00    -0.101 C 
ATOM     28  H   UNL     1       3.084  -0.338   1.415  0.00  0.00    -0.079 HD
ATOM     29  H   UNL     1       5.026   0.496  -1.733  0.00  0.00    -0.080 HD
ENDBRANCH  20  21
ENDBRANCH   6  20
TORSDOF 2
