REMARK  Name = 3278
REMARK  7 active torsions:
REMARK  status: ('A' for Active; 'I' for Inactive)
REMARK    1  A    between atoms: C_3  and  C_10
REMARK    2  A    between atoms: C_6  and  O_15
REMARK    3  A    between atoms: C_10  and  C_11
REMARK    4  A    between atoms: C_11  and  C_13
REMARK    5  A    between atoms: O_15  and  C_16
REMARK    6  A    between atoms: C_16  and  C_18
REMARK    7  A    between atoms: C_18  and  O_19
REMARK                            x       y       z     vdW  Elec       q    Type
REMARK                         _______ _______ _______ _____ _____    ______ ____
ROOT
ATOM      1 CL   UNL     1       1.600   2.352   0.437  0.00  0.00    -0.081 Cl
ATOM      2 CL   UNL     1      -1.589   2.508   0.379  0.00  0.00    -0.078 Cl
ATOM      3  C   UNL     1       1.272  -0.121  -0.611  0.00  0.00    +0.050 C 
ATOM      4  C   UNL     1       0.647   1.026  -0.155  0.00  0.00    +0.074 C 
ATOM      5  C   UNL     1       0.547  -1.199  -1.091  0.00  0.00    +0.007 C 
ATOM      6  C   UNL     1      -1.492   0.022  -0.660  0.00  0.00    +0.151 C 
ATOM      7  C   UNL     1      -0.746   1.099  -0.180  0.00  0.00    +0.102 C 
ATOM      8  C   UNL     1      -0.846  -1.127  -1.116  0.00  0.00    +0.038 C 
ENDROOT
BRANCH   3  10
ATOM      9  O   UNL     1       3.382   0.105  -1.594  0.00  0.00    -0.287 OA
ATOM     10  C   UNL     1       2.746  -0.255  -0.608  0.00  0.00    +0.192 C 
BRANCH  10  11
ATOM     11  C   UNL     1       3.437  -0.849   0.578  0.00  0.00    +0.017 C 
ATOM     12  C   UNL     1       2.719  -1.259   1.634  0.00  0.00    -0.001 C 
BRANCH  11  13
ATOM     13  C   UNL     1       4.942  -0.859   0.566  0.00  0.00    +0.030 C 
ATOM     14  C   UNL     1       5.525   0.450   1.080  0.00  0.00    +0.005 C 
ENDBRANCH  11  13
ENDBRANCH  10  11
ENDBRANCH   3  10
BRANCH   6  15
ATOM     15  O   UNL     1      -2.855   0.058  -0.698  0.00  0.00    -0.463 OA
BRANCH  15  16
ATOM     16  C   UNL     1      -3.549  -0.935   0.053  0.00  0.00    +0.314 C 
BRANCH  16  18
ATOM     17  O   UNL     1      -5.304   0.728   0.289  0.00  0.00    -0.246 OA
ATOM     18  C   UNL     1      -4.878  -0.397   0.503  0.00  0.00    +0.359 C 
BRANCH  18  19
ATOM     19  O   UNL     1      -5.559  -1.347   1.193  0.00  0.00    -0.478 OA
ATOM     20  H   UNL     1      -5.179  -2.193   1.325  0.00  0.00    +0.295 HD
ENDBRANCH  18  19
ENDBRANCH  16  18
ENDBRANCH  15  16
ENDBRANCH   6  15
TORSDOF 7
