REMARK  Name = 2733
REMARK  0 active torsions:
REMARK  status: ('A' for Active; 'I' for Inactive)
REMARK                            x       y       z     vdW  Elec       q    Type
REMARK                         _______ _______ _______ _____ _____    ______ ____
ROOT
ATOM      1 CL   UNL     1       3.790   0.816   0.001  0.00  0.00    -0.082 Cl
ATOM      2  O   UNL     1      -1.758  -1.050   0.000  0.00  0.00    -0.407 OA
ATOM      3  O   UNL     1      -3.565   0.393   0.000  0.00  0.00    -0.223 OA
ATOM      4  N   UNL     1      -1.386   1.218   0.000  0.00  0.00    -0.287 N 
ATOM      5  C   UNL     1      -0.161   0.605  -0.001  0.00  0.00    +0.097 A 
ATOM      6  C   UNL     1      -0.404  -0.752   0.000  0.00  0.00    +0.166 A 
ATOM      7  C   UNL     1       1.107   1.139   0.000  0.00  0.00    +0.032 C 
ATOM      8  C   UNL     1       0.628  -1.665   0.000  0.00  0.00    +0.040 C 
ATOM      9  C   UNL     1       2.169   0.231   0.000  0.00  0.00    +0.059 C 
ATOM     10  C   UNL     1      -2.352   0.225   0.000  0.00  0.00    +0.419 A 
ATOM     11  C   UNL     1       1.932  -1.159   0.000  0.00  0.00    +0.015 C 
ATOM     12  H   UNL     1      -1.550   2.189   0.000  0.00  0.00    +0.172 HD
ENDROOT
TORSDOF 0
