REMARK  Name = 3386
REMARK  7 active torsions:
REMARK  status: ('A' for Active; 'I' for Inactive)
REMARK    1  A    between atoms: C_1  and  C_2
REMARK    2  A    between atoms: C_1  and  O_8
REMARK    3  A    between atoms: C_1  and  C_19
REMARK    4  A    between atoms: O_8  and  C_9
REMARK    5  A    between atoms: C_12  and  C_18
REMARK    6  A    between atoms: C_19  and  C_20
REMARK    7  A    between atoms: C_20  and  N_21
REMARK                            x       y       z     vdW  Elec       q    Type
REMARK                         _______ _______ _______ _____ _____    ______ ____
ROOT
ATOM      1  C   UNL     1       1.838   0.258   0.233  0.00  0.00    +0.186 C 
ENDROOT
BRANCH   1   2
ATOM      2  C   UNL     1       2.119  -1.226   0.196  0.00  0.00    +0.017 C 
ATOM      3  C   UNL     1       2.093  -1.891  -1.019  0.00  0.00    -0.001 C 
ATOM      4  C   UNL     1       2.398  -1.893   1.378  0.00  0.00    -0.001 C 
ATOM      5  C   UNL     1       2.352  -3.261  -1.053  0.00  0.00    -0.000 C 
ATOM      6  C   UNL     1       2.657  -3.263   1.344  0.00  0.00    -0.000 C 
ATOM      7  C   UNL     1       2.634  -3.947   0.129  0.00  0.00    -0.000 C 
ENDBRANCH   1   2
BRANCH   1   8
ATOM      8  O   UNL     1       0.923   0.559  -0.823  0.00  0.00    -0.475 OA
BRANCH   8   9
ATOM      9  C   UNL     1      -0.391   0.463  -0.570  0.00  0.00    +0.139 C 
ATOM     10  C   UNL     1      -1.198  -0.423  -1.303  0.00  0.00    +0.037 C 
ATOM     11  C   UNL     1      -0.989   1.245   0.431  0.00  0.00    +0.037 C 
ATOM     12  C   UNL     1      -3.143   0.260  -0.045  0.00  0.00    +0.072 C 
ATOM     13  C   UNL     1      -2.564  -0.524  -1.042  0.00  0.00    +0.007 C 
ATOM     14  C   UNL     1      -2.356   1.145   0.692  0.00  0.00    +0.007 C 
BRANCH  12  18
ATOM     15  F   UNL     1      -5.249  -0.752  -0.560  0.00  0.00    -0.166 F 
ATOM     16  F   UNL     1      -4.889  -0.233   1.514  0.00  0.00    -0.166 F 
ATOM     17  F   UNL     1      -5.263   1.334   0.053  0.00  0.00    -0.166 F 
ATOM     18  C   UNL     1      -4.604   0.152   0.235  0.00  0.00    +0.419 C 
ENDBRANCH  12  18
ENDBRANCH   8   9
ENDBRANCH   1   8
BRANCH   1  19
ATOM     19  C   UNL     1       3.092   1.134   0.074  0.00  0.00    +0.025 C 
BRANCH  19  20
ATOM     20  C   UNL     1       2.789   2.631   0.150  0.00  0.00    -0.078 C 
BRANCH  20  21
ATOM     21  N   UNL     1       4.015   3.402  -0.021  0.00  0.00    +0.382 N 
ATOM     22  C   UNL     1       3.737   4.831   0.009  0.00  0.00    -0.106 C 
ATOM     23  H   UNL     1       4.438   3.162  -0.917  0.00  0.00    -0.085 HD
ATOM     24  H   UNL     1       4.651   3.177   0.744  0.00  0.00    -0.085 HD
ENDBRANCH  20  21
ENDBRANCH  19  20
ENDBRANCH   1  19
TORSDOF 7
