REMARK  Name = 119607
REMARK  4 active torsions:
REMARK  status: ('A' for Active; 'I' for Inactive)
REMARK    1  A    between atoms: C_3  and  C_7
REMARK    2  A    between atoms: C_4  and  C_19
REMARK    3  A    between atoms: C_8  and  S_13
REMARK    4  A    between atoms: S_13  and  N_16
REMARK                            x       y       z     vdW  Elec       q    Type
REMARK                         _______ _______ _______ _____ _____    ______ ____
ROOT
ATOM      1  O   UNL     1      -2.805  -2.827   0.000  0.00  0.00    -0.358 OA
ATOM      2  N   UNL     1      -3.374  -1.559   0.000  0.00  0.00    -0.077 NA
ATOM      3  C   UNL     1      -1.108  -1.388   0.000  0.00  0.00    +0.054 A 
ATOM      4  C   UNL     1      -2.338  -0.716   0.000  0.00  0.00    +0.123 A 
ATOM      5  C   UNL     1      -1.452  -2.711   0.000  0.00  0.00    +0.155 A 
ATOM      6  C   UNL     1      -0.697  -3.972   0.000  0.00  0.00    +0.075 C 
ENDROOT
BRANCH   3   7
ATOM      7  C   UNL     1       0.246  -0.909   0.000  0.00  0.00    +0.004 C 
ATOM      8  C   UNL     1       2.876   0.023   0.000  0.00  0.00    +0.122 C 
ATOM      9  C   UNL     1       0.904  -0.676   1.208  0.00  0.00    +0.002 C 
ATOM     10  C   UNL     1       0.904  -0.676  -1.208  0.00  0.00    +0.002 C 
ATOM     11  C   UNL     1       2.219  -0.210   1.208  0.00  0.00    +0.020 C 
ATOM     12  C   UNL     1       2.219  -0.210  -1.208  0.00  0.00    +0.020 C 
BRANCH   8  13
ATOM     13  S   UNL     1       4.522   0.604   0.000  0.00  0.00    +0.057 S 
ATOM     14  O   UNL     1       5.145   0.221   1.259  0.00  0.00    -0.153 OA
ATOM     15  O   UNL     1       5.146   0.225  -1.260  0.00  0.00    -0.153 OA
BRANCH  13  16
ATOM     16  N   UNL     1       4.271   2.294   0.001  0.00  0.00    -0.203 NA
ATOM     17  H   UNL     1       5.172   2.771   0.000  0.00  0.00    +0.144 HD
ATOM     18  H   UNL     1       3.746   2.559   0.834  0.00  0.00    +0.144 HD
ENDBRANCH  13  16
ENDBRANCH   8  13
ENDBRANCH   3   7
BRANCH   4  19
ATOM     19  C   UNL     1      -2.563   0.707   0.000  0.00  0.00    +0.021 C 
ATOM     20  C   UNL     1      -2.671   1.392  -1.208  0.00  0.00    +0.002 C 
ATOM     21  C   UNL     1      -2.671   1.392   1.208  0.00  0.00    +0.002 C 
ATOM     22  C   UNL     1      -2.888   2.770  -1.208  0.00  0.00    +0.000 C 
ATOM     23  C   UNL     1      -2.888   2.770   1.208  0.00  0.00    +0.000 C 
ATOM     24  C   UNL     1      -2.997   3.459   0.000  0.00  0.00    +0.000 C 
ENDBRANCH   4  19
TORSDOF 4
