REMARK  Name = 15541
REMARK  5 active torsions:
REMARK  status: ('A' for Active; 'I' for Inactive)
REMARK    1  A    between atoms: C_7  and  N_17
REMARK    2  A    between atoms: C_8  and  O_25
REMARK    3  A    between atoms: C_9  and  N_21
REMARK    4  A    between atoms: C_10  and  O_27
REMARK    5  A    between atoms: C_11  and  O_29
REMARK                            x       y       z     vdW  Elec       q    Type
REMARK                         _______ _______ _______ _____ _____    ______ ____
ROOT
ATOM      1  O   UNL     1      -0.899  -1.075   0.095  0.00  0.00    -0.327 OA
ATOM      2  O   UNL     1      -0.581   1.413  -1.164  0.00  0.00    -0.324 OA
ATOM      3  O   UNL     1      -2.337   1.550   0.407  0.00  0.00    -0.329 OA
ATOM      4  O   UNL     1      -3.832  -2.052  -0.591  0.00  0.00    -0.291 OA
ATOM      5  C   UNL     1       0.397  -0.613  -0.309  0.00  0.00    +0.131 C 
ATOM      6  C   UNL     1       0.398   0.915  -0.239  0.00  0.00    +0.168 C 
ATOM      7  C   UNL     1       1.474  -1.194   0.618  0.00  0.00    -0.006 C 
ATOM      8  C   UNL     1       1.768   1.506  -0.586  0.00  0.00    +0.123 C 
ATOM      9  C   UNL     1       2.863   0.900   0.312  0.00  0.00    -0.006 C 
ATOM     10  C   UNL     1       2.863  -0.640   0.253  0.00  0.00    +0.077 C 
ATOM     11  C   UNL     1      -1.923  -0.580  -0.771  0.00  0.00    +0.291 C 
ATOM     12  C   UNL     1      -1.904   0.958  -0.824  0.00  0.00    +0.296 C 
ATOM     13  C   UNL     1      -3.228  -1.068  -0.165  0.00  0.00    +0.209 C 
ATOM     14  C   UNL     1      -3.670   1.172   0.757  0.00  0.00    +0.126 C 
ATOM     15  C   UNL     1      -3.713  -0.321   1.054  0.00  0.00    +0.099 C 
ATOM     16  C   UNL     1      -4.076   1.982   1.980  0.00  0.00    +0.033 C 
ENDROOT
BRANCH   7  17
ATOM     17  N   UNL     1       1.474  -2.657   0.530  0.00  0.00    +0.387 N 
ATOM     18  C   UNL     1       2.483  -3.221   1.411  0.00  0.00    -0.105 C 
ATOM     19  H   UNL     1       1.675  -2.935  -0.430  0.00  0.00    -0.084 HD
ATOM     20  H   UNL     1       0.558  -3.005   0.814  0.00  0.00    -0.084 HD
ENDBRANCH   7  17
BRANCH   9  21
ATOM     21  N   UNL     1       4.181   1.412  -0.075  0.00  0.00    +0.387 N 
ATOM     22  C   UNL     1       5.210   0.903   0.815  0.00  0.00    -0.105 C 
ATOM     23  H   UNL     1       4.172   2.431  -0.029  0.00  0.00    -0.084 HD
ATOM     24  H   UNL     1       4.387   1.105  -1.026  0.00  0.00    -0.084 HD
ENDBRANCH   9  21
BRANCH   8  25
ATOM     25  O   UNL     1       1.690   2.916  -0.362  0.00  0.00    -0.384 OA
ATOM     26  H   UNL     1       1.000   3.296  -0.928  0.00  0.00    +0.210 HD
ENDBRANCH   8  25
BRANCH  10  27
ATOM     27  O   UNL     1       3.201  -1.068  -1.070  0.00  0.00    -0.388 OA
ATOM     28  H   UNL     1       3.201  -2.037  -1.107  0.00  0.00    +0.210 HD
ENDBRANCH  10  27
BRANCH  11  29
ATOM     29  O   UNL     1      -1.839  -1.139  -2.076  0.00  0.00    -0.355 OA
ATOM     30  H   UNL     1      -1.015  -0.850  -2.499  0.00  0.00    +0.213 HD
ENDBRANCH  11  29
TORSDOF 5
