REMARK  Name = 2910
REMARK  3 active torsions:
REMARK  status: ('A' for Active; 'I' for Inactive)
REMARK    1  A    between atoms: C_7  and  C_16
REMARK    2  A    between atoms: C_12  and  S_23
REMARK    3  A    between atoms: S_23  and  N_26
REMARK                            x       y       z     vdW  Elec       q    Type
REMARK                         _______ _______ _______ _____ _____    ______ ____
ROOT
ATOM      1 CL   UNL     1      -3.672  -2.941  -0.133  0.00  0.00    -0.081 Cl
ATOM      2  S   UNL     1       0.009   2.120   0.067  0.00  0.00    +0.063 S 
ATOM      3  O   UNL     1       0.230   2.432   1.465  0.00  0.00    -0.153 OA
ATOM      4  O   UNL     1      -0.567   3.086  -0.847  0.00  0.00    -0.153 OA
ATOM      5  N   UNL     1       1.451   1.518  -0.624  0.00  0.00    -0.163 NA
ATOM      6  N   UNL     1       0.946  -0.823  -0.205  0.00  0.00    -0.320 N 
ATOM      7  C   UNL     1       1.926   0.237  -0.053  0.00  0.00    +0.147 C 
ATOM      8  C   UNL     1      -0.418  -0.598  -0.088  0.00  0.00    +0.065 C 
ATOM      9  C   UNL     1      -1.001   0.673   0.035  0.00  0.00    +0.136 C 
ATOM     10  C   UNL     1      -1.292  -1.696  -0.144  0.00  0.00    +0.028 C 
ATOM     11  C   UNL     1      -2.385   0.854   0.112  0.00  0.00    +0.042 C 
ATOM     12  C   UNL     1      -3.223  -0.256   0.066  0.00  0.00    +0.134 C 
ATOM     13  C   UNL     1      -2.678  -1.530  -0.063  0.00  0.00    +0.078 C 
ATOM     14  H   UNL     1       2.183   2.215  -0.489  0.00  0.00    +0.151 HD
ATOM     15  H   UNL     1       1.261  -1.736  -0.397  0.00  0.00    +0.148 HD
ENDROOT
BRANCH   7  16
ATOM     16  C   UNL     1       3.218  -0.159  -0.757  0.00  0.00    +0.035 C 
ATOM     17  C   UNL     1       3.912  -1.429  -0.196  0.00  0.00    +0.003 C 
ATOM     18  C   UNL     1       5.544   0.095  -0.114  0.00  0.00    +0.000 C 
ATOM     19  C   UNL     1       4.345   0.914  -0.643  0.00  0.00    +0.003 C 
ATOM     20  C   UNL     1       5.315  -1.258  -0.793  0.00  0.00    +0.000 C 
ATOM     21  C   UNL     1       4.259  -1.223   1.260  0.00  0.00    +0.000 C 
ATOM     22  C   UNL     1       5.235  -0.304   1.309  0.00  0.00    +0.000 C 
ENDBRANCH   7  16
BRANCH  12  23
ATOM     23  S   UNL     1      -4.951   0.013   0.169  0.00  0.00    +0.058 S 
ATOM     24  O   UNL     1      -5.522  -1.218   0.708  0.00  0.00    -0.153 OA
ATOM     25  O   UNL     1      -5.103   1.272   0.889  0.00  0.00    -0.153 OA
BRANCH  23  26
ATOM     26  N   UNL     1      -5.577   0.223  -1.419  0.00  0.00    -0.203 NA
ATOM     27  H   UNL     1      -6.583   0.380  -1.370  0.00  0.00    +0.144 HD
ATOM     28  H   UNL     1      -5.389  -0.614  -1.972  0.00  0.00    +0.144 HD
ENDBRANCH  23  26
ENDBRANCH  12  23
TORSDOF 3
