REMARK  Name = 6256
REMARK  5 active torsions:
REMARK  status: ('A' for Active; 'I' for Inactive)
REMARK    1  A    between atoms: N_3  and  C1*_11
REMARK    2  A    between atoms: C_7  and  C_23
REMARK    3  A    between atoms: C3*_12  and  O3*_15
REMARK    4  A    between atoms: C4*_14  and  C5*_17
REMARK    5  A    between atoms: C5*_17  and  O5*_18
REMARK                            x       y       z     vdW  Elec       q    Type
REMARK                         _______ _______ _______ _____ _____    ______ ____
ROOT
ATOM      1  O   UNL     1       0.216  -3.372   0.304  0.00  0.00    -0.252 OA
ATOM      2  O   UNL     1      -3.794  -1.161  -0.113  0.00  0.00    -0.270 OA
ATOM      3  N   UNL     1       0.256  -1.041   0.198  0.00  0.00    -0.219 N 
ATOM      4  N   UNL     1      -1.777  -2.257   0.095  0.00  0.00    -0.236 N 
ATOM      5  C   UNL     1      -0.491   0.125   0.084  0.00  0.00    +0.080 C 
ATOM      6  C   UNL     1      -0.383  -2.299   0.207  0.00  0.00    +0.315 C 
ATOM      7  C   UNL     1      -1.825   0.162  -0.023  0.00  0.00    +0.140 C 
ATOM      8  C   UNL     1      -2.570  -1.125  -0.020  0.00  0.00    +0.258 C 
ATOM      9  H   UNL     1      -2.245  -3.123   0.099  0.00  0.00    +0.159 HD
ENDROOT
BRANCH   3  11
ATOM     10  O4* UNL     1       2.013   0.272   1.012  0.00  0.00    -0.335 OA
ATOM     11  C1* UNL     1       1.681  -0.931   0.304  0.00  0.00    +0.202 C 
ATOM     12  C3* UNL     1       3.561   0.022  -0.767  0.00  0.00    +0.144 C 
ATOM     13  C2* UNL     1       2.371  -0.866  -1.049  0.00  0.00    +0.083 C 
ATOM     14  C4* UNL     1       3.029   0.988   0.283  0.00  0.00    +0.173 C 
BRANCH  12  15
ATOM     15  O3* UNL     1       4.622  -0.756  -0.218  0.00  0.00    -0.382 OA
ATOM     16  H3* UNL     1       4.955  -1.369  -0.892  0.00  0.00    +0.210 HD
ENDBRANCH  12  15
BRANCH  14  17
ATOM     17  C5* UNL     1       2.385   2.228  -0.324  0.00  0.00    +0.169 C 
BRANCH  17  18
ATOM     18  O5* UNL     1       1.912   3.058   0.724  0.00  0.00    -0.379 OA
ATOM     19  H5* UNL     1       1.500   3.851   0.347  0.00  0.00    +0.211 HD
ENDBRANCH  17  18
ENDBRANCH  14  17
ENDBRANCH   3  11
BRANCH   7  23
ATOM     20  F   UNL     1      -1.798   2.506  -0.132  0.00  0.00    -0.166 F 
ATOM     21  F   UNL     1      -3.313   1.457  -1.296  0.00  0.00    -0.166 F 
ATOM     22  F   UNL     1      -3.486   1.561   0.875  0.00  0.00    -0.166 F 
ATOM     23  C   UNL     1      -2.610   1.428  -0.144  0.00  0.00    +0.424 C 
ENDBRANCH   7  23
TORSDOF 5
