REMARK  Name = 5281077
REMARK  4 active torsions:
REMARK  status: ('A' for Active; 'I' for Inactive)
REMARK    1  A    between atoms: C_1  and  C_3
REMARK    2  A    between atoms: C_1  and  O_5
REMARK    3  A    between atoms: C_1  and  C_7
REMARK    4  A    between atoms: C_1  and  C_9
REMARK                            x       y       z     vdW  Elec       q    Type
REMARK                         _______ _______ _______ _____ _____    ______ ____
ROOT
ATOM      1  C   UNL     1      -0.576   0.097  -0.151  0.00  0.00    +0.162 C 
ENDROOT
BRANCH   1   3
ATOM      2 CL   UNL     1       3.432  -0.780   0.329  0.00  0.00    -0.082 Cl
ATOM      3  C   UNL     1       0.797  -0.262   0.377  0.00  0.00    +0.025 C 
ATOM      4  C   UNL     1       1.916  -0.359  -0.350  0.00  0.00    +0.067 C 
ENDBRANCH   1   3
BRANCH   1   5
ATOM      5  O   UNL     1      -0.533   0.291  -1.566  0.00  0.00    -0.372 OA
ATOM      6  H   UNL     1       0.061   1.029  -1.774  0.00  0.00    +0.212 HD
ENDBRANCH   1   5
BRANCH   1   7
ATOM      7  C   UNL     1      -1.113   1.386   0.510  0.00  0.00    +0.044 C 
ATOM      8  C   UNL     1      -0.207   2.602   0.334  0.00  0.00    +0.004 C 
ENDBRANCH   1   7
BRANCH   1   9
ATOM      9  C   UNL     1      -1.486  -1.031   0.140  0.00  0.00    -0.048 C 
ATOM     10  C   UNL     1      -2.229  -1.944   0.376  0.00  0.00    -0.012 C 
ENDBRANCH   1   9
TORSDOF 4
