34359
  -OEChem-05161812523D

 30 30  0     1  0  0  0  0  0999 V2000
   -1.2387    1.1316    1.5740 O   0  0  0  0  0  0  0  0  0  0  0  0
   -2.4324    2.0075   -0.1335 O   0  0  0  0  0  0  0  0  0  0  0  0
    3.0852    1.9880   -0.4050 O   0  0  0  0  0  0  0  0  0  0  0  0
    4.3800   -0.2057    0.7057 O   0  0  0  0  0  0  0  0  0  0  0  0
   -3.3349   -0.5390   -0.7861 N   0  0  0  0  0  0  0  0  0  0  0  0
   -4.3376   -0.2742    0.1887 N   0  0  0  0  0  0  0  0  0  0  0  0
   -2.0251   -0.3993   -0.1321 C   0  0  2  0  0  0  0  0  0  0  0  0
   -0.9186   -0.6959   -1.1731 C   0  0  0  0  0  0  0  0  0  0  0  0
    0.5016   -0.5612   -0.6703 C   0  0  0  0  0  0  0  0  0  0  0  0
   -2.0090   -1.4089    1.0263 C   0  0  0  0  0  0  0  0  0  0  0  0
   -1.9378    1.0285    0.4142 C   0  0  0  0  0  0  0  0  0  0  0  0
    1.1415    0.6621   -0.7716 C   0  0  0  0  0  0  0  0  0  0  0  0
    1.1316   -1.6644   -0.1202 C   0  0  0  0  0  0  0  0  0  0  0  0
    2.4514    0.7862   -0.3085 C   0  0  0  0  0  0  0  0  0  0  0  0
    2.4414   -1.5403    0.3429 C   0  0  0  0  0  0  0  0  0  0  0  0
    3.1013   -0.3151    0.2488 C   0  0  0  0  0  0  0  0  0  0  0  0
   -1.0526   -1.7073   -1.5833 H   0  0  0  0  0  0  0  0  0  0  0  0
   -1.0360   -0.0236   -2.0359 H   0  0  0  0  0  0  0  0  0  0  0  0
   -2.2018   -2.4288    0.6708 H   0  0  0  0  0  0  0  0  0  0  0  0
   -2.7341   -1.1836    1.8178 H   0  0  0  0  0  0  0  0  0  0  0  0
   -1.0394   -1.4279    1.5354 H   0  0  0  0  0  0  0  0  0  0  0  0
   -3.4210    0.1206   -1.5587 H   0  0  0  0  0  0  0  0  0  0  0  0
    0.6395    1.5223   -1.2065 H   0  0  0  0  0  0  0  0  0  0  0  0
    0.6289   -2.6244   -0.0468 H   0  0  0  0  0  0  0  0  0  0  0  0
    2.9363   -2.4066    0.7740 H   0  0  0  0  0  0  0  0  0  0  0  0
   -4.4478    0.7325    0.3084 H   0  0  0  0  0  0  0  0  0  0  0  0
   -5.2340   -0.6045   -0.1669 H   0  0  0  0  0  0  0  0  0  0  0  0
   -1.1928    2.0584    1.8921 H   0  0  0  0  0  0  0  0  0  0  0  0
    3.9808    1.8920   -0.0372 H   0  0  0  0  0  0  0  0  0  0  0  0
    4.6655   -1.0665    1.0570 H   0  0  0  0  0  0  0  0  0  0  0  0
  1 11  1  0  0  0  0
  1 28  1  0  0  0  0
  2 11  2  0  0  0  0
  3 14  1  0  0  0  0
  3 29  1  0  0  0  0
  4 16  1  0  0  0  0
  4 30  1  0  0  0  0
  5  6  1  0  0  0  0
  5  7  1  0  0  0  0
  5 22  1  0  0  0  0
  6 26  1  0  0  0  0
  6 27  1  0  0  0  0
  7  8  1  0  0  0  0
  7 10  1  0  0  0  0
  7 11  1  0  0  0  0
  8  9  1  0  0  0  0
  8 17  1  0  0  0  0
  8 18  1  0  0  0  0
  9 12  2  0  0  0  0
  9 13  1  0  0  0  0
 10 19  1  0  0  0  0
 10 20  1  0  0  0  0
 10 21  1  0  0  0  0
 12 14  1  0  0  0  0
 12 23  1  0  0  0  0
 13 15  2  0  0  0  0
 13 24  1  0  0  0  0
 14 16  2  0  0  0  0
 15 16  1  0  0  0  0
 15 25  1  0  0  0  0
M  END
> <DATABASE_ID>
DB00190

> <DATABASE_NAME>
drugbank

> <ORIGINAL_SOURCE>
PUBCHEM

> <ORIGINAL_SOURCE_URL>
https://pubchem.ncbi.nlm.nih.gov/rest/pug/compound/inchikey/TZFNLOMSOLWIDK-JTQLQIEISA-N/SDF?record_type=3d

> <SMILES>
C[C@@](CC1=CC(O)=C(O)C=C1)(NN)C(O)=O

> <INCHI_IDENTIFIER>
InChI=1S/C10H14N2O4/c1-10(12-11,9(15)16)5-6-2-3-7(13)8(14)4-6/h2-4,12-14H,5,11H2,1H3,(H,15,16)/t10-/m0/s1

> <INCHI_KEY>
TZFNLOMSOLWIDK-JTQLQIEISA-N

> <FORMULA>
C10H14N2O4

> <MOLECULAR_WEIGHT>
226.2292

> <EXACT_MASS>
226.095356946

> <JCHEM_ACCEPTOR_COUNT>
6

> <JCHEM_ATOM_COUNT>
30

> <JCHEM_AVERAGE_POLARIZABILITY>
21.806808336346297

> <JCHEM_BIOAVAILABILITY>
1

> <JCHEM_DONOR_COUNT>
5

> <JCHEM_FORMAL_CHARGE>
0

> <JCHEM_GHOSE_FILTER>
0

> <JCHEM_IUPAC>
(2S)-3-(3,4-dihydroxyphenyl)-2-hydrazinyl-2-methylpropanoic acid

> <ALOGPS_LOGP>
-0.16

> <JCHEM_LOGP>
-1.2078362008406989

> <ALOGPS_LOGS>
-1.78

> <JCHEM_MDDR_LIKE_RULE>
0

> <JCHEM_NUMBER_OF_RINGS>
1

> <JCHEM_PHYSIOLOGICAL_CHARGE>
-1

> <JCHEM_PKA>
9.28650563164388

> <JCHEM_PKA_STRONGEST_ACIDIC>
2.3544595300449216

> <JCHEM_PKA_STRONGEST_BASIC>
5.663329899668677

> <JCHEM_POLAR_SURFACE_AREA>
115.80999999999999

> <JCHEM_REFRACTIVITY>
68.7683

> <JCHEM_ROTATABLE_BOND_COUNT>
4

> <JCHEM_RULE_OF_FIVE>
1

> <ALOGPS_SOLUBILITY>
3.73e+00 g/l

> <JCHEM_TRADITIONAL_IUPAC>
carbidopa

> <JCHEM_VEBER_RULE>
0

> <DRUGBANK_ID>
DB00190

> <SECONDARY_ACCESSION_NUMBERS>
APRD00160

> <DRUG_GROUPS>
approved

> <GENERIC_NAME>
Carbidopa

> <SYNONYMS>
(-)-L-alpha-Hydrazino-3,4-dihydroxy-alpha-methylhydrocinnamic acid monohydrate; (S)-(−)-carbidopa; (S)-carbidopa; (αS)-α-hydrazino-3,4-dihydroxy-α-methylbenzenepropanoic acid; Carbidopa; Carbidopa (anhydrous); Carbidopa anhydrous; Carbidopum; L-3-(3,4-dihydroxyphenyl)-2-methyl-2-hydrazinopropionic acid; L-α-methyldopahydrazine

> <PRODUCTS>
Apo-levocarb - Tab 10mg/100mg; Apo-levocarb - Tab 25mg/250mg; Apo-levocarb CR; Apo-levocarb-tab 25mg/100mg; Carbidopa; Carbidopa Tablets, 25 mg; Carbidopa and Levodopa; Carbidopa and levodopa; Carbidopa, Levodopa and Entacapone; Carbidopa, Levodopa, and Entacapone; Carbidopa, levodopa and entacapone; Dom-levo-carbidopa; Duodopa; Duopa; Lodosyn; Mint-levocarb; Nu-levocarb - Tab 10mg/100mg; Nu-levocarb - Tab 25 Mg/100 mg; Nu-levocarb - Tablets 25 Mg/250 mg; Numient; PMS-levocarb CR; Parcopa; Pro-lecarb-100/10 - Tab; Pro-lecarb-100/25 - Tab; Pro-levocarb - 100/25; Ratio-levodopa/carbidopa; Rytary; Sinemet; Sinemet 100/10; Sinemet 100/25; Sinemet 250/25; Sinemet CR; Sinemet CR 100/25; Sinemet CR 200/50; Stalevo; Teva-levocarbidopa

> <SALTS>
Carbidopa hydrate

$$$$
