REMARK  Name = 3658
REMARK  9 active torsions:
REMARK  status: ('A' for Active; 'I' for Inactive)
REMARK    1  A    between atoms: N_1  and  C_9
REMARK    2  A    between atoms: N_2  and  C_23
REMARK    3  A    between atoms: C_9  and  C_11
REMARK    4  A    between atoms: C_9  and  C_17
REMARK    5  A    between atoms: C_23  and  C_24
REMARK    6  A    between atoms: C_24  and  O_25
REMARK    7  A    between atoms: O_25  and  C_26
REMARK    8  A    between atoms: C_26  and  C_27
REMARK    9  A    between atoms: C_27  and  O_28
REMARK                            x       y       z     vdW  Elec       q    Type
REMARK                         _______ _______ _______ _____ _____    ______ ____
ROOT
ATOM      1  N   UNL     1      -0.413   0.509  -0.100  0.00  0.00    +0.390 N 
ATOM      2  N   UNL     1       2.454   0.772  -0.363  0.00  0.00    +0.386 N 
ATOM      3  C   UNL     1       0.428  -0.640  -0.455  0.00  0.00    -0.100 C 
ATOM      4  C   UNL     1       0.198   1.757  -0.575  0.00  0.00    -0.100 C 
ATOM      5  C   UNL     1       1.843  -0.476   0.111  0.00  0.00    -0.101 C 
ATOM      6  C   UNL     1       1.612   1.921  -0.009  0.00  0.00    -0.101 C 
ATOM      7  H   UNL     1      -0.485   0.553   0.917  0.00  0.00    -0.079 HD
ATOM      8  H   UNL     1       2.527   0.728  -1.379  0.00  0.00    -0.080 HD
ENDROOT
BRANCH   1   9
ATOM      9  C   UNL     1      -1.762   0.352  -0.641  0.00  0.00    -0.012 C 
BRANCH   9  11
ATOM     10 CL   UNL     1      -4.132  -5.011   0.638  0.00  0.00    -0.082 Cl
ATOM     11  C   UNL     1      -2.362  -1.008  -0.316  0.00  0.00    -0.038 C 
ATOM     12  C   UNL     1      -2.163  -2.052  -1.196  0.00  0.00    -0.005 C 
ATOM     13  C   UNL     1      -3.087  -1.156   0.848  0.00  0.00    -0.005 C 
ATOM     14  C   UNL     1      -2.715  -3.298  -0.899  0.00  0.00    +0.011 C 
ATOM     15  C   UNL     1      -3.638  -2.402   1.145  0.00  0.00    +0.011 C 
ATOM     16  C   UNL     1      -3.452  -3.474   0.272  0.00  0.00    +0.058 C 
ENDBRANCH   9  11
BRANCH   9  17
ATOM     17  C   UNL     1      -2.686   1.491  -0.235  0.00  0.00    -0.038 C 
ATOM     18  C   UNL     1      -3.711   1.853  -1.085  0.00  0.00    -0.006 C 
ATOM     19  C   UNL     1      -2.471   2.127   0.971  0.00  0.00    -0.006 C 
ATOM     20  C   UNL     1      -4.559   2.897  -0.712  0.00  0.00    -0.000 C 
ATOM     21  C   UNL     1      -3.319   3.170   1.343  0.00  0.00    -0.000 C 
ATOM     22  C   UNL     1      -4.362   3.555   0.502  0.00  0.00    -0.000 C 
ENDBRANCH   9  17
ENDBRANCH   1   9
BRANCH   2  23
ATOM     23  C   UNL     1       3.802   0.929   0.180  0.00  0.00    -0.045 C 
BRANCH  23  24
ATOM     24  C   UNL     1       4.683  -0.242  -0.224  0.00  0.00    +0.120 C 
BRANCH  24  25
ATOM     25  O   UNL     1       5.985  -0.040   0.310  0.00  0.00    -0.353 OA
BRANCH  25  26
ATOM     26  C   UNL     1       6.861  -1.104  -0.035  0.00  0.00    +0.174 C 
BRANCH  26  27
ATOM     27  C   UNL     1       8.235  -0.820   0.541  0.00  0.00    +0.169 C 
BRANCH  27  28
ATOM     28  O   UNL     1       8.731   0.391  -0.016  0.00  0.00    -0.379 OA
ATOM     29  H   UNL     1       9.610   0.579   0.348  0.00  0.00    +0.211 HD
ENDBRANCH  27  28
ENDBRANCH  26  27
ENDBRANCH  25  26
ENDBRANCH  24  25
ENDBRANCH  23  24
ENDBRANCH   2  23
TORSDOF 9
