REMARK  Name = 5333
REMARK  3 active torsions:
REMARK  status: ('A' for Active; 'I' for Inactive)
REMARK    1  A    between atoms: C_1  and  S_7
REMARK    2  A    between atoms: C_4  and  N_13
REMARK    3  A    between atoms: S_7  and  N_10
REMARK                            x       y       z     vdW  Elec       q    Type
REMARK                         _______ _______ _______ _____ _____    ______ ____
ROOT
ATOM      1  C   UNL     1       0.393   0.000   0.058  0.00  0.00    +0.122 C 
ATOM      2  C   UNL     1      -0.304   1.208   0.040  0.00  0.00    +0.021 C 
ATOM      3  C   UNL     1      -0.304  -1.208   0.041  0.00  0.00    +0.021 C 
ATOM      4  C   UNL     1      -2.396   0.000  -0.012  0.00  0.00    +0.042 C 
ATOM      5  C   UNL     1      -1.699   1.208   0.005  0.00  0.00    +0.015 C 
ATOM      6  C   UNL     1      -1.699  -1.208   0.006  0.00  0.00    +0.015 C 
ENDROOT
BRANCH   1   7
ATOM      7  S   UNL     1       2.138   0.000   0.104  0.00  0.00    +0.057 S 
ATOM      8  O   UNL     1       2.583   1.260   0.683  0.00  0.00    -0.153 OA
ATOM      9  O   UNL     1       2.586  -1.260   0.681  0.00  0.00    -0.153 OA
BRANCH   7  10
ATOM     10  N   UNL     1       2.507   0.000  -1.565  0.00  0.00    -0.203 NA
ATOM     11  H   UNL     1       3.520   0.000  -1.689  0.00  0.00    +0.144 HD
ATOM     12  H   UNL     1       2.111   0.833  -2.000  0.00  0.00    +0.144 HD
ENDBRANCH   7  10
ENDBRANCH   1   7
BRANCH   4  13
ATOM     13  N   UNL     1      -3.806  -0.001  -0.044  0.00  0.00    -0.357 N 
ATOM     14  H   UNL     1      -4.298   0.852  -0.057  0.00  0.00    +0.142 HD
ATOM     15  H   UNL     1      -4.298  -0.853  -0.054  0.00  0.00    +0.142 HD
ENDBRANCH   4  13
TORSDOF 3
