REMARK  Name = 8271
REMARK  2 active torsions:
REMARK  status: ('A' for Active; 'I' for Inactive)
REMARK    1  A    between atoms: C_6  and  C_12
REMARK    2  A    between atoms: C_6  and  C_18
REMARK                            x       y       z     vdW  Elec       q    Type
REMARK                         _______ _______ _______ _____ _____    ______ ____
ROOT
ATOM      1  O   UNL     1      -1.166   0.107   2.310  0.00  0.00    -0.274 OA
ATOM      2  O   UNL     1      -0.373   2.099  -1.791  0.00  0.00    -0.274 OA
ATOM      3  O   UNL     1      -2.667  -1.844  -1.633  0.00  0.00    -0.252 OA
ATOM      4  N   UNL     1      -1.831  -0.992   0.372  0.00  0.00    -0.212 N 
ATOM      5  N   UNL     1      -1.422   0.068  -1.696  0.00  0.00    -0.239 N 
ATOM      6  C   UNL     1      -0.102   0.785   0.242  0.00  0.00    +0.157 C 
ATOM      7  C   UNL     1      -1.090  -0.036   1.087  0.00  0.00    +0.244 C 
ATOM      8  C   UNL     1      -0.644   1.078  -1.159  0.00  0.00    +0.241 C 
ATOM      9  C   UNL     1      -2.006  -1.000  -1.023  0.00  0.00    +0.316 C 
ATOM     10  C   UNL     1      -2.574  -1.983   1.142  0.00  0.00    +0.124 C 
ATOM     11  H   UNL     1      -1.582   0.111  -2.667  0.00  0.00    +0.159 HD
ENDROOT
BRANCH   6  12
ATOM     12  C   UNL     1       1.269   0.083   0.116  0.00  0.00    -0.006 C 
ATOM     13  C   UNL     1       2.314   0.730  -0.531  0.00  0.00    -0.003 C 
ATOM     14  C   UNL     1       1.442  -1.187   0.651  0.00  0.00    -0.003 C 
ATOM     15  C   UNL     1       3.552   0.097  -0.645  0.00  0.00    -0.000 C 
ATOM     16  C   UNL     1       2.679  -1.820   0.538  0.00  0.00    -0.000 C 
ATOM     17  C   UNL     1       3.734  -1.178  -0.110  0.00  0.00    -0.000 C 
ENDBRANCH   6  12
BRANCH   6  18
ATOM     18  C   UNL     1       0.101   2.135   0.974  0.00  0.00    +0.022 C 
ATOM     19  C   UNL     1      -1.215   2.858   1.158  0.00  0.00    +0.001 C 
ENDBRANCH   6  18
TORSDOF 2
