REMARK  Name = 2477
REMARK  5 active torsions:
REMARK  status: ('A' for Active; 'I' for Inactive)
REMARK    1  A    between atoms: C_1  and  C_2
REMARK    2  A    between atoms: C_1  and  C_16
REMARK    3  A    between atoms: C_2  and  C_3
REMARK    4  A    between atoms: C_3  and  N_6
REMARK    5  A    between atoms: C_16  and  N_17
REMARK                            x       y       z     vdW  Elec       q    Type
REMARK                         _______ _______ _______ _____ _____    ______ ____
ROOT
ATOM      1  C   UNL     1      -0.157  -0.371  -0.365  0.00  0.00    -0.021 C 
ENDROOT
BRANCH   1   2
ATOM      2  C   UNL     1       1.271  -0.553   0.162  0.00  0.00    +0.020 C 
BRANCH   2   3
ATOM      3  C   UNL     1       2.314   0.113  -0.729  0.00  0.00    +0.101 C 
BRANCH   3   6
ATOM      4  O   UNL     1       3.496   1.820   1.109  0.00  0.00    -0.274 OA
ATOM      5  O   UNL     1       3.862  -2.101  -1.397  0.00  0.00    -0.274 OA
ATOM      6  N   UNL     1       3.673  -0.082  -0.235  0.00  0.00    -0.230 N 
ATOM      7  C   UNL     1       6.450  -0.100   0.174  0.00  0.00    +0.017 C 
ATOM      8  C   UNL     1       6.780   0.714  -1.089  0.00  0.00    +0.001 C 
ATOM      9  C   UNL     1       7.857  -0.337   0.750  0.00  0.00    +0.001 C 
ATOM     10  C   UNL     1       7.925   1.639  -0.680  0.00  0.00    +0.000 C 
ATOM     11  C   UNL     1       8.609   0.969   0.510  0.00  0.00    +0.000 C 
ATOM     12  C   UNL     1       5.574   0.668   1.166  0.00  0.00    +0.086 C 
ATOM     13  C   UNL     1       5.752  -1.419  -0.130  0.00  0.00    +0.086 C 
ATOM     14  C   UNL     1       4.161   0.878   0.670  0.00  0.00    +0.231 C 
ATOM     15  C   UNL     1       4.353  -1.234  -0.670  0.00  0.00    +0.231 C 
ENDBRANCH   3   6
ENDBRANCH   2   3
ENDBRANCH   1   2
BRANCH   1  16
ATOM     16  C   UNL     1      -1.170  -1.079   0.535  0.00  0.00    -0.077 C 
BRANCH  16  17
ATOM     17  N   UNL     1      -2.524  -0.901   0.012  0.00  0.00    +0.389 N 
ATOM     18  N   UNL     1      -5.262  -0.090   0.087  0.00  0.00    -0.257 N 
ATOM     19  N   UNL     1      -6.963   1.332  -0.725  0.00  0.00    -0.181 NA
ATOM     20  N   UNL     1      -7.500  -0.544   0.688  0.00  0.00    -0.203 NA
ATOM     21  C   UNL     1      -2.879   0.523  -0.025  0.00  0.00    -0.055 C 
ATOM     22  C   UNL     1      -3.494  -1.636   0.834  0.00  0.00    -0.055 C 
ATOM     23  C   UNL     1      -4.273   0.728  -0.623  0.00  0.00    +0.079 C 
ATOM     24  C   UNL     1      -4.908  -1.504   0.264  0.00  0.00    +0.079 C 
ATOM     25  C   UNL     1      -6.619   0.244   0.014  0.00  0.00    +0.090 C 
ATOM     26  C   UNL     1      -8.279   1.625  -0.774  0.00  0.00    +0.108 C 
ATOM     27  C   UNL     1      -8.800  -0.194   0.596  0.00  0.00    +0.165 C 
ATOM     28  C   UNL     1      -9.252   0.891  -0.127  0.00  0.00    +0.022 C 
ATOM     29  H   UNL     1      -2.549  -1.271  -0.938  0.00  0.00    -0.080 HD
ENDBRANCH  16  17
ENDBRANCH   1  16
TORSDOF 5
