REMARK  Name = 5479
REMARK  5 active torsions:
REMARK  status: ('A' for Active; 'I' for Inactive)
REMARK    1  A    between atoms: N_1  and  C_10
REMARK    2  A    between atoms: C_4  and  N_9
REMARK    3  A    between atoms: C_10  and  C_11
REMARK    4  A    between atoms: C_11  and  S_12
REMARK    5  A    between atoms: S_12  and  C_15
REMARK                            x       y       z     vdW  Elec       q    Type
REMARK                         _______ _______ _______ _____ _____    ______ ____
ROOT
ATOM      1  N   UNL     1      -1.315  -0.510   0.221  0.00  0.00    -0.254 N 
ATOM      2  N   UNL     1      -3.133  -1.558  -0.467  0.00  0.00    -0.230 NA
ATOM      3  C   UNL     1      -1.906  -1.710  -0.019  0.00  0.00    +0.114 C 
ATOM      4  C   UNL     1      -2.202   0.473  -0.085  0.00  0.00    +0.218 C 
ATOM      5  C   UNL     1      -3.324  -0.200  -0.510  0.00  0.00    +0.140 C 
ATOM      6  C   UNL     1      -1.219  -2.997   0.209  0.00  0.00    +0.069 C 
ENDROOT
BRANCH   4   9
ATOM      7  O   UNL     1      -2.827   2.682  -0.269  0.00  0.00    -0.125 OA
ATOM      8  O   UNL     1      -0.805   2.219   0.464  0.00  0.00    -0.125 OA
ATOM      9  N   UNL     1      -1.935   1.841   0.041  0.00  0.00    +0.074 N 
ENDBRANCH   4   9
BRANCH   1  10
ATOM     10  C   UNL     1       0.041  -0.316   0.725  0.00  0.00    +0.124 C 
BRANCH  10  11
ATOM     11  C   UNL     1       1.088  -0.208  -0.374  0.00  0.00    +0.173 C 
BRANCH  11  12
ATOM     12  S   UNL     1       2.726  -0.027   0.259  0.00  0.00    -0.008 S 
ATOM     13  O   UNL     1       2.813   1.256   0.937  0.00  0.00    -0.173 OA
ATOM     14  O   UNL     1       3.085  -1.254   0.949  0.00  0.00    -0.173 OA
BRANCH  12  15
ATOM     15  C   UNL     1       3.725   0.074  -1.209  0.00  0.00    +0.151 C 
ATOM     16  C   UNL     1       5.190   0.235  -0.873  0.00  0.00    +0.027 C 
ENDBRANCH  12  15
ENDBRANCH  11  12
ENDBRANCH  10  11
ENDBRANCH   1  10
TORSDOF 5
