REMARK  Name = 16960
REMARK  5 active torsions:
REMARK  status: ('A' for Active; 'I' for Inactive)
REMARK    1  A    between atoms: C_1  and  C_3
REMARK    2  A    between atoms: C_1  and  C_10
REMARK    3  A    between atoms: C_1  and  C_15
REMARK    4  A    between atoms: C_15  and  C_16
REMARK    5  A    between atoms: C_16  and  N_17
REMARK                            x       y       z     vdW  Elec       q    Type
REMARK                         _______ _______ _______ _____ _____    ______ ____
ROOT
ATOM      1  C   UNL     1      -0.299   0.447  -0.060  0.00  0.00    +0.060 C 
ENDROOT
BRANCH   1   3
ATOM      2 BR   UNL     1       5.868   0.252  -0.151  0.00  0.00    -0.049 Br
ATOM      3  C   UNL     1       1.226   0.399  -0.084  0.00  0.00    -0.017 C 
ATOM      4  C   UNL     1       1.864   0.173  -1.284  0.00  0.00    -0.003 C 
ATOM      5  C   UNL     1       1.912   0.584   1.097  0.00  0.00    -0.003 C 
ATOM      6  C   UNL     1       3.259   0.129  -1.304  0.00  0.00    +0.006 C 
ATOM      7  C   UNL     1       3.306   0.540   1.076  0.00  0.00    +0.006 C 
ATOM      8  C   UNL     1       3.979   0.312  -0.124  0.00  0.00    +0.035 C 
ENDBRANCH   1   3
BRANCH   1  10
ATOM      9  N   UNL     1      -0.619  -1.681   1.049  0.00  0.00    -0.248 NA
ATOM     10  C   UNL     1      -0.895  -0.955  -0.040  0.00  0.00    +0.063 C 
ATOM     11  C   UNL     1      -1.648  -1.354  -1.114  0.00  0.00    +0.015 C 
ATOM     12  C   UNL     1      -2.177  -2.639  -1.065  0.00  0.00    +0.003 C 
ATOM     13  C   UNL     1      -1.151  -2.924   1.062  0.00  0.00    +0.098 C 
ATOM     14  C   UNL     1      -1.929  -3.445   0.040  0.00  0.00    +0.021 C 
ENDBRANCH   1  10
BRANCH   1  15
ATOM     15  C   UNL     1      -0.862   1.379   1.045  0.00  0.00    -0.012 C 
BRANCH  15  16
ATOM     16  C   UNL     1      -2.392   1.474   1.010  0.00  0.00    -0.077 C 
BRANCH  16  17
ATOM     17  N   UNL     1      -2.835   1.987  -0.282  0.00  0.00    +0.384 N 
ATOM     18  C   UNL     1      -2.314   3.336  -0.507  0.00  0.00    -0.101 C 
ATOM     19  C   UNL     1      -4.296   1.986  -0.363  0.00  0.00    -0.101 C 
ATOM     20  H   UNL     1      -2.470   1.373  -1.011  0.00  0.00    -0.080 HD
ENDBRANCH  16  17
ENDBRANCH  15  16
ENDBRANCH   1  15
TORSDOF 5
