REMARK  Name = 33624
REMARK  7 active torsions:
REMARK  status: ('A' for Active; 'I' for Inactive)
REMARK    1  A    between atoms: O_1  and  C_12
REMARK    2  A    between atoms: O_1  and  C_13
REMARK    3  A    between atoms: C_13  and  C_14
REMARK    4  A    between atoms: C_14  and  O_15
REMARK    5  A    between atoms: C_14  and  C_17
REMARK    6  A    between atoms: C_17  and  N_18
REMARK    7  A    between atoms: N_18  and  C_21
REMARK                            x       y       z     vdW  Elec       q    Type
REMARK                         _______ _______ _______ _____ _____    ______ ____
ROOT
ATOM      1  O   UNL     1       0.141  -1.008   0.646  0.00  0.00    -0.455 OA
ENDROOT
BRANCH   1  12
ATOM      2  S   UNL     1       2.542  -3.144  -1.147  0.00  0.00    +0.121 S 
ATOM      3  O   UNL     1       2.713   3.223   0.363  0.00  0.00    -0.350 OA
ATOM      4  N   UNL     1       2.454   0.509  -0.333  0.00  0.00    -0.284 N 
ATOM      5  N   UNL     1       3.201  -1.602  -1.193  0.00  0.00    -0.172 NA
ATOM      6  N   UNL     1       1.129  -2.843  -0.292  0.00  0.00    -0.153 NA
ATOM      7  C   UNL     1       1.376   1.457  -0.637  0.00  0.00    +0.124 C 
ATOM      8  C   UNL     1       3.781   1.128  -0.215  0.00  0.00    +0.124 C 
ATOM      9  C   UNL     1       1.421   2.613   0.357  0.00  0.00    +0.164 C 
ATOM     10  C   UNL     1       3.713   2.288   0.770  0.00  0.00    +0.164 C 
ATOM     11  C   UNL     1       2.316  -0.846  -0.539  0.00  0.00    +0.195 A 
ATOM     12  C   UNL     1       1.189  -1.543  -0.053  0.00  0.00    +0.266 A 
ENDBRANCH   1  12
BRANCH   1  13
ATOM     13  C   UNL     1      -0.893  -1.908   1.037  0.00  0.00    +0.234 C 
BRANCH  13  14
ATOM     14  C   UNL     1      -1.954  -1.132   1.815  0.00  0.00    +0.133 C 
BRANCH  14  15
ATOM     15  O   UNL     1      -1.351  -0.584   2.990  0.00  0.00    -0.383 OA
ATOM     16  H   UNL     1      -2.015  -0.089   3.494  0.00  0.00    +0.210 HD
ENDBRANCH  14  15
BRANCH  14  17
ATOM     17  C   UNL     1      -2.571   0.017   1.015  0.00  0.00    -0.048 C 
BRANCH  17  18
ATOM     18  N   UNL     1      -3.264  -0.454  -0.173  0.00  0.00    +0.388 N 
ATOM     19  H   UNL     1      -2.603  -0.948  -0.772  0.00  0.00    -0.084 HD
ATOM     20  H   UNL     1      -4.018  -1.079   0.112  0.00  0.00    -0.084 HD
BRANCH  18  21
ATOM     21  C   UNL     1      -3.838   0.673  -0.915  0.00  0.00    -0.046 C 
ATOM     22  C   UNL     1      -2.715   1.625  -1.345  0.00  0.00    -0.022 C 
ATOM     23  C   UNL     1      -4.829   1.405  -0.003  0.00  0.00    -0.022 C 
ATOM     24  C   UNL     1      -4.564   0.126  -2.149  0.00  0.00    -0.022 C 
ENDBRANCH  18  21
ENDBRANCH  17  18
ENDBRANCH  14  17
ENDBRANCH  13  14
ENDBRANCH   1  13
TORSDOF 7
