REMARK  Name = 4064
REMARK  8 active torsions:
REMARK  status: ('A' for Active; 'I' for Inactive)
REMARK    1  A    between atoms: C_1  and  C_3
REMARK    2  A    between atoms: C_1  and  C_6
REMARK    3  A    between atoms: C_1  and  C_13
REMARK    4  A    between atoms: C_3  and  C_4
REMARK    5  A    between atoms: C_6  and  O_7
REMARK    6  A    between atoms: O_7  and  C_10
REMARK    7  A    between atoms: C_13  and  O_14
REMARK    8  A    between atoms: O_14  and  C_17
REMARK                            x       y       z     vdW  Elec       q    Type
REMARK                         _______ _______ _______ _____ _____    ______ ____
ROOT
ATOM      1  C   UNL     1      -0.254  -1.002   0.386  0.00  0.00    +0.081 C 
ATOM      2  C   UNL     1       0.025  -1.826   1.659  0.00  0.00    +0.007 C 
ENDROOT
BRANCH   1   3
ATOM      3  C   UNL     1      -1.318  -1.709  -0.505  0.00  0.00    +0.007 C 
BRANCH   3   4
ATOM      4  C   UNL     1      -2.701  -1.890   0.132  0.00  0.00    +0.000 C 
ATOM      5  C   UNL     1      -3.674  -2.541  -0.842  0.00  0.00    +0.000 C 
ENDBRANCH   3   4
ENDBRANCH   1   3
BRANCH   1   6
ATOM      6  C   UNL     1      -0.715   0.412   0.815  0.00  0.00    +0.213 C 
BRANCH   6   7
ATOM      7  O   UNL     1      -1.000   1.235  -0.308  0.00  0.00    -0.435 OA
BRANCH   7  10
ATOM      8  O   UNL     1      -1.555   2.973   1.096  0.00  0.00    -0.227 OA
ATOM      9  N   UNL     1      -1.661   3.205  -1.190  0.00  0.00    -0.295 N 
ATOM     10  C   UNL     1      -1.417   2.510  -0.031  0.00  0.00    +0.398 C 
ATOM     11  H   UNL     1      -1.529   2.770  -2.062  0.00  0.00    +0.148 HD
ATOM     12  H   UNL     1      -1.968   4.140  -1.147  0.00  0.00    +0.148 HD
ENDBRANCH   7  10
ENDBRANCH   6   7
ENDBRANCH   1   6
BRANCH   1  13
ATOM     13  C   UNL     1       1.076  -0.910  -0.408  0.00  0.00    +0.213 C 
BRANCH  13  14
ATOM     14  O   UNL     1       2.099  -0.270   0.343  0.00  0.00    -0.435 OA
BRANCH  14  17
ATOM     15  O   UNL     1       3.566  -0.536  -1.411  0.00  0.00    -0.227 OA
ATOM     16  N   UNL     1       4.215   0.489   0.542  0.00  0.00    -0.295 N 
ATOM     17  C   UNL     1       3.313  -0.142  -0.278  0.00  0.00    +0.398 C 
ATOM     18  H   UNL     1       3.944   0.779   1.443  0.00  0.00    +0.148 HD
ATOM     19  H   UNL     1       5.135   0.651   0.229  0.00  0.00    +0.148 HD
ENDBRANCH  14  17
ENDBRANCH  13  14
ENDBRANCH   1  13
TORSDOF 8
