REMARK  Name = 4614
REMARK  6 active torsions:
REMARK  status: ('A' for Active; 'I' for Inactive)
REMARK    1  A    between atoms: C_3  and  C_6
REMARK    2  A    between atoms: C_4  and  C_12
REMARK    3  A    between atoms: C_5  and  C_18
REMARK    4  A    between atoms: C_18  and  C_19
REMARK    5  A    between atoms: C_19  and  C_21
REMARK    6  A    between atoms: C_21  and  O_22
REMARK                            x       y       z     vdW  Elec       q    Type
REMARK                         _______ _______ _______ _____ _____    ______ ____
ROOT
ATOM      1  O   UNL     1       1.101  -0.850  -0.458  0.00  0.00    -0.447 OA
ATOM      2  N   UNL     1       0.920   1.404  -0.419  0.00  0.00    -0.372 NA
ATOM      3  C   UNL     1      -0.205  -0.533  -0.237  0.00  0.00    +0.242 C 
ATOM      4  C   UNL     1      -0.305   0.832  -0.214  0.00  0.00    +0.156 C 
ATOM      5  C   UNL     1       1.710   0.363  -0.556  0.00  0.00    +0.253 C 
ENDROOT
BRANCH   3   6
ATOM      6  C   UNL     1      -1.102  -1.643  -0.090  0.00  0.00    +0.024 C 
ATOM      7  C   UNL     1      -2.441  -1.525  -0.477  0.00  0.00    -0.000 C 
ATOM      8  C   UNL     1      -0.644  -2.854   0.441  0.00  0.00    -0.000 C 
ATOM      9  C   UNL     1      -3.312  -2.605  -0.334  0.00  0.00    -0.000 C 
ATOM     10  C   UNL     1      -1.516  -3.934   0.584  0.00  0.00    -0.000 C 
ATOM     11  C   UNL     1      -2.850  -3.809   0.196  0.00  0.00    -0.000 C 
ENDBRANCH   3   6
BRANCH   4  12
ATOM     12  C   UNL     1      -1.513   1.581  -0.008  0.00  0.00    +0.029 C 
ATOM     13  C   UNL     1      -1.899   1.940   1.283  0.00  0.00    +0.002 C 
ATOM     14  C   UNL     1      -2.300   1.949  -1.099  0.00  0.00    +0.002 C 
ATOM     15  C   UNL     1      -3.073   2.667   1.483  0.00  0.00    +0.000 C 
ATOM     16  C   UNL     1      -3.473   2.676  -0.899  0.00  0.00    +0.000 C 
ATOM     17  C   UNL     1      -3.860   3.035   0.392  0.00  0.00    +0.000 C 
ENDBRANCH   4  12
BRANCH   5  18
ATOM     18  C   UNL     1       3.160   0.339  -0.800  0.00  0.00    +0.111 C 
BRANCH  18  19
ATOM     19  C   UNL     1       3.984   0.323   0.500  0.00  0.00    +0.120 C 
BRANCH  19  21
ATOM     20  O   UNL     1       5.958   0.251  -0.888  0.00  0.00    -0.250 OA
ATOM     21  C   UNL     1       5.464   0.236   0.231  0.00  0.00    +0.314 C 
BRANCH  21  22
ATOM     22  O   UNL     1       6.196   0.156   1.371  0.00  0.00    -0.480 OA
ATOM     23  H   UNL     1       5.766   0.149   2.203  0.00  0.00    +0.295 HD
ENDBRANCH  21  22
ENDBRANCH  19  21
ENDBRANCH  18  19
ENDBRANCH   5  18
TORSDOF 6
