REMARK  Name = 6919078
REMARK  4 active torsions:
REMARK  status: ('A' for Active; 'I' for Inactive)
REMARK    1  A    between atoms: C_1  and  C_7
REMARK    2  A    between atoms: C_1  and  C_12
REMARK    3  A    between atoms: C_7  and  N_8
REMARK    4  A    between atoms: C_12  and  C_15
REMARK                            x       y       z     vdW  Elec       q    Type
REMARK                         _______ _______ _______ _____ _____    ______ ____
ROOT
ATOM      1  C   UNL     1      -0.153  -0.174  -0.165  0.00  0.00    -0.009 C 
ATOM      2  C   UNL     1      -1.247  -0.831  -1.038  0.00  0.00    -0.002 C 
ATOM      3  C   UNL     1      -0.568   1.269   0.201  0.00  0.00    -0.002 C 
ATOM      4  C   UNL     1      -2.647  -0.733  -0.432  0.00  0.00    -0.000 C 
ATOM      5  C   UNL     1      -1.970   1.363   0.805  0.00  0.00    -0.000 C 
ATOM      6  C   UNL     1      -3.014   0.707  -0.091  0.00  0.00    -0.000 C 
ENDROOT
BRANCH   1   7
ATOM      7  C   UNL     1       0.095  -1.006   1.109  0.00  0.00    -0.085 C 
BRANCH   7   8
ATOM      8  N   UNL     1       0.490  -2.365   0.701  0.00  0.00    +0.380 N 
ATOM      9  H   UNL     1       0.659  -2.933   1.531  0.00  0.00    -0.089 HD
ATOM     10  H   UNL     1       1.342  -2.318   0.142  0.00  0.00    -0.089 HD
ATOM     11  H   UNL     1      -0.257  -2.785   0.148  0.00  0.00    -0.089 HD
ENDBRANCH   7   8
ENDBRANCH   1   7
BRANCH   1  12
ATOM     12  C   UNL     1       1.164  -0.129  -0.963  0.00  0.00    +0.112 C 
BRANCH  12  15
ATOM     13  O   UNL     1       2.214   1.699   0.145  0.00  0.00    -0.246 OA
ATOM     14  O   UNL     1       3.303  -0.298  -0.054  0.00  0.00    -0.246 OA
ATOM     15  C   UNL     1       2.333   0.497  -0.218  0.00  0.00    +0.365 C 
ENDBRANCH  12  15
ENDBRANCH   1  12
TORSDOF 4
