REMARK  Name = 37542
REMARK  6 active torsions:
REMARK  status: ('A' for Active; 'I' for Inactive)
REMARK    1  A    between atoms: C3*_2  and  O3*_18
REMARK    2  A    between atoms: C2*_3  and  O2*_16
REMARK    3  A    between atoms: C4*_4  and  C5*_20
REMARK    4  A    between atoms: C1*_5  and  N_6
REMARK    5  A    between atoms: C_10  and  C_13
REMARK    6  A    between atoms: C5*_20  and  O5*_21
REMARK                            x       y       z     vdW  Elec       q    Type
REMARK                         _______ _______ _______ _____ _____    ______ ____
ROOT
ATOM      1  O4* UNL     1       1.392  -0.553  -1.002  0.00  0.00    -0.332 OA
ATOM      2  C3* UNL     1       3.043   0.264   0.506  0.00  0.00    +0.171 C 
ATOM      3  C2* UNL     1       1.729   0.969   0.780  0.00  0.00    +0.188 C 
ATOM      4  C4* UNL     1       2.598  -0.947  -0.307  0.00  0.00    +0.175 C 
ATOM      5  C1* UNL     1       0.987   0.745  -0.528  0.00  0.00    +0.240 C 
ENDROOT
BRANCH   5   6
ATOM      6  N   UNL     1      -0.469   0.791  -0.402  0.00  0.00    -0.172 N 
ATOM      7  N   UNL     1      -1.166  -0.303  -0.061  0.00  0.00    -0.120 NA
ATOM      8  N   UNL     1      -2.535   1.501  -0.385  0.00  0.00    -0.191 NA
ATOM      9  C   UNL     1      -1.289   1.859  -0.593  0.00  0.00    +0.250 C 
ATOM     10  C   UNL     1      -2.410   0.179  -0.065  0.00  0.00    +0.104 C 
BRANCH  10  13
ATOM     11  O   UNL     1      -3.441  -1.854   0.564  0.00  0.00    -0.259 OA
ATOM     12  N   UNL     1      -4.804  -0.060   0.220  0.00  0.00    -0.317 N 
ATOM     13  C   UNL     1      -3.536  -0.648   0.248  0.00  0.00    +0.307 C 
ATOM     14  H   UNL     1      -5.601  -0.598   0.430  0.00  0.00    +0.146 HD
ATOM     15  H   UNL     1      -4.899   0.893  -0.010  0.00  0.00    +0.146 HD
ENDBRANCH  10  13
ENDBRANCH   5   6
BRANCH   3  16
ATOM     16  O2* UNL     1       1.888   2.343   1.068  0.00  0.00    -0.378 OA
ATOM     17  H2* UNL     1       2.364   2.445   1.907  0.00  0.00    +0.211 HD
ENDBRANCH   3  16
BRANCH   2  18
ATOM     18  O3* UNL     1       3.865   1.093  -0.315  0.00  0.00    -0.379 OA
ATOM     19  H3* UNL     1       4.154   1.867   0.193  0.00  0.00    +0.211 HD
ENDBRANCH   2  18
BRANCH   4  20
ATOM     20  C5* UNL     1       2.279  -2.159   0.558  0.00  0.00    +0.169 C 
BRANCH  20  21
ATOM     21  O5* UNL     1       1.868  -3.221  -0.284  0.00  0.00    -0.379 OA
ATOM     22  H5* UNL     1       1.662  -4.000   0.256  0.00  0.00    +0.211 HD
ENDBRANCH  20  21
ENDBRANCH   4  20
TORSDOF 6
