REMARK  Name = 64139
REMARK  3 active torsions:
REMARK  status: ('A' for Active; 'I' for Inactive)
REMARK    1  A    between atoms: C_5  and  C_17
REMARK    2  A    between atoms: C_5  and  C_19
REMARK    3  A    between atoms: C_18  and  C_20
REMARK                            x       y       z     vdW  Elec       q    Type
REMARK                         _______ _______ _______ _____ _____    ______ ____
ROOT
ATOM      1 CL   UNL     1      -1.852  -4.170  -0.470  0.00  0.00    -0.082 Cl
ATOM      2  O   UNL     1      -0.015   1.986   0.376  0.00  0.00    -0.417 OA
ATOM      3  O   UNL     1      -1.319   3.619   1.222  0.00  0.00    -0.226 OA
ATOM      4  N   UNL     1      -2.221   1.529   1.016  0.00  0.00    -0.250 N 
ATOM      5  C   UNL     1       0.184   0.666  -0.207  0.00  0.00    +0.296 C 
ATOM      6  C   UNL     1      -0.949  -0.294   0.077  0.00  0.00    +0.048 C 
ATOM      7  C   UNL     1      -2.119   0.181   0.666  0.00  0.00    +0.054 C 
ATOM      8  C   UNL     1      -0.881  -1.653  -0.276  0.00  0.00    +0.013 C 
ATOM      9  C   UNL     1      -3.203  -0.671   0.906  0.00  0.00    +0.015 C 
ATOM     10  C   UNL     1      -1.197   2.443   0.881  0.00  0.00    +0.407 C 
ATOM     11  C   UNL     1      -1.957  -2.509  -0.032  0.00  0.00    +0.058 C 
ATOM     12  C   UNL     1      -3.118  -2.017   0.559  0.00  0.00    +0.013 C 
ATOM     13  H   UNL     1      -3.078   1.847   1.382  0.00  0.00    +0.158 HD
ENDROOT
BRANCH   5  17
ATOM     14  F   UNL     1       0.625  -0.256  -2.327  0.00  0.00    -0.165 F 
ATOM     15  F   UNL     1      -0.843   1.356  -2.209  0.00  0.00    -0.165 F 
ATOM     16  F   UNL     1       1.281   1.793  -1.957  0.00  0.00    -0.165 F 
ATOM     17  C   UNL     1       0.316   0.897  -1.719  0.00  0.00    +0.446 C 
ENDBRANCH   5  17
BRANCH   5  19
ATOM     18  C   UNL     1       2.503  -0.252   0.767  0.00  0.00    -0.088 C 
ATOM     19  C   UNL     1       1.463   0.160   0.330  0.00  0.00    -0.040 C 
BRANCH  18  20
ATOM     20  C   UNL     1       3.750  -0.747   1.291  0.00  0.00    +0.064 C 
ATOM     21  C   UNL     1       5.024  -0.327   0.627  0.00  0.00    +0.014 C 
ATOM     22  C   UNL     1       4.528  -1.735   0.480  0.00  0.00    +0.014 C 
ENDBRANCH  18  20
ENDBRANCH   5  19
TORSDOF 3
