33572
  -OEChem-10051719243D

 42 43  0     1  0  0  0  0  0999 V2000
    3.3606    2.7122   -0.8480 O   0  0  0  0  0  0  0  0  0  0  0  0
    5.1802   -3.1616   -0.0017 O   0  0  0  0  0  0  0  0  0  0  0  0
   -7.0996   -0.7714   -0.7257 O   0  0  0  0  0  0  0  0  0  0  0  0
    0.4053    0.8984    0.4920 N   0  0  0  0  0  0  0  0  0  0  0  0
    1.1403    1.8140   -0.3896 C   0  0  2  0  0  0  0  0  0  0  0  0
    2.6237    1.8676    0.0404 C   0  0  1  0  0  0  0  0  0  0  0  0
   -0.9746    0.7707    0.0569 C   0  0  0  0  0  0  0  0  0  0  0  0
    0.4589    3.1822   -0.3230 C   0  0  0  0  0  0  0  0  0  0  0  0
    3.3092    0.5180    0.0292 C   0  0  0  0  0  0  0  0  0  0  0  0
   -1.7522   -0.1758    0.9720 C   0  0  0  0  0  0  0  0  0  0  0  0
   -3.1814   -0.3347    0.5180 C   0  0  0  0  0  0  0  0  0  0  0  0
    3.9045    0.0537    1.1887 C   0  0  0  0  0  0  0  0  0  0  0  0
    3.3257   -0.2205   -1.1409 C   0  0  0  0  0  0  0  0  0  0  0  0
   -4.1507    0.5283    1.0058 C   0  0  0  0  0  0  0  0  0  0  0  0
   -3.5021   -1.3420   -0.3793 C   0  0  0  0  0  0  0  0  0  0  0  0
    4.5369   -1.1895    1.1778 C   0  0  0  0  0  0  0  0  0  0  0  0
    3.9581   -1.4637   -1.1517 C   0  0  0  0  0  0  0  0  0  0  0  0
    4.5637   -1.9483    0.0077 C   0  0  0  0  0  0  0  0  0  0  0  0
   -5.4728    0.3805    0.5862 C   0  0  0  0  0  0  0  0  0  0  0  0
   -4.8242   -1.4897   -0.7990 C   0  0  0  0  0  0  0  0  0  0  0  0
   -5.8095   -0.6285   -0.3161 C   0  0  0  0  0  0  0  0  0  0  0  0
    1.0786    1.4659   -1.4288 H   0  0  0  0  0  0  0  0  0  0  0  0
    2.7010    2.3215    1.0363 H   0  0  0  0  0  0  0  0  0  0  0  0
    0.4380    1.2371    1.4532 H   0  0  0  0  0  0  0  0  0  0  0  0
   -1.5074    1.7265    0.0771 H   0  0  0  0  0  0  0  0  0  0  0  0
   -1.0105    0.3922   -0.9724 H   0  0  0  0  0  0  0  0  0  0  0  0
   -0.4771    3.2159   -0.8894 H   0  0  0  0  0  0  0  0  0  0  0  0
    0.2625    3.4966    0.7087 H   0  0  0  0  0  0  0  0  0  0  0  0
    1.0984    3.9512   -0.7714 H   0  0  0  0  0  0  0  0  0  0  0  0
   -1.7362    0.1931    2.0063 H   0  0  0  0  0  0  0  0  0  0  0  0
   -1.2669   -1.1606    1.0006 H   0  0  0  0  0  0  0  0  0  0  0  0
    3.8898    0.6351    2.1058 H   0  0  0  0  0  0  0  0  0  0  0  0
    2.8691    0.1441   -2.0558 H   0  0  0  0  0  0  0  0  0  0  0  0
    2.9740    2.6419   -1.7372 H   0  0  0  0  0  0  0  0  0  0  0  0
   -3.8980    1.3182    1.7073 H   0  0  0  0  0  0  0  0  0  0  0  0
   -2.7415   -2.0163   -0.7623 H   0  0  0  0  0  0  0  0  0  0  0  0
    5.0047   -1.5558    2.0878 H   0  0  0  0  0  0  0  0  0  0  0  0
    3.9776   -2.0493   -2.0667 H   0  0  0  0  0  0  0  0  0  0  0  0
   -6.2358    1.0548    0.9653 H   0  0  0  0  0  0  0  0  0  0  0  0
   -5.0734   -2.2793   -1.5028 H   0  0  0  0  0  0  0  0  0  0  0  0
    5.5432   -3.3376    0.8835 H   0  0  0  0  0  0  0  0  0  0  0  0
   -7.1516   -1.5170   -1.3482 H   0  0  0  0  0  0  0  0  0  0  0  0
  1  6  1  0  0  0  0
  1 34  1  0  0  0  0
  2 18  1  0  0  0  0
  2 41  1  0  0  0  0
  3 21  1  0  0  0  0
  3 42  1  0  0  0  0
  4  5  1  0  0  0  0
  4  7  1  0  0  0  0
  4 24  1  0  0  0  0
  5  6  1  0  0  0  0
  5  8  1  0  0  0  0
  5 22  1  0  0  0  0
  6  9  1  0  0  0  0
  6 23  1  0  0  0  0
  7 10  1  0  0  0  0
  7 25  1  0  0  0  0
  7 26  1  0  0  0  0
  8 27  1  0  0  0  0
  8 28  1  0  0  0  0
  8 29  1  0  0  0  0
  9 12  2  0  0  0  0
  9 13  1  0  0  0  0
 10 11  1  0  0  0  0
 10 30  1  0  0  0  0
 10 31  1  0  0  0  0
 11 14  2  0  0  0  0
 11 15  1  0  0  0  0
 12 16  1  0  0  0  0
 12 32  1  0  0  0  0
 13 17  2  0  0  0  0
 13 33  1  0  0  0  0
 14 19  1  0  0  0  0
 14 35  1  0  0  0  0
 15 20  2  0  0  0  0
 15 36  1  0  0  0  0
 16 18  2  0  0  0  0
 16 37  1  0  0  0  0
 17 18  1  0  0  0  0
 17 38  1  0  0  0  0
 19 21  2  0  0  0  0
 19 39  1  0  0  0  0
 20 21  1  0  0  0  0
 20 40  1  0  0  0  0
M  END
> <DATABASE_ID>
DB00867

> <DATABASE_NAME>
drugbank

> <ORIGINAL_SOURCE>
PUBCHEM

> <ORIGINAL_SOURCE_URL>
https://pubchem.ncbi.nlm.nih.gov/rest/pug/compound/inchikey/IOVGROKTTNBUGK-SJCJKPOMSA-N/SDF?record_type=3d

> <SMILES>
C[C@H](NCCC1=CC=C(O)C=C1)[C@H](O)C1=CC=C(O)C=C1

> <INCHI_IDENTIFIER>
InChI=1S/C17H21NO3/c1-12(17(21)14-4-8-16(20)9-5-14)18-11-10-13-2-6-15(19)7-3-13/h2-9,12,17-21H,10-11H2,1H3/t12-,17-/m0/s1

> <INCHI_KEY>
IOVGROKTTNBUGK-SJCJKPOMSA-N

> <FORMULA>
C17H21NO3

> <MOLECULAR_WEIGHT>
287.3535

> <EXACT_MASS>
287.152143543

> <JCHEM_ACCEPTOR_COUNT>
4

> <JCHEM_AVERAGE_POLARIZABILITY>
31.557280114167703

> <JCHEM_BIOAVAILABILITY>
1

> <JCHEM_DONOR_COUNT>
4

> <JCHEM_FORMAL_CHARGE>
0

> <JCHEM_GHOSE_FILTER>
1

> <JCHEM_IUPAC>
4-(2-{[(1R,2S)-1-hydroxy-1-(4-hydroxyphenyl)propan-2-yl]amino}ethyl)phenol

> <ALOGPS_LOGP>
1.53

> <JCHEM_LOGP>
1.8155849143994929

> <ALOGPS_LOGS>
-3.21

> <JCHEM_MDDR_LIKE_RULE>
0

> <JCHEM_NUMBER_OF_RINGS>
2

> <JCHEM_PHYSIOLOGICAL_CHARGE>
1

> <JCHEM_PKA>
10.484191132091894

> <JCHEM_PKA_STRONGEST_ACIDIC>
9.154391629740328

> <JCHEM_PKA_STRONGEST_BASIC>
9.806609961013399

> <JCHEM_POLAR_SURFACE_AREA>
72.72

> <JCHEM_REFRACTIVITY>
83.01670000000001

> <JCHEM_ROTATABLE_BOND_COUNT>
6

> <JCHEM_RULE_OF_FIVE>
1

> <ALOGPS_SOLUBILITY>
1.79e-01 g/l

> <JCHEM_TRADITIONAL_IUPAC>
PrePar

> <JCHEM_VEBER_RULE>
0

> <DRUGBANK_ID>
DB00867

> <SECONDARY_ACCESSION_NUMBERS>
APRD00541

> <DRUG_GROUPS>
approved; investigational

> <GENERIC_NAME>
Ritodrine

> <SYNONYMS>
p-Hydroxy-alpha-(1-((p-hydroxyphenethyl)amino)ethyl)benzyl alcohol; Ritodrina; Ritodrine; Ritodrinium

> <PRODUCTS>
Yutopar Inj 50mg/5ml; Yutopar Tab 10mg

> <INTERNATIONAL_BRANDS>
Yutopar

> <SALTS>
Ritodrine hydrochloride

$$$$
