REMARK  Name = 3042
REMARK  8 active torsions:
REMARK  status: ('A' for Active; 'I' for Inactive)
REMARK    1  A    between atoms: C_1  and  C_7
REMARK    2  A    between atoms: C_1  and  C_14
REMARK    3  A    between atoms: C_14  and  O_15
REMARK    4  A    between atoms: O_15  and  C_16
REMARK    5  A    between atoms: C_16  and  C_17
REMARK    6  A    between atoms: C_17  and  N_18
REMARK    7  A    between atoms: N_18  and  C_20
REMARK    8  A    between atoms: N_18  and  C_22
REMARK                            x       y       z     vdW  Elec       q    Type
REMARK                         _______ _______ _______ _____ _____    ______ ____
ROOT
ATOM      1  C   UNL     1      -1.717  -0.633   0.072  0.00  0.00    +0.090 C 
ATOM      2  C   UNL     1      -2.856  -1.311  -0.711  0.00  0.00    +0.011 C 
ATOM      3  C   UNL     1      -1.544  -1.268   1.464  0.00  0.00    +0.011 C 
ATOM      4  C   UNL     1      -2.731  -2.835  -0.745  0.00  0.00    +0.001 C 
ATOM      5  C   UNL     1      -1.429  -2.792   1.413  0.00  0.00    +0.001 C 
ATOM      6  C   UNL     1      -2.593  -3.421   0.656  0.00  0.00    +0.000 C 
ENDROOT
BRANCH   1   7
ATOM      7  C   UNL     1      -2.002   0.861   0.214  0.00  0.00    +0.010 C 
ATOM      8  C   UNL     1      -2.105   1.527  -1.164  0.00  0.00    +0.001 C 
ATOM      9  C   UNL     1      -3.282   1.093   1.030  0.00  0.00    +0.001 C 
ATOM     10  C   UNL     1      -2.443   3.012  -1.049  0.00  0.00    +0.000 C 
ATOM     11  C   UNL     1      -3.618   2.578   1.141  0.00  0.00    +0.000 C 
ATOM     12  C   UNL     1      -3.711   3.239  -0.231  0.00  0.00    +0.000 C 
ENDBRANCH   1   7
BRANCH   1  14
ATOM     13  O   UNL     1      -0.327  -1.296  -1.791  0.00  0.00    -0.250 OA
ATOM     14  C   UNL     1      -0.427  -0.744  -0.704  0.00  0.00    +0.316 C 
BRANCH  14  15
ATOM     15  O   UNL     1       0.578  -0.142  -0.006  0.00  0.00    -0.451 OA
BRANCH  15  16
ATOM     16  C   UNL     1       1.865  -0.175  -0.630  0.00  0.00    +0.186 C 
BRANCH  16  17
ATOM     17  C   UNL     1       2.864   0.533   0.271  0.00  0.00    -0.029 C 
BRANCH  17  18
ATOM     18  N   UNL     1       4.195   0.510  -0.317  0.00  0.00    +0.389 N 
ATOM     19  H   UNL     1       4.099   0.677  -1.319  0.00  0.00    -0.080 HD
BRANCH  18  20
ATOM     20  C   UNL     1       4.825  -0.798  -0.120  0.00  0.00    -0.077 C 
ATOM     21  C   UNL     1       6.187  -0.857  -0.790  0.00  0.00    -0.025 C 
ENDBRANCH  18  20
BRANCH  18  22
ATOM     22  C   UNL     1       5.033   1.566   0.255  0.00  0.00    -0.077 C 
ATOM     23  C   UNL     1       5.239   1.357   1.745  0.00  0.00    -0.025 C 
ENDBRANCH  18  22
ENDBRANCH  17  18
ENDBRANCH  16  17
ENDBRANCH  15  16
ENDBRANCH  14  15
ENDBRANCH   1  14
TORSDOF 8
