REMARK  Name = 702
REMARK  1 active torsions:
REMARK  status: ('A' for Active; 'I' for Inactive)
REMARK    1  A    between atoms: O_1  and  C_3
REMARK                            x       y       z     vdW  Elec       q    Type
REMARK                         _______ _______ _______ _____ _____    ______ ____
ROOT
ATOM      1  O   UNL     1      -1.171   0.300   0.000  0.00  0.00    -0.382 OA
ATOM      2  H   UNL     1      -1.985  -0.228   0.000  0.00  0.00    +0.210 HD
ENDROOT
BRANCH   1   3
ATOM      3  C   UNL     1      -0.046  -0.567   0.000  0.00  0.00    +0.137 C 
ATOM      4  C   UNL     1       1.218   0.267   0.000  0.00  0.00    +0.034 C 
ENDBRANCH   1   3
TORSDOF 1
