REMARK  Name = 4926
REMARK  4 active torsions:
REMARK  status: ('A' for Active; 'I' for Inactive)
REMARK    1  A    between atoms: N_2  and  C_15
REMARK    2  A    between atoms: C_15  and  C_16
REMARK    3  A    between atoms: C_16  and  C_17
REMARK    4  A    between atoms: C_17  and  N_18
REMARK                            x       y       z     vdW  Elec       q    Type
REMARK                         _______ _______ _______ _____ _____    ______ ____
ROOT
ATOM      1  S   UNL     1      -1.186   1.857   1.453  0.00  0.00    -0.084 S 
ATOM      2  N   UNL     1      -0.240  -0.170  -0.707  0.00  0.00    -0.286 N 
ATOM      3  C   UNL     1       0.586   0.969  -0.529  0.00  0.00    +0.058 C 
ATOM      4  C   UNL     1      -1.610  -0.247  -0.349  0.00  0.00    +0.058 C 
ATOM      5  C   UNL     1       0.250   1.970   0.404  0.00  0.00    +0.043 C 
ATOM      6  C   UNL     1      -2.163   0.634   0.601  0.00  0.00    +0.043 C 
ATOM      7  C   UNL     1       1.754   1.172  -1.295  0.00  0.00    +0.015 C 
ATOM      8  C   UNL     1      -2.489  -1.176  -0.948  0.00  0.00    +0.015 C 
ATOM      9  C   UNL     1       1.069   3.102   0.571  0.00  0.00    +0.008 C 
ATOM     10  C   UNL     1      -3.524   0.559   0.947  0.00  0.00    +0.008 C 
ATOM     11  C   UNL     1       2.562   2.301  -1.129  0.00  0.00    +0.001 C 
ATOM     12  C   UNL     1      -3.841  -1.244  -0.605  0.00  0.00    +0.001 C 
ATOM     13  C   UNL     1       2.220   3.265  -0.193  0.00  0.00    +0.001 C 
ATOM     14  C   UNL     1      -4.359  -0.377   0.346  0.00  0.00    +0.001 C 
ENDROOT
BRANCH   2  15
ATOM     15  C   UNL     1       0.350  -1.335  -1.379  0.00  0.00    +0.093 C 
BRANCH  15  16
ATOM     16  C   UNL     1       0.395  -2.537  -0.435  0.00  0.00    -0.001 C 
BRANCH  16  17
ATOM     17  C   UNL     1       1.172  -2.299   0.863  0.00  0.00    -0.076 C 
BRANCH  17  18
ATOM     18  N   UNL     1       2.552  -1.905   0.609  0.00  0.00    +0.384 N 
ATOM     19  C   UNL     1       3.273  -2.974  -0.086  0.00  0.00    -0.101 C 
ATOM     20  C   UNL     1       3.231  -1.567   1.861  0.00  0.00    -0.101 C 
ATOM     21  H   UNL     1       2.542  -1.079   0.012  0.00  0.00    -0.080 HD
ENDBRANCH  17  18
ENDBRANCH  16  17
ENDBRANCH  15  16
ENDBRANCH   2  15
TORSDOF 4
