REMARK  Name = 4513
REMARK  10 active torsions:
REMARK  status: ('A' for Active; 'I' for Inactive)
REMARK    1  A    between atoms: S_1  and  C_2
REMARK    2  A    between atoms: S_1  and  C_14
REMARK    3  A    between atoms: C_2  and  C_3
REMARK    4  A    between atoms: C_3  and  N_4
REMARK    5  A    between atoms: N_4  and  C_6
REMARK    6  A    between atoms: C_6  and  N_11
REMARK    7  A    between atoms: C_7  and  N_10
REMARK    8  A    between atoms: C_14  and  C_18
REMARK    9  A    between atoms: C_17  and  C_20
REMARK   10  A    between atoms: C_20  and  N_21
REMARK                            x       y       z     vdW  Elec       q    Type
REMARK                         _______ _______ _______ _____ _____    ______ ____
ROOT
ATOM      1  S   UNL     1       0.298  -2.263   1.107  0.00  0.00    -0.131 S 
ENDROOT
BRANCH   1   2
ATOM      2  C   UNL     1      -1.264  -3.076   0.651  0.00  0.00    +0.079 C 
BRANCH   2   3
ATOM      3  C   UNL     1      -2.211  -2.138  -0.087  0.00  0.00    +0.100 C 
BRANCH   3   4
ATOM      4  N   UNL     1      -2.583  -1.011   0.736  0.00  0.00    -0.319 N 
ATOM      5  H   UNL     1      -2.194  -0.976   1.640  0.00  0.00    +0.148 HD
BRANCH   4   6
ATOM      6  C   UNL     1      -3.440   0.033   0.380  0.00  0.00    +0.118 C 
ATOM      7  C   UNL     1      -4.039   0.095  -0.829  0.00  0.00    +0.194 C 
BRANCH   7  10
ATOM      8  O   UNL     1      -4.421   2.318  -1.121  0.00  0.00    -0.126 OA
ATOM      9  O   UNL     1      -6.078   0.900  -1.433  0.00  0.00    -0.126 OA
ATOM     10  N   UNL     1      -4.902   1.175  -1.149  0.00  0.00    +0.062 N 
ENDBRANCH   7  10
BRANCH   6  11
ATOM     11  N   UNL     1      -3.695   1.057   1.299  0.00  0.00    -0.319 N 
ATOM     12  C   UNL     1      -3.176   1.213   2.637  0.00  0.00    +0.109 C 
ATOM     13  H   UNL     1      -4.308   1.764   0.993  0.00  0.00    +0.148 HD
ENDBRANCH   6  11
ENDBRANCH   4   6
ENDBRANCH   3   4
ENDBRANCH   2   3
ENDBRANCH   1   2
BRANCH   1  14
ATOM     14  C   UNL     1       1.090  -2.294  -0.517  0.00  0.00    +0.113 C 
BRANCH  14  18
ATOM     15  S   UNL     1       4.935  -1.224  -0.274  0.00  0.00    -0.082 S 
ATOM     16  N   UNL     1       2.555  -0.316  -0.718  0.00  0.00    -0.409 NA
ATOM     17  C   UNL     1       3.821   0.030  -0.637  0.00  0.00    +0.113 C 
ATOM     18  C   UNL     1       2.447  -1.672  -0.477  0.00  0.00    +0.109 C 
ATOM     19  C   UNL     1       3.629  -2.334  -0.217  0.00  0.00    +0.119 C 
BRANCH  17  20
ATOM     20  C   UNL     1       4.326   1.406  -0.835  0.00  0.00    -0.010 C 
BRANCH  20  21
ATOM     21  N   UNL     1       4.362   2.166   0.421  0.00  0.00    +0.389 N 
ATOM     22  C   UNL     1       3.029   2.669   0.744  0.00  0.00    -0.100 C 
ATOM     23  C   UNL     1       5.317   3.266   0.319  0.00  0.00    -0.100 C 
ATOM     24  H   UNL     1       4.663   1.547   1.174  0.00  0.00    -0.079 HD
ENDBRANCH  20  21
ENDBRANCH  17  20
ENDBRANCH  14  18
ENDBRANCH   1  14
TORSDOF 10
