REMARK  Name = 4205
REMARK  0 active torsions:
REMARK  status: ('A' for Active; 'I' for Inactive)
REMARK                            x       y       z     vdW  Elec       q    Type
REMARK                         _______ _______ _______ _____ _____    ______ ____
ROOT
ATOM      1  N   UNL     1      -0.455  -1.186  -0.022  0.00  0.00    -0.296 N 
ATOM      2  N   UNL     1      -3.304  -1.072  -0.080  0.00  0.00    +0.388 N 
ATOM      3  N   UNL     1       1.470  -2.348  -0.858  0.00  0.00    -0.229 NA
ATOM      4  C   UNL     1      -1.115   0.055  -0.490  0.00  0.00    +0.076 C 
ATOM      5  C   UNL     1      -2.510   0.139   0.180  0.00  0.00    -0.053 C 
ATOM      6  C   UNL     1      -1.238  -2.412  -0.216  0.00  0.00    +0.070 C 
ATOM      7  C   UNL     1      -2.612  -2.259   0.436  0.00  0.00    -0.056 C 
ATOM      8  C   UNL     1      -0.405   1.397  -0.306  0.00  0.00    -0.010 C 
ATOM      9  C   UNL     1       0.934  -1.349  -0.103  0.00  0.00    +0.128 C 
ATOM     10  C   UNL     1       0.594   1.661   0.650  0.00  0.00    -0.020 C 
ATOM     11  C   UNL     1       1.156   0.569   1.518  0.00  0.00    +0.055 C 
ATOM     12  C   UNL     1       1.760  -0.513   0.664  0.00  0.00    +0.014 C 
ATOM     13  C   UNL     1      -4.633  -0.954   0.519  0.00  0.00    -0.101 C 
ATOM     14  C   UNL     1      -0.826   2.460  -1.135  0.00  0.00    -0.003 C 
ATOM     15  C   UNL     1       1.129   2.958   0.765  0.00  0.00    -0.004 C 
ATOM     16  C   UNL     1       3.147  -0.690   0.610  0.00  0.00    +0.000 C 
ATOM     17  C   UNL     1      -0.286   3.740  -1.015  0.00  0.00    -0.000 C 
ATOM     18  C   UNL     1       0.690   3.990  -0.060  0.00  0.00    -0.000 C 
ATOM     19  C   UNL     1       3.689  -1.694  -0.176  0.00  0.00    +0.020 C 
ATOM     20  C   UNL     1       2.814  -2.492  -0.883  0.00  0.00    +0.100 C 
ATOM     21  H   UNL     1      -3.415  -1.175  -1.088  0.00  0.00    -0.080 HD
ENDROOT
TORSDOF 0
