REMARK  Name = 4497
REMARK  10 active torsions:
REMARK  status: ('A' for Active; 'I' for Inactive)
REMARK    1  A    between atoms: C_2  and  C_10
REMARK    2  A    between atoms: C_3  and  C_20
REMARK    3  A    between atoms: C_4  and  C_26
REMARK    4  A    between atoms: C_13  and  N_18
REMARK    5  A    between atoms: C_20  and  O_21
REMARK    6  A    between atoms: O_21  and  C_22
REMARK    7  A    between atoms: C_26  and  O_27
REMARK    8  A    between atoms: O_27  and  C_28
REMARK    9  A    between atoms: C_28  and  C_29
REMARK   10  A    between atoms: C_29  and  O_30
REMARK                            x       y       z     vdW  Elec       q    Type
REMARK                         _______ _______ _______ _____ _____    ______ ____
ROOT
ATOM      1  N   UNL     1      -1.197  -2.169   2.104  0.00  0.00    -0.334 N 
ATOM      2  C   UNL     1      -0.876  -0.697  -0.296  0.00  0.00    +0.011 C 
ATOM      3  C   UNL     1      -2.020  -0.456   0.694  0.00  0.00    +0.071 C 
ATOM      4  C   UNL     1      -0.029  -1.922   0.061  0.00  0.00    +0.085 C 
ATOM      5  C   UNL     1      -2.117  -1.167   1.840  0.00  0.00    +0.098 C 
ATOM      6  C   UNL     1      -0.202  -2.578   1.231  0.00  0.00    +0.028 C 
ATOM      7  C   UNL     1      -3.168  -0.974   2.899  0.00  0.00    +0.026 C 
ATOM      8  C   UNL     1       0.607  -3.757   1.698  0.00  0.00    +0.047 C 
ATOM      9  H   UNL     1      -1.255  -2.624   2.976  0.00  0.00    +0.147 HD
ENDROOT
BRANCH   2  10
ATOM     10  C   UNL     1      -0.004   0.522  -0.381  0.00  0.00    +0.002 C 
ATOM     11  C   UNL     1       0.684   0.968   0.748  0.00  0.00    +0.024 C 
ATOM     12  C   UNL     1       0.119   1.210  -1.588  0.00  0.00    +0.000 C 
ATOM     13  C   UNL     1       1.494   2.101   0.669  0.00  0.00    +0.143 C 
ATOM     14  C   UNL     1       0.929   2.342  -1.667  0.00  0.00    +0.002 C 
ATOM     15  C   UNL     1       1.617   2.788  -0.538  0.00  0.00    +0.024 C 
BRANCH  13  18
ATOM     16  O   UNL     1       2.918   3.575   1.725  0.00  0.00    -0.126 OA
ATOM     17  O   UNL     1       2.071   1.923   2.895  0.00  0.00    -0.126 OA
ATOM     18  N   UNL     1       2.195   2.554   1.818  0.00  0.00    +0.058 N 
ENDBRANCH  13  18
ENDBRANCH   2  10
BRANCH   3  20
ATOM     19  O   UNL     1      -3.284   1.528   0.981  0.00  0.00    -0.245 OA
ATOM     20  C   UNL     1      -3.024   0.549   0.307  0.00  0.00    +0.339 C 
BRANCH  20  21
ATOM     21  O   UNL     1      -3.563   0.179  -0.880  0.00  0.00    -0.449 OA
BRANCH  21  22
ATOM     22  C   UNL     1      -4.564   1.064  -1.393  0.00  0.00    +0.169 C 
ATOM     23  C   UNL     1      -3.897   2.139  -2.238  0.00  0.00    +0.047 C 
ATOM     24  C   UNL     1      -5.579   0.262  -2.193  0.00  0.00    +0.047 C 
ENDBRANCH  21  22
ENDBRANCH  20  21
ENDBRANCH   3  20
BRANCH   4  26
ATOM     25  O   UNL     1       0.660  -3.154  -1.843  0.00  0.00    -0.245 OA
ATOM     26  C   UNL     1       0.939  -2.373  -0.953  0.00  0.00    +0.342 C 
BRANCH  26  27
ATOM     27  O   UNL     1       2.129  -1.774  -0.704  0.00  0.00    -0.443 OA
BRANCH  27  28
ATOM     28  C   UNL     1       3.181  -2.114  -1.613  0.00  0.00    +0.241 C 
BRANCH  28  29
ATOM     29  C   UNL     1       4.441  -1.372  -1.211  0.00  0.00    +0.190 C 
BRANCH  29  30
ATOM     30  O   UNL     1       4.198   0.028  -1.280  0.00  0.00    -0.347 OA
ATOM     31  C   UNL     1       5.343   0.774  -0.892  0.00  0.00    +0.174 C 
ENDBRANCH  29  30
ENDBRANCH  28  29
ENDBRANCH  27  28
ENDBRANCH  26  27
ENDBRANCH   4  26
TORSDOF 10
