REMARK  Name = 6112
REMARK  6 active torsions:
REMARK  status: ('A' for Active; 'I' for Inactive)
REMARK    1  A    between atoms: C_1  and  C_2
REMARK    2  A    between atoms: C_1  and  C_8
REMARK    3  A    between atoms: C_2  and  C_5
REMARK    4  A    between atoms: C_8  and  C_9
REMARK    5  A    between atoms: C_9  and  C_11
REMARK    6  A    between atoms: C_11  and  O_12
REMARK                            x       y       z     vdW  Elec       q    Type
REMARK                         _______ _______ _______ _____ _____    ______ ____
ROOT
ATOM      1  C   UNL     1      -0.286  -0.127   0.333  0.00  0.00    +0.001 C 
ENDROOT
BRANCH   1   2
ATOM      2  C   UNL     1       0.886   0.783  -0.042  0.00  0.00    +0.012 C 
BRANCH   2   5
ATOM      3  S   UNL     1       2.587  -1.358  -0.360  0.00  0.00    -0.083 S 
ATOM      4  S   UNL     1       4.624  -1.151  -0.469  0.00  0.00    -0.082 S 
ATOM      5  C   UNL     1       2.237   0.252   0.412  0.00  0.00    +0.059 C 
ATOM      6  C   UNL     1       3.387   1.180   0.012  0.00  0.00    +0.024 C 
ATOM      7  C   UNL     1       4.720   0.492   0.282  0.00  0.00    +0.070 C 
ENDBRANCH   2   5
ENDBRANCH   1   2
BRANCH   1   8
ATOM      8  C   UNL     1      -1.676   0.388  -0.054  0.00  0.00    +0.012 C 
BRANCH   8   9
ATOM      9  C   UNL     1      -2.811  -0.530   0.397  0.00  0.00    +0.109 C 
BRANCH   9  11
ATOM     10  O   UNL     1      -4.352   0.981  -0.733  0.00  0.00    -0.250 OA
ATOM     11  C   UNL     1      -4.158  -0.037  -0.083  0.00  0.00    +0.314 C 
BRANCH  11  12
ATOM     12  O   UNL     1      -5.158  -0.872   0.304  0.00  0.00    -0.480 OA
ATOM     13  H   UNL     1      -4.960  -1.641   0.802  0.00  0.00    +0.295 HD
ENDBRANCH  11  12
ENDBRANCH   9  11
ENDBRANCH   8   9
ENDBRANCH   1   8
TORSDOF 6
