REMARK  Name = 37632
REMARK  3 active torsions:
REMARK  status: ('A' for Active; 'I' for Inactive)
REMARK    1  A    between atoms: C_7  and  C_22
REMARK    2  A    between atoms: C_11  and  C_16
REMARK    3  A    between atoms: C_22  and  N_23
REMARK                            x       y       z     vdW  Elec       q    Type
REMARK                         _______ _______ _______ _____ _____    ______ ____
ROOT
ATOM      1 CL   UNL     1       1.294  -4.432   1.096  0.00  0.00    -0.082 Cl
ATOM      2  N   UNL     1      -1.414   0.767   0.189  0.00  0.00    -0.281 N 
ATOM      3  N   UNL     1       1.302   1.875   1.035  0.00  0.00    -0.262 NA
ATOM      4  N   UNL     1      -2.922   2.278  -0.355  0.00  0.00    -0.135 NA
ATOM      5  N   UNL     1      -1.968   2.887   0.423  0.00  0.00    -0.131 NA
ATOM      6  C   UNL     1      -0.718  -0.454   0.330  0.00  0.00    +0.068 C 
ATOM      7  C   UNL     1      -2.595   1.010  -0.463  0.00  0.00    +0.126 A 
ATOM      8  C   UNL     1      -1.086   1.973   0.767  0.00  0.00    +0.172 A 
ATOM      9  C   UNL     1       0.659  -0.494   0.625  0.00  0.00    +0.034 C 
ATOM     10  C   UNL     1       0.043   2.125   1.710  0.00  0.00    +0.191 C 
ATOM     11  C   UNL     1       1.562   0.704   0.560  0.00  0.00    +0.078 C 
ATOM     12  C   UNL     1      -1.439  -1.653   0.207  0.00  0.00    +0.019 C 
ATOM     13  C   UNL     1       1.264  -1.737   0.879  0.00  0.00    +0.014 C 
ATOM     14  C   UNL     1      -0.813  -2.878   0.438  0.00  0.00    +0.013 C 
ATOM     15  C   UNL     1       0.531  -2.920   0.789  0.00  0.00    +0.058 C 
ENDROOT
BRANCH  11  16
ATOM     16  C   UNL     1       2.874   0.558  -0.139  0.00  0.00    +0.017 C 
ATOM     17  C   UNL     1       2.993  -0.342  -1.189  0.00  0.00    +0.001 C 
ATOM     18  C   UNL     1       3.956   1.326   0.271  0.00  0.00    +0.001 C 
ATOM     19  C   UNL     1       4.218  -0.478  -1.842  0.00  0.00    +0.000 C 
ATOM     20  C   UNL     1       5.181   1.190  -0.383  0.00  0.00    +0.000 C 
ATOM     21  C   UNL     1       5.312   0.288  -1.439  0.00  0.00    +0.000 C 
ENDBRANCH  11  16
BRANCH   7  22
ATOM     22  C   UNL     1      -3.329   0.066  -1.331  0.00  0.00    -0.010 C 
BRANCH  22  23
ATOM     23  N   UNL     1      -4.419  -0.575  -0.616  0.00  0.00    +0.389 N 
ATOM     24  C   UNL     1      -5.138  -1.509  -1.489  0.00  0.00    -0.100 C 
ATOM     25  C   UNL     1      -5.347   0.423  -0.076  0.00  0.00    -0.100 C 
ATOM     26  H   UNL     1      -4.016  -1.099   0.161  0.00  0.00    -0.079 HD
ENDBRANCH  22  23
ENDBRANCH   7  22
TORSDOF 3
