REMARK  Name = 4030
REMARK  4 active torsions:
REMARK  status: ('A' for Active; 'I' for Inactive)
REMARK    1  A    between atoms: N_4  and  C_11
REMARK    2  A    between atoms: C_7  and  C_17
REMARK    3  A    between atoms: C_12  and  O_24
REMARK    4  A    between atoms: C_17  and  C_18
REMARK                            x       y       z     vdW  Elec       q    Type
REMARK                         _______ _______ _______ _____ _____    ______ ____
ROOT
ATOM      1  N   UNL     1       1.822  -0.167   1.200  0.00  0.00    -0.302 N 
ATOM      2  N   UNL     1       2.505   0.487  -0.811  0.00  0.00    -0.302 N 
ATOM      3  C   UNL     1       0.702   0.313   0.572  0.00  0.00    +0.060 C 
ATOM      4  C   UNL     1       1.154   0.716  -0.682  0.00  0.00    +0.060 C 
ATOM      5  C   UNL     1      -1.524   0.977   0.058  0.00  0.00    +0.040 C 
ATOM      6  C   UNL     1      -0.628   0.427   0.980  0.00  0.00    +0.019 C 
ATOM      7  C   UNL     1       0.239   1.266  -1.596  0.00  0.00    +0.016 C 
ATOM      8  C   UNL     1      -1.101   1.389  -1.208  0.00  0.00    +0.005 C 
ATOM      9  C   UNL     1       2.872  -0.042   0.334  0.00  0.00    +0.229 C 
ATOM     10  H   UNL     1       1.862  -0.536   2.112  0.00  0.00    +0.150 HD
ATOM     11  H   UNL     1       3.072   0.679  -1.592  0.00  0.00    +0.150 HD
ENDROOT
BRANCH   9  13
ATOM     12  O   UNL     1       5.475   0.013  -1.166  0.00  0.00    -0.226 OA
ATOM     13  N   UNL     1       4.127  -0.450   0.704  0.00  0.00    -0.240 N 
ATOM     14  C   UNL     1       5.331  -0.410  -0.026  0.00  0.00    +0.404 C 
ATOM     15  H   UNL     1       4.198  -0.825   1.612  0.00  0.00    +0.156 HD
BRANCH  14  16
ATOM     16  O   UNL     1       6.354  -0.923   0.727  0.00  0.00    -0.431 OA
ATOM     17  C   UNL     1       7.644  -0.945   0.103  0.00  0.00    +0.257 C 
ENDBRANCH  14  16
ENDBRANCH   9  13
BRANCH   5  19
ATOM     18  O   UNL     1      -3.367   2.131   0.980  0.00  0.00    -0.287 OA
ATOM     19  C   UNL     1      -2.925   1.121   0.425  0.00  0.00    +0.196 C 
BRANCH  19  20
ATOM     20  C   UNL     1      -3.890   0.026   0.153  0.00  0.00    +0.039 C 
ATOM     21  C   UNL     1      -3.439  -1.122  -0.466  0.00  0.00    +0.003 C 
ATOM     22  C   UNL     1      -5.208   0.190   0.526  0.00  0.00    +0.003 C 
ATOM     23  C   UNL     1      -4.345  -2.151  -0.723  0.00  0.00    +0.000 C 
ATOM     24  C   UNL     1      -6.115  -0.838   0.270  0.00  0.00    +0.000 C 
ATOM     25  C   UNL     1      -5.683  -2.009  -0.355  0.00  0.00    +0.000 C 
ENDBRANCH  19  20
ENDBRANCH   5  19
TORSDOF 4
