REMARK  Name = 2762
REMARK  3 active torsions:
REMARK  status: ('A' for Active; 'I' for Inactive)
REMARK    1  A    between atoms: N_4  and  C_19
REMARK    2  A    between atoms: C_13  and  C_16
REMARK    3  A    between atoms: C_16  and  O_17
REMARK                            x       y       z     vdW  Elec       q    Type
REMARK                         _______ _______ _______ _____ _____    ______ ____
ROOT
ATOM      1  O   UNL     1      -4.034   0.720   0.118  0.00  0.00    -0.435 OA
ATOM      2  O   UNL     1      -3.755  -1.657  -0.164  0.00  0.00    -0.435 OA
ATOM      3  O   UNL     1       1.391  -2.448  -0.186  0.00  0.00    -0.285 OA
ATOM      4  N   UNL     1       0.812   1.469   0.277  0.00  0.00    -0.250 N 
ATOM      5  N   UNL     1       2.079   0.974   0.235  0.00  0.00    -0.159 NA
ATOM      6  C   UNL     1      -0.338   0.674   0.165  0.00  0.00    +0.084 A 
ATOM      7  C   UNL     1      -0.216  -0.722  -0.001  0.00  0.00    +0.061 A 
ATOM      8  C   UNL     1      -2.723   0.351   0.092  0.00  0.00    +0.178 C 
ATOM      9  C   UNL     1      -1.641   1.206   0.210  0.00  0.00    +0.059 C 
ATOM     10  C   UNL     1      -2.566  -1.003  -0.068  0.00  0.00    +0.177 C 
ATOM     11  C   UNL     1      -1.318  -1.579  -0.120  0.00  0.00    +0.045 C 
ATOM     12  C   UNL     1       1.141  -1.263  -0.047  0.00  0.00    +0.223 A 
ATOM     13  C   UNL     1       2.275  -0.296   0.085  0.00  0.00    +0.215 A 
ATOM     14  C   UNL     1      -4.682  -0.559  -0.043  0.00  0.00    +0.429 C 
ENDROOT
BRANCH  13  16
ATOM     15  O   UNL     1       4.330  -1.016   1.038  0.00  0.00    -0.243 OA
ATOM     16  C   UNL     1       3.706  -0.712   0.055  0.00  0.00    +0.361 C 
BRANCH  16  17
ATOM     17  O   UNL     1       4.134  -0.680  -1.216  0.00  0.00    -0.476 OA
ATOM     18  H   UNL     1       3.549  -0.424  -1.901  0.00  0.00    +0.295 HD
ENDBRANCH  16  17
ENDBRANCH  13  16
BRANCH   4  19
ATOM     19  C   UNL     1       0.710   2.910   0.450  0.00  0.00    +0.128 C 
ATOM     20  C   UNL     1       0.691   3.629  -0.883  0.00  0.00    +0.028 C 
ENDBRANCH   4  19
TORSDOF 3
