REMARK  Name = 3676
REMARK  5 active torsions:
REMARK  status: ('A' for Active; 'I' for Inactive)
REMARK    1  A    between atoms: N_2  and  C_5
REMARK    2  A    between atoms: C_3  and  C_13
REMARK    3  A    between atoms: C_13  and  N_14
REMARK    4  A    between atoms: N_14  and  C_16
REMARK    5  A    between atoms: N_14  and  C_18
REMARK                            x       y       z     vdW  Elec       q    Type
REMARK                         _______ _______ _______ _____ _____    ______ ____
ROOT
ATOM      1  O   UNL     1       0.666  -0.134   1.461  0.00  0.00    -0.277 OA
ATOM      2  N   UNL     1      -0.399  -0.396  -0.615  0.00  0.00    -0.286 N 
ATOM      3  C   UNL     1       0.685  -0.383   0.260  0.00  0.00    +0.205 C 
ATOM      4  H   UNL     1      -0.198  -0.614  -1.554  0.00  0.00    +0.155 HD
ENDROOT
BRANCH   2   5
ATOM      5  C   UNL     1      -1.756  -0.130  -0.312  0.00  0.00    +0.042 C 
ATOM      6  C   UNL     1      -2.586  -1.174   0.069  0.00  0.00    -0.009 C 
ATOM      7  C   UNL     1      -2.232   1.169  -0.403  0.00  0.00    -0.009 C 
ATOM      8  C   UNL     1      -3.923  -0.912   0.366  0.00  0.00    -0.003 C 
ATOM      9  C   UNL     1      -3.570   1.431  -0.105  0.00  0.00    -0.003 C 
ATOM     10  C   UNL     1      -2.088  -2.579   0.171  0.00  0.00    +0.032 C 
ATOM     11  C   UNL     1      -1.351   2.305  -0.812  0.00  0.00    +0.032 C 
ATOM     12  C   UNL     1      -4.415   0.390   0.279  0.00  0.00    -0.001 C 
ENDBRANCH   2   5
BRANCH   3  13
ATOM     13  C   UNL     1       1.965  -0.726  -0.484  0.00  0.00    +0.010 C 
BRANCH  13  14
ATOM     14  N   UNL     1       3.094  -0.051   0.154  0.00  0.00    +0.393 N 
ATOM     15  H   UNL     1       3.144  -0.355   1.127  0.00  0.00    -0.079 HD
BRANCH  14  16
ATOM     16  C   UNL     1       2.904   1.399   0.131  0.00  0.00    -0.077 C 
ATOM     17  C   UNL     1       4.069   2.116   0.790  0.00  0.00    -0.025 C 
ENDBRANCH  14  16
BRANCH  14  18
ATOM     18  C   UNL     1       4.347  -0.413  -0.509  0.00  0.00    -0.077 C 
ATOM     19  C   UNL     1       4.592  -1.911  -0.440  0.00  0.00    -0.025 C 
ENDBRANCH  14  18
ENDBRANCH  13  14
ENDBRANCH   3  13
TORSDOF 5
