REMARK  Name = 5359
REMARK  5 active torsions:
REMARK  status: ('A' for Active; 'I' for Inactive)
REMARK    1  A    between atoms: C_1  and  C_14
REMARK    2  A    between atoms: C_4  and  C_8
REMARK    3  A    between atoms: C_8  and  C_10
REMARK    4  A    between atoms: C_14  and  C_17
REMARK    5  A    between atoms: C_17  and  O_18
REMARK                            x       y       z     vdW  Elec       q    Type
REMARK                         _______ _______ _______ _____ _____    ______ ____
ROOT
ATOM      1  C   UNL     1       2.037  -0.230  -0.427  0.00  0.00    -0.012 C 
ATOM      2  C   UNL     1       1.191   0.719   0.147  0.00  0.00    -0.004 C 
ATOM      3  C   UNL     1       1.526  -1.460  -0.843  0.00  0.00    -0.004 C 
ATOM      4  C   UNL     1      -0.677  -0.791  -0.111  0.00  0.00    +0.039 C 
ATOM      5  C   UNL     1      -0.166   0.438   0.305  0.00  0.00    +0.003 C 
ATOM      6  C   UNL     1       0.169  -1.740  -0.685  0.00  0.00    +0.003 C 
ENDROOT
BRANCH   4   8
ATOM      7  O   UNL     1      -2.473  -2.251   0.230  0.00  0.00    -0.286 OA
ATOM      8  C   UNL     1      -2.092  -1.084   0.054  0.00  0.00    +0.201 C 
BRANCH   8  10
ATOM      9  S   UNL     1      -4.525  -0.279   0.938  0.00  0.00    -0.083 S 
ATOM     10  C   UNL     1      -3.139  -0.019   0.022  0.00  0.00    +0.068 C 
ATOM     11  C   UNL     1      -3.090   1.127  -0.663  0.00  0.00    +0.010 C 
ATOM     12  C   UNL     1      -4.279   1.878  -0.436  0.00  0.00    +0.008 C 
ATOM     13  C   UNL     1      -5.146   1.229   0.416  0.00  0.00    +0.036 C 
ENDBRANCH   8  10
ENDBRANCH   4   8
BRANCH   1  14
ATOM     14  C   UNL     1       3.488   0.070  -0.597  0.00  0.00    +0.121 C 
ATOM     15  C   UNL     1       3.773   1.281  -1.510  0.00  0.00    +0.016 C 
BRANCH  14  17
ATOM     16  O   UNL     1       3.662   0.258   1.832  0.00  0.00    -0.250 OA
ATOM     17  C   UNL     1       4.208   0.296   0.737  0.00  0.00    +0.317 C 
BRANCH  17  18
ATOM     18  O   UNL     1       5.534   0.558   0.590  0.00  0.00    -0.480 OA
ATOM     19  H   UNL     1       5.915   0.578  -0.265  0.00  0.00    +0.295 HD
ENDBRANCH  17  18
ENDBRANCH  14  17
ENDBRANCH   1  14
TORSDOF 5
