REMARK  Name = 3168
REMARK  6 active torsions:
REMARK  status: ('A' for Active; 'I' for Inactive)
REMARK    1  A    between atoms: N_1  and  C_19
REMARK    2  A    between atoms: C_5  and  N_9
REMARK    3  A    between atoms: C_19  and  C_20
REMARK    4  A    between atoms: C_20  and  C_21
REMARK    5  A    between atoms: C_21  and  C_23
REMARK    6  A    between atoms: C_23  and  C_25
REMARK                            x       y       z     vdW  Elec       q    Type
REMARK                         _______ _______ _______ _____ _____    ______ ____
ROOT
ATOM      1  N   UNL     1      -0.012   0.281  -0.275  0.00  0.00    +0.390 N 
ATOM      2  C   UNL     1       0.500   1.054   0.863  0.00  0.00    -0.071 C 
ATOM      3  C   UNL     1       1.946   1.501   0.596  0.00  0.00    +0.021 C 
ATOM      4  C   UNL     1       0.770  -0.952  -0.465  0.00  0.00    -0.049 C 
ATOM      5  C   UNL     1       2.801   0.395   0.044  0.00  0.00    +0.037 C 
ATOM      6  C   UNL     1       2.258  -0.737  -0.428  0.00  0.00    -0.036 C 
ATOM      7  H   UNL     1       0.087   0.855  -1.112  0.00  0.00    -0.079 HD
ENDROOT
BRANCH   5   9
ATOM      8  O   UNL     1       4.327   2.959  -0.181  0.00  0.00    -0.246 OA
ATOM      9  N   UNL     1       4.153   0.586   0.060  0.00  0.00    -0.263 N 
ATOM     10  N   UNL     1       6.215   1.556   0.015  0.00  0.00    -0.305 N 
ATOM     11  C   UNL     1       5.127  -0.422   0.191  0.00  0.00    +0.083 A 
ATOM     12  C   UNL     1       4.824   1.848  -0.053  0.00  0.00    +0.332 A 
ATOM     13  C   UNL     1       6.383   0.181   0.162  0.00  0.00    +0.076 A 
ATOM     14  C   UNL     1       4.995  -1.789   0.329  0.00  0.00    +0.019 C 
ATOM     15  C   UNL     1       7.554  -0.537   0.268  0.00  0.00    +0.019 C 
ATOM     16  C   UNL     1       6.170  -2.541   0.438  0.00  0.00    +0.002 C 
ATOM     17  C   UNL     1       7.436  -1.921   0.408  0.00  0.00    +0.002 C 
ATOM     18  H   UNL     1       6.942   2.219  -0.034  0.00  0.00    +0.170 HD
ENDBRANCH   5   9
BRANCH   1  19
ATOM     19  C   UNL     1      -1.431  -0.027  -0.105  0.00  0.00    -0.076 C 
BRANCH  19  20
ATOM     20  C   UNL     1      -1.970  -0.737  -1.348  0.00  0.00    -0.015 C 
BRANCH  20  21
ATOM     21  C   UNL     1      -3.457  -1.081  -1.222  0.00  0.00    +0.067 C 
BRANCH  21  23
ATOM     22  O   UNL     1      -4.052   1.229  -1.592  0.00  0.00    -0.291 OA
ATOM     23  C   UNL     1      -4.352   0.144  -1.099  0.00  0.00    +0.173 C 
BRANCH  23  25
ATOM     24  F   UNL     1      -9.201  -0.348   1.625  0.00  0.00    -0.204 F 
ATOM     25  C   UNL     1      -5.646   0.013  -0.370  0.00  0.00    +0.035 C 
ATOM     26  C   UNL     1      -6.290  -1.204  -0.382  0.00  0.00    +0.005 C 
ATOM     27  C   UNL     1      -6.150   1.113   0.286  0.00  0.00    +0.005 C 
ATOM     28  C   UNL     1      -7.502  -1.327   0.298  0.00  0.00    +0.030 C 
ATOM     29  C   UNL     1      -7.362   0.991   0.966  0.00  0.00    +0.030 C 
ATOM     30  C   UNL     1      -8.038  -0.230   0.972  0.00  0.00    +0.140 C 
ENDBRANCH  23  25
ENDBRANCH  21  23
ENDBRANCH  20  21
ENDBRANCH  19  20
ENDBRANCH   1  19
TORSDOF 6
