REMARK  Name = 667484
REMARK  5 active torsions:
REMARK  status: ('A' for Active; 'I' for Inactive)
REMARK    1  A    between atoms: N_1  and  C_11
REMARK    2  A    between atoms: C_3  and  C_7
REMARK    3  A    between atoms: C_7  and  O_8
REMARK    4  A    between atoms: O_8  and  C_9
REMARK    5  A    between atoms: C_11  and  C_13
REMARK                            x       y       z     vdW  Elec       q    Type
REMARK                         _______ _______ _______ _____ _____    ______ ____
ROOT
ATOM      1  N   UNL     1      -0.059  -1.153  -0.077  0.00  0.00    -0.261 N 
ATOM      2  N   UNL     1      -0.640  -2.545   1.500  0.00  0.00    -0.224 NA
ATOM      3  C   UNL     1      -1.357  -0.884   0.134  0.00  0.00    +0.149 C 
ATOM      4  C   UNL     1       0.351  -2.139   0.738  0.00  0.00    +0.168 C 
ATOM      5  C   UNL     1      -1.708  -1.767   1.127  0.00  0.00    +0.122 C 
ENDROOT
BRANCH   3   7
ATOM      6  O   UNL     1      -1.998   0.483  -1.712  0.00  0.00    -0.243 OA
ATOM      7  C   UNL     1      -2.158   0.092  -0.531  0.00  0.00    +0.357 C 
BRANCH   7   8
ATOM      8  O   UNL     1      -3.165   0.586   0.270  0.00  0.00    -0.445 OA
BRANCH   8   9
ATOM      9  C   UNL     1      -4.040   1.574  -0.285  0.00  0.00    +0.209 C 
ATOM     10  C   UNL     1      -5.061   1.972   0.759  0.00  0.00    +0.051 C 
ENDBRANCH   8   9
ENDBRANCH   7   8
ENDBRANCH   3   7
BRANCH   1  11
ATOM     11  C   UNL     1       0.813  -0.469  -1.066  0.00  0.00    +0.101 C 
ATOM     12  C   UNL     1       1.196  -1.441  -2.207  0.00  0.00    +0.027 C 
BRANCH  11  13
ATOM     13  C   UNL     1       1.928   0.263  -0.399  0.00  0.00    -0.004 C 
ATOM     14  C   UNL     1       1.706   1.530   0.141  0.00  0.00    -0.003 C 
ATOM     15  C   UNL     1       3.193  -0.319  -0.315  0.00  0.00    -0.003 C 
ATOM     16  C   UNL     1       2.748   2.215   0.765  0.00  0.00    -0.000 C 
ATOM     17  C   UNL     1       4.236   0.367   0.310  0.00  0.00    -0.000 C 
ATOM     18  C   UNL     1       4.013   1.634   0.849  0.00  0.00    -0.000 C 
ENDBRANCH  11  13
ENDBRANCH   1  11
TORSDOF 5
