REMARK  Name = 16666
REMARK  2 active torsions:
REMARK  status: ('A' for Active; 'I' for Inactive)
REMARK    1  A    between atoms: C_1  and  C_8
REMARK    2  A    between atoms: C_2  and  O_11
REMARK                            x       y       z     vdW  Elec       q    Type
REMARK                         _______ _______ _______ _____ _____    ______ ____
ROOT
ATOM      1  C   UNL     1       0.706  -0.035   0.428  0.00  0.00    +0.027 C 
ATOM      2  C   UNL     1      -0.070   1.157  -0.156  0.00  0.00    +0.110 C 
ATOM      3  C   UNL     1       0.119  -1.364  -0.067  0.00  0.00    +0.002 C 
ATOM      4  C   UNL     1      -2.149  -0.282  -0.374  0.00  0.00    +0.002 C 
ATOM      5  C   UNL     1      -1.571   1.045   0.126  0.00  0.00    +0.029 C 
ATOM      6  C   UNL     1      -1.377  -1.467   0.220  0.00  0.00    +0.000 C 
ATOM      7  C   UNL     1      -3.636  -0.384  -0.038  0.00  0.00    +0.000 C 
ENDROOT
BRANCH   1   8
ATOM      8  C   UNL     1       2.196   0.048   0.087  0.00  0.00    +0.002 C 
ATOM      9  C   UNL     1       2.964  -1.076   0.777  0.00  0.00    +0.000 C 
ATOM     10  C   UNL     1       2.401  -0.007  -1.424  0.00  0.00    +0.000 C 
ENDBRANCH   1   8
BRANCH   2  11
ATOM     11  O   UNL     1       0.417   2.366   0.421  0.00  0.00    -0.384 OA
ATOM     12  H   UNL     1       1.368   2.446   0.248  0.00  0.00    +0.210 HD
ENDBRANCH   2  11
TORSDOF 2
