REMARK  Name = 4837
REMARK  0 active torsions:
REMARK  status: ('A' for Active; 'I' for Inactive)
REMARK                            x       y       z     vdW  Elec       q    Type
REMARK                         _______ _______ _______ _____ _____    ______ ____
ROOT
ATOM      1  N   UNL     1       1.427   0.001   0.229  0.00  0.00    +0.381 N 
ATOM      2  N   UNL     1      -1.433  -0.001  -0.231  0.00  0.00    +0.381 N 
ATOM      3  C   UNL     1       0.731   1.205  -0.225  0.00  0.00    -0.106 C 
ATOM      4  C   UNL     1       0.733  -1.204  -0.225  0.00  0.00    -0.106 C 
ATOM      5  C   UNL     1      -0.730   1.200   0.226  0.00  0.00    -0.106 C 
ATOM      6  C   UNL     1      -0.728  -1.202   0.226  0.00  0.00    -0.106 C 
ATOM      7  H   UNL     1       1.466   0.001   1.248  0.00  0.00    -0.085 HD
ATOM      8  H   UNL     1       2.369   0.002  -0.163  0.00  0.00    -0.085 HD
ATOM      9  H   UNL     1      -1.473  -0.001  -1.250  0.00  0.00    -0.085 HD
ATOM     10  H   UNL     1      -2.378  -0.002   0.154  0.00  0.00    -0.085 HD
ENDROOT
TORSDOF 0
