REMARK  Name = 3162
REMARK  6 active torsions:
REMARK  status: ('A' for Active; 'I' for Inactive)
REMARK    1  A    between atoms: C_1  and  C_4
REMARK    2  A    between atoms: C_1  and  C_9
REMARK    3  A    between atoms: C_1  and  O_15
REMARK    4  A    between atoms: O_15  and  C_16
REMARK    5  A    between atoms: C_16  and  C_17
REMARK    6  A    between atoms: C_17  and  N_18
REMARK                            x       y       z     vdW  Elec       q    Type
REMARK                         _______ _______ _______ _____ _____    ______ ____
ROOT
ATOM      1  C   UNL     1      -0.470  -0.260   0.635  0.00  0.00    +0.146 C 
ATOM      2  C   UNL     1      -0.311  -0.487   2.151  0.00  0.00    +0.040 C 
ENDROOT
BRANCH   1   4
ATOM      3  N   UNL     1       0.090   2.044   1.127  0.00  0.00    -0.246 NA
ATOM      4  C   UNL     1      -0.172   1.166   0.158  0.00  0.00    +0.087 C 
ATOM      5  C   UNL     1      -0.200   1.408  -1.187  0.00  0.00    +0.017 C 
ATOM      6  C   UNL     1       0.074   2.711  -1.587  0.00  0.00    +0.003 C 
ATOM      7  C   UNL     1       0.351   3.300   0.701  0.00  0.00    +0.099 C 
ATOM      8  C   UNL     1       0.356   3.681  -0.631  0.00  0.00    +0.021 C 
ENDBRANCH   1   4
BRANCH   1   9
ATOM      9  C   UNL     1      -1.873  -0.709   0.205  0.00  0.00    +0.007 C 
ATOM     10  C   UNL     1      -2.955   0.015   0.645  0.00  0.00    -0.002 C 
ATOM     11  C   UNL     1      -1.988  -1.815  -0.602  0.00  0.00    -0.002 C 
ATOM     12  C   UNL     1      -4.230  -0.393   0.254  0.00  0.00    -0.000 C 
ATOM     13  C   UNL     1      -3.263  -2.222  -0.993  0.00  0.00    -0.000 C 
ATOM     14  C   UNL     1      -4.385  -1.512  -0.565  0.00  0.00    -0.000 C 
ENDBRANCH   1   9
BRANCH   1  15
ATOM     15  O   UNL     1       0.513  -1.110   0.060  0.00  0.00    -0.351 OA
BRANCH  15  16
ATOM     16  C   UNL     1       1.826  -0.720   0.440  0.00  0.00    +0.120 C 
BRANCH  16  17
ATOM     17  C   UNL     1       2.824  -1.668  -0.207  0.00  0.00    -0.045 C 
BRANCH  17  18
ATOM     18  N   UNL     1       4.194  -1.293   0.143  0.00  0.00    +0.386 N 
ATOM     19  C   UNL     1       4.471   0.080  -0.278  0.00  0.00    -0.101 C 
ATOM     20  C   UNL     1       5.148  -2.218  -0.468  0.00  0.00    -0.101 C 
ATOM     21  H   UNL     1       4.295  -1.347   1.156  0.00  0.00    -0.080 HD
ENDBRANCH  17  18
ENDBRANCH  16  17
ENDBRANCH  15  16
ENDBRANCH   1  15
TORSDOF 6
