REMARK  Name = 3393
REMARK  6 active torsions:
REMARK  status: ('A' for Active; 'I' for Inactive)
REMARK    1  A    between atoms: N_3  and  C_21
REMARK    2  A    between atoms: C_8  and  C_15
REMARK    3  A    between atoms: C_21  and  C_22
REMARK    4  A    between atoms: C_22  and  N_23
REMARK    5  A    between atoms: N_23  and  C_25
REMARK    6  A    between atoms: N_23  and  C_27
REMARK                            x       y       z     vdW  Elec       q    Type
REMARK                         _______ _______ _______ _____ _____    ______ ____
ROOT
ATOM      1 CL   UNL     1      -1.790   4.654  -1.031  0.00  0.00    -0.082 Cl
ATOM      2  O   UNL     1       1.300  -1.782   2.783  0.00  0.00    -0.272 OA
ATOM      3  N   UNL     1       1.220   0.070   1.372  0.00  0.00    -0.259 N 
ATOM      4  N   UNL     1      -1.619  -0.919   1.805  0.00  0.00    -0.260 NA
ATOM      5  C   UNL     1       0.469   1.131   0.758  0.00  0.00    +0.055 C 
ATOM      6  C   UNL     1      -0.917   1.051   0.509  0.00  0.00    +0.032 C 
ATOM      7  C   UNL     1       0.692  -0.813   2.321  0.00  0.00    +0.254 C 
ATOM      8  C   UNL     1      -1.704  -0.198   0.739  0.00  0.00    +0.080 C 
ATOM      9  C   UNL     1      -0.690  -0.495   2.832  0.00  0.00    +0.210 C 
ATOM     10  C   UNL     1       1.133   2.311   0.366  0.00  0.00    +0.016 C 
ATOM     11  C   UNL     1      -1.609   2.147  -0.036  0.00  0.00    +0.014 C 
ATOM     12  C   UNL     1       0.442   3.388  -0.194  0.00  0.00    +0.013 C 
ATOM     13  C   UNL     1      -0.931   3.311  -0.384  0.00  0.00    +0.058 C 
ENDROOT
BRANCH   8  15
ATOM     14  F   UNL     1      -4.060  -1.645   1.309  0.00  0.00    -0.204 F 
ATOM     15  C   UNL     1      -2.638  -0.667  -0.325  0.00  0.00    +0.045 C 
ATOM     16  C   UNL     1      -3.782  -1.375   0.025  0.00  0.00    +0.142 C 
ATOM     17  C   UNL     1      -2.354  -0.390  -1.656  0.00  0.00    +0.004 C 
ATOM     18  C   UNL     1      -4.654  -1.812  -0.972  0.00  0.00    +0.030 C 
ATOM     19  C   UNL     1      -3.227  -0.827  -2.653  0.00  0.00    +0.000 C 
ATOM     20  C   UNL     1      -4.377  -1.538  -2.311  0.00  0.00    +0.002 C 
ENDBRANCH   8  15
BRANCH   3  21
ATOM     21  C   UNL     1       2.637  -0.056   1.031  0.00  0.00    +0.076 C 
BRANCH  21  22
ATOM     22  C   UNL     1       2.823  -0.796  -0.285  0.00  0.00    -0.055 C 
BRANCH  22  23
ATOM     23  N   UNL     1       4.239  -0.885  -0.620  0.00  0.00    +0.388 N 
ATOM     24  H   UNL     1       4.714  -1.373   0.139  0.00  0.00    -0.080 HD
BRANCH  23  25
ATOM     25  C   UNL     1       4.823   0.451  -0.754  0.00  0.00    -0.077 C 
ATOM     26  C   UNL     1       6.313   0.372  -1.037  0.00  0.00    -0.025 C 
ENDBRANCH  23  25
BRANCH  23  27
ATOM     27  C   UNL     1       4.430  -1.648  -1.855  0.00  0.00    -0.077 C 
ATOM     28  C   UNL     1       3.831  -3.040  -1.740  0.00  0.00    -0.025 C 
ENDBRANCH  23  27
ENDBRANCH  22  23
ENDBRANCH  21  22
ENDBRANCH   3  21
TORSDOF 6
