REMARK  Name = 3955
REMARK  8 active torsions:
REMARK  status: ('A' for Active; 'I' for Inactive)
REMARK    1  A    between atoms: C_1  and  C_2
REMARK    2  A    between atoms: C_1  and  C_19
REMARK    3  A    between atoms: C_2  and  N_3
REMARK    4  A    between atoms: C_4  and  C_11
REMARK    5  A    between atoms: C_4  and  O_17
REMARK    6  A    between atoms: C_19  and  C_20
REMARK    7  A    between atoms: C_19  and  C_26
REMARK    8  A    between atoms: C_19  and  C_34
REMARK                            x       y       z     vdW  Elec       q    Type
REMARK                         _______ _______ _______ _____ _____    ______ ____
ROOT
ATOM      1  C   UNL     1      -1.341   0.415  -0.162  0.00  0.00    -0.006 C 
ENDROOT
BRANCH   1   2
ATOM      2  C   UNL     1      -0.428  -0.594  -0.878  0.00  0.00    -0.076 C 
BRANCH   2   3
ATOM      3  N   UNL     1       0.973  -0.217  -0.696  0.00  0.00    +0.387 N 
ATOM      4  C   UNL     1       3.797  -0.600   0.143  0.00  0.00    +0.103 C 
ATOM      5  C   UNL     1       3.323  -0.706  -1.325  0.00  0.00    +0.008 C 
ATOM      6  C   UNL     1       2.772   0.246   0.931  0.00  0.00    +0.008 C 
ATOM      7  C   UNL     1       1.850  -1.111  -1.459  0.00  0.00    -0.075 C 
ATOM      8  C   UNL     1       1.326  -0.219   0.728  0.00  0.00    -0.075 C 
ATOM      9  H   UNL     1       1.104   0.730  -1.051  0.00  0.00    -0.080 HD
BRANCH   4  11
ATOM     10 CL   UNL     1       9.486   1.410   0.387  0.00  0.00    -0.082 Cl
ATOM     11  C   UNL     1       5.238  -0.092   0.206  0.00  0.00    +0.002 C 
ATOM     12  C   UNL     1       6.248  -0.776  -0.469  0.00  0.00    -0.001 C 
ATOM     13  C   UNL     1       5.540   1.056   0.938  0.00  0.00    -0.001 C 
ATOM     14  C   UNL     1       7.562  -0.312  -0.413  0.00  0.00    +0.011 C 
ATOM     15  C   UNL     1       6.854   1.520   0.994  0.00  0.00    +0.011 C 
ATOM     16  C   UNL     1       7.865   0.836   0.318  0.00  0.00    +0.058 C 
ENDBRANCH   4  11
BRANCH   4  17
ATOM     17  O   UNL     1       3.828  -1.909   0.730  0.00  0.00    -0.383 OA
ATOM     18  H   UNL     1       2.936  -2.290   0.720  0.00  0.00    +0.211 HD
ENDBRANCH   4  17
ENDBRANCH   2   3
ENDBRANCH   1   2
BRANCH   1  19
ATOM     19  C   UNL     1      -2.889   0.139  -0.234  0.00  0.00    +0.104 C 
BRANCH  19  20
ATOM     20  C   UNL     1      -3.063  -1.310   0.358  0.00  0.00    -0.011 C 
ATOM     21  C   UNL     1      -3.300  -1.405   1.689  0.00  0.00    -0.004 C 
ATOM     22  C   UNL     1      -2.960  -2.345  -0.510  0.00  0.00    -0.004 C 
ATOM     23  C   UNL     1      -3.453  -2.688   2.214  0.00  0.00    -0.000 C 
ATOM     24  C   UNL     1      -3.113  -3.628   0.015  0.00  0.00    -0.000 C 
ATOM     25  C   UNL     1      -3.359  -3.800   1.377  0.00  0.00    -0.000 C 
ENDBRANCH  19  20
BRANCH  19  26
ATOM     26  C   UNL     1      -3.737   1.143   0.606  0.00  0.00    -0.011 C 
ATOM     27  C   UNL     1      -5.081   0.935   0.667  0.00  0.00    -0.004 C 
ATOM     28  C   UNL     1      -3.076   2.163   1.222  0.00  0.00    -0.004 C 
ATOM     29  C   UNL     1      -5.839   1.834   1.418  0.00  0.00    -0.000 C 
ATOM     30  C   UNL     1      -3.833   3.061   1.973  0.00  0.00    -0.000 C 
ATOM     31  C   UNL     1      -5.215   2.897   2.071  0.00  0.00    -0.000 C 
ENDBRANCH  19  26
BRANCH  19  34
ATOM     32  O   UNL     1      -4.404  -0.486  -2.052  0.00  0.00    -0.274 OA
ATOM     33  N   UNL     1      -2.883   1.115  -2.642  0.00  0.00    -0.276 N 
ATOM     34  C   UNL     1      -3.441   0.222  -1.721  0.00  0.00    +0.232 C 
ATOM     35  C   UNL     1      -2.305   2.423  -2.360  0.00  0.00    +0.115 C 
ATOM     36  C   UNL     1      -2.941   0.781  -4.061  0.00  0.00    +0.115 C 
ENDBRANCH  19  34
ENDBRANCH   1  19
TORSDOF 8
