REMARK  Name = 5362129
REMARK  11 active torsions:
REMARK  status: ('A' for Active; 'I' for Inactive)
REMARK    1  A    between atoms: N_1  and  CA_4
REMARK    2  A    between atoms: N_1  and  C_20
REMARK    3  A    between atoms: CA_4  and  C_15
REMARK    4  A    between atoms: CA_13  and  C_17
REMARK    5  A    between atoms: C_17  and  O_18
REMARK    6  A    between atoms: C_20  and  C_22
REMARK    7  A    between atoms: C_20  and  C_26
REMARK    8  A    between atoms: C_22  and  O_23
REMARK    9  A    between atoms: O_23  and  C_24
REMARK   10  A    between atoms: C_26  and  C_27
REMARK   11  A    between atoms: C_27  and  C_28
REMARK                            x       y       z     vdW  Elec       q    Type
REMARK                         _______ _______ _______ _____ _____    ______ ____
ROOT
ATOM      1  N   ALA A   1      -0.574   2.025  -0.039  0.00  0.00    +0.399 N 
ATOM      2  H1  ALA A   1      -0.440   3.033   0.033  0.00  0.00    -0.083 HD
ATOM      3  H2  ALA A   1      -0.526   1.590   0.883  0.00  0.00    -0.083 HD
ENDROOT
BRANCH   1   4
ATOM      4  CA  ALA A   1       0.479   1.464  -0.868  0.00  0.00    +0.018 C 
ATOM      5  CB  ALA A   1       0.458   2.067  -2.259  0.00  0.00    -0.014 C 
BRANCH   4  15
ATOM      6  O   ALA A   1       1.904   2.817   0.471  0.00  0.00    -0.277 OA
ATOM      7  N   ALA A   1       2.808   0.858  -0.364  0.00  0.00    -0.275 N 
ATOM      8  C   ALA A   1       5.039  -0.005  -0.442  0.00  0.00    +0.020 C 
ATOM      9  C   ALA A   1       4.160   1.123   0.118  0.00  0.00    +0.076 C 
ATOM     10  C   ALA A   1       4.186  -0.704  -1.498  0.00  0.00    +0.033 C 
ATOM     11  C   ALA A   1       5.424  -0.862   0.761  0.00  0.00    +0.002 C 
ATOM     12  C   ALA A   1       4.288   1.044   1.644  0.00  0.00    +0.020 C 
ATOM     13  CA  ALA A   1       2.742  -0.382  -1.128  0.00  0.00    +0.174 C 
ATOM     14  C   ALA A   1       5.493   0.148   1.894  0.00  0.00    +0.002 C 
ATOM     15  C   ALA A   1       1.787   1.782  -0.189  0.00  0.00    +0.206 C 
BRANCH  13  17
ATOM     16  OXT ALA A   1       1.766  -1.295   0.887  0.00  0.00    -0.248 OA
ATOM     17  C   ALA A   1       2.144  -1.452  -0.265  0.00  0.00    +0.332 C 
BRANCH  17  18
ATOM     18  O   ALA A   1       2.079  -2.628  -0.936  0.00  0.00    -0.479 OA
ATOM     19  H   ALA A   1       2.386  -2.680  -1.819  0.00  0.00    +0.295 HD
ENDBRANCH  17  18
ENDBRANCH  13  17
ENDBRANCH   4  15
ENDBRANCH   1   4
BRANCH   1  20
ATOM     20  C   UNK A   0      -1.889   1.758  -0.609  0.00  0.00    +0.041 C 
BRANCH  20  22
ATOM     21  O   UNK A   0      -2.681   2.910   1.393  0.00  0.00    -0.252 OA
ATOM     22  C   UNK A   0      -2.924   2.362   0.325  0.00  0.00    +0.297 C 
BRANCH  22  23
ATOM     23  O   UNK A   0      -4.168   2.201  -0.220  0.00  0.00    -0.450 OA
BRANCH  23  24
ATOM     24  C   UNK A   0      -5.253   2.731   0.549  0.00  0.00    +0.208 C 
ATOM     25  C   UNK A   0      -6.550   2.473  -0.186  0.00  0.00    +0.051 C 
ENDBRANCH  23  24
ENDBRANCH  22  23
ENDBRANCH  20  22
BRANCH  20  26
ATOM     26  C   UNK A   0      -2.147   0.251  -0.762  0.00  0.00    -0.006 C 
BRANCH  26  27
ATOM     27  C   UNK A   0      -2.130  -0.553   0.545  0.00  0.00    +0.025 C 
BRANCH  27  28
ATOM     28  C   UNK A   0      -2.449  -2.016   0.363  0.00  0.00    -0.022 C 
ATOM     29  C   UNK A   0      -3.766  -2.441   0.441  0.00  0.00    -0.004 C 
ATOM     30  C   UNK A   0      -1.419  -2.912   0.121  0.00  0.00    -0.004 C 
ATOM     31  C   UNK A   0      -4.061  -3.794   0.273  0.00  0.00    -0.000 C 
ATOM     32  C   UNK A   0      -1.713  -4.265  -0.048  0.00  0.00    -0.000 C 
ATOM     33  C   UNK A   0      -3.034  -4.706   0.028  0.00  0.00    -0.000 C 
ENDBRANCH  27  28
ENDBRANCH  26  27
ENDBRANCH  20  26
ENDBRANCH   1  20
TORSDOF 11
