5253
  -OEChem-10051719163D

 38 38  0     1  0  0  0  0  0999 V2000
    4.4594    0.7468   -0.3136 S   0  0  0  0  0  0  0  0  0  0  0  0
   -2.4475   -2.0677    0.7575 O   0  0  0  0  0  0  0  0  0  0  0  0
    5.8862    0.5878   -0.1028 O   0  0  0  0  0  0  0  0  0  0  0  0
    3.9134    0.7923   -1.6557 O   0  0  0  0  0  0  0  0  0  0  0  0
   -4.1350   -0.0697   -0.4462 N   0  0  0  0  0  0  0  0  0  0  0  0
    3.6338   -0.4196    0.6476 N   0  0  0  0  0  0  0  0  0  0  0  0
   -1.9515   -1.1872   -0.2498 C   0  0  1  0  0  0  0  0  0  0  0  0
   -2.7145    0.1428   -0.2161 C   0  0  0  0  0  0  0  0  0  0  0  0
   -4.8607    1.1992   -0.4114 C   0  0  0  0  0  0  0  0  0  0  0  0
   -0.4713   -0.9830   -0.0122 C   0  0  0  0  0  0  0  0  0  0  0  0
    0.4325   -1.4168   -0.9664 C   0  0  0  0  0  0  0  0  0  0  0  0
   -0.0528   -0.3679    1.1551 C   0  0  0  0  0  0  0  0  0  0  0  0
   -4.6791    1.8754    0.9446 C   0  0  0  0  0  0  0  0  0  0  0  0
   -6.3363    0.9484   -0.7054 C   0  0  0  0  0  0  0  0  0  0  0  0
    2.2369   -0.6114    0.4238 C   0  0  0  0  0  0  0  0  0  0  0  0
    1.7971   -1.2297   -0.7467 C   0  0  0  0  0  0  0  0  0  0  0  0
    1.3119   -0.1806    1.3749 C   0  0  0  0  0  0  0  0  0  0  0  0
    3.9775    2.2410    0.5227 C   0  0  0  0  0  0  0  0  0  0  0  0
   -2.1118   -1.6802   -1.2170 H   0  0  0  0  0  0  0  0  0  0  0  0
   -2.2975    0.8274   -0.9655 H   0  0  0  0  0  0  0  0  0  0  0  0
   -2.5653    0.5835    0.7725 H   0  0  0  0  0  0  0  0  0  0  0  0
   -4.4789    1.8670   -1.1942 H   0  0  0  0  0  0  0  0  0  0  0  0
   -4.2739   -0.5216   -1.3497 H   0  0  0  0  0  0  0  0  0  0  0  0
    0.1027   -1.9019   -1.8804 H   0  0  0  0  0  0  0  0  0  0  0  0
   -0.7541   -0.0407    1.9165 H   0  0  0  0  0  0  0  0  0  0  0  0
   -5.3923    2.7009    1.0552 H   0  0  0  0  0  0  0  0  0  0  0  0
   -4.8578    1.1818    1.7743 H   0  0  0  0  0  0  0  0  0  0  0  0
   -3.6852    2.3187    1.0625 H   0  0  0  0  0  0  0  0  0  0  0  0
   -6.4687    0.4790   -1.6866 H   0  0  0  0  0  0  0  0  0  0  0  0
   -6.8962    1.8899   -0.7120 H   0  0  0  0  0  0  0  0  0  0  0  0
   -6.7897    0.2933    0.0472 H   0  0  0  0  0  0  0  0  0  0  0  0
    2.5059   -1.5826   -1.4912 H   0  0  0  0  0  0  0  0  0  0  0  0
    1.6433    0.2999    2.2918 H   0  0  0  0  0  0  0  0  0  0  0  0
   -3.4057   -2.1582    0.6176 H   0  0  0  0  0  0  0  0  0  0  0  0
    3.9030   -0.4361    1.6406 H   0  0  0  0  0  0  0  0  0  0  0  0
    4.4973    3.0748    0.0453 H   0  0  0  0  0  0  0  0  0  0  0  0
    2.8994    2.3780    0.4258 H   0  0  0  0  0  0  0  0  0  0  0  0
    4.2743    2.1739    1.5710 H   0  0  0  0  0  0  0  0  0  0  0  0
  1  3  2  0  0  0  0
  1  4  2  0  0  0  0
  1  6  1  0  0  0  0
  1 18  1  0  0  0  0
  2  7  1  0  0  0  0
  2 34  1  0  0  0  0
  5  8  1  0  0  0  0
  5  9  1  0  0  0  0
  5 23  1  0  0  0  0
  6 15  1  0  0  0  0
  6 35  1  0  0  0  0
  7  8  1  0  0  0  0
  7 10  1  0  0  0  0
  7 19  1  0  0  0  0
  8 20  1  0  0  0  0
  8 21  1  0  0  0  0
  9 13  1  0  0  0  0
  9 14  1  0  0  0  0
  9 22  1  0  0  0  0
 10 11  2  0  0  0  0
 10 12  1  0  0  0  0
 11 16  1  0  0  0  0
 11 24  1  0  0  0  0
 12 17  2  0  0  0  0
 12 25  1  0  0  0  0
 13 26  1  0  0  0  0
 13 27  1  0  0  0  0
 13 28  1  0  0  0  0
 14 29  1  0  0  0  0
 14 30  1  0  0  0  0
 14 31  1  0  0  0  0
 15 16  2  0  0  0  0
 15 17  1  0  0  0  0
 16 32  1  0  0  0  0
 17 33  1  0  0  0  0
 18 36  1  0  0  0  0
 18 37  1  0  0  0  0
 18 38  1  0  0  0  0
M  END
> <DATABASE_ID>
DB00489

> <DATABASE_NAME>
drugbank

> <ORIGINAL_SOURCE>
PUBCHEM

> <ORIGINAL_SOURCE_URL>
https://pubchem.ncbi.nlm.nih.gov/rest/pug/compound/inchikey/ZBMZVLHSJCTVON-UHFFFAOYSA-N/SDF?record_type=3d

> <SMILES>
CC(C)NCC(O)C1=CC=C(NS(C)(=O)=O)C=C1

> <INCHI_IDENTIFIER>
InChI=1S/C12H20N2O3S/c1-9(2)13-8-12(15)10-4-6-11(7-5-10)14-18(3,16)17/h4-7,9,12-15H,8H2,1-3H3

> <INCHI_KEY>
ZBMZVLHSJCTVON-UHFFFAOYSA-N

> <FORMULA>
C12H20N2O3S

> <MOLECULAR_WEIGHT>
272.364

> <EXACT_MASS>
272.119463206

> <JCHEM_ACCEPTOR_COUNT>
4

> <JCHEM_AVERAGE_POLARIZABILITY>
29.34074945103318

> <JCHEM_BIOAVAILABILITY>
1

> <JCHEM_DONOR_COUNT>
3

> <JCHEM_FORMAL_CHARGE>
0

> <JCHEM_GHOSE_FILTER>
1

> <JCHEM_IUPAC>
N-(4-{1-hydroxy-2-[(propan-2-yl)amino]ethyl}phenyl)methanesulfonamide

> <ALOGPS_LOGP>
0.85

> <JCHEM_LOGP>
-0.3950640027108308

> <ALOGPS_LOGS>
-2.54

> <JCHEM_MDDR_LIKE_RULE>
0

> <JCHEM_NUMBER_OF_RINGS>
1

> <JCHEM_PHYSIOLOGICAL_CHARGE>
1

> <JCHEM_PKA>
14.100645593387327

> <JCHEM_PKA_STRONGEST_ACIDIC>
10.069402607110716

> <JCHEM_PKA_STRONGEST_BASIC>
9.428215396630177

> <JCHEM_POLAR_SURFACE_AREA>
78.42999999999999

> <JCHEM_REFRACTIVITY>
71.1191

> <JCHEM_ROTATABLE_BOND_COUNT>
5

> <JCHEM_RULE_OF_FIVE>
1

> <ALOGPS_SOLUBILITY>
7.82e-01 g/l

> <JCHEM_TRADITIONAL_IUPAC>
sotalol

> <JCHEM_VEBER_RULE>
0

> <DRUGBANK_ID>
DB00489

> <SECONDARY_ACCESSION_NUMBERS>
APRD01230

> <DRUG_GROUPS>
approved

> <GENERIC_NAME>
Sotalol

> <SYNONYMS>
4'-(1-hydroxy-2-(isopropylamino)ethyl)methane sulfonanilide; Sotalol; Sotalolo; Sotalolum; Î²-cardone

> <PRODUCTS>
Apo-sotalol - Tab 160mg; Apo-sotalol 80mg Tablets; Ava-sotalol; Betapace; Betapace AF; Co Sotalol; Dom-sotalol; Ftp-sotalol; Gen-sotalol 240mg; Jamp-sotalol; Linsotalol - Tab 80mg; Linsotalol -tab 160mg; Med Sotalol; Mylan-sotalol; Novo-sotalol Tab 160mg; Novo-sotalol Tab 80mg; Nu-sotalol - Tab 160 mg; Nu-sotalol - Tab 80mg; PHL-sotalol; PMS-sotalol - 160 mg; PMS-sotalol - 240 mg; PMS-sotalol - 80 mg; Pro-sotalol; Ratio-sotalol; Rho-sotalol; Rhoxal-sotalol; Riva-sotalol; Rylosol; Sandoz Sotalol; Sorine; Sotacor Tab 160mg; Sotacor Tab 240mg; Sotacor Tab 80mg; Sotalol; Sotalol Hydrochloride; Sotalol hydrochloride; Sotalol-160 - Tab 160mg; Sotalol-80 - Tab 80mg; Sotamol; Sotylize

> <INTERNATIONAL_BRANDS>
Biosotal; Cardol; Darob; Darob mite; Hipecor; Loritmik; Rytmobeta; Sotacor; Sotagard; Sotalex; Sotapor; Talozin; Tan Shi; Xi An Lin

> <SALTS>
Sotalol hydrochloride

$$$$
