REMARK  Name = 5193
REMARK  5 active torsions:
REMARK  status: ('A' for Active; 'I' for Inactive)
REMARK    1  A    between atoms: C_6  and  C_12
REMARK    2  A    between atoms: C_6  and  C_17
REMARK    3  A    between atoms: C_12  and  C_14
REMARK    4  A    between atoms: C_14  and  C_15
REMARK    5  A    between atoms: C_17  and  C_18
REMARK                            x       y       z     vdW  Elec       q    Type
REMARK                         _______ _______ _______ _____ _____    ______ ____
ROOT
ATOM      1  O   UNL     1       1.633  -1.112   1.739  0.00  0.00    -0.274 OA
ATOM      2  O   UNL     1      -0.275   0.292  -2.315  0.00  0.00    -0.274 OA
ATOM      3  O   UNL     1       2.359   3.130   0.148  0.00  0.00    -0.252 OA
ATOM      4  N   UNL     1       1.914   1.038   0.991  0.00  0.00    -0.239 N 
ATOM      5  N   UNL     1       0.960   1.740  -1.034  0.00  0.00    -0.239 N 
ATOM      6  C   UNL     1       0.145  -0.336  -0.011  0.00  0.00    +0.142 C 
ATOM      7  C   UNL     1       1.305  -0.208   0.973  0.00  0.00    +0.237 C 
ATOM      8  C   UNL     1       0.263   0.559  -1.240  0.00  0.00    +0.237 C 
ATOM      9  C   UNL     1       1.772   2.051   0.051  0.00  0.00    +0.312 C 
ATOM     10  H   UNL     1       2.511   1.224   1.752  0.00  0.00    +0.159 HD
ATOM     11  H   UNL     1       0.871   2.431  -1.729  0.00  0.00    +0.159 HD
ENDROOT
BRANCH   6  12
ATOM     12  C   UNL     1      -1.130   0.092   0.738  0.00  0.00    +0.017 C 
ATOM     13  C   UNL     1      -1.313  -0.777   1.985  0.00  0.00    +0.001 C 
BRANCH  12  14
ATOM     14  C   UNL     1      -2.389   0.005  -0.144  0.00  0.00    +0.001 C 
BRANCH  14  15
ATOM     15  C   UNL     1      -3.660   0.488   0.558  0.00  0.00    +0.000 C 
ATOM     16  C   UNL     1      -4.859   0.449  -0.377  0.00  0.00    +0.000 C 
ENDBRANCH  14  15
ENDBRANCH  12  14
ENDBRANCH   6  12
BRANCH   6  17
ATOM     17  C   UNL     1       0.007  -1.800  -0.453  0.00  0.00    +0.043 C 
BRANCH  17  18
ATOM     18  C   UNL     1       1.281  -2.295  -1.053  0.00  0.00    -0.025 C 
ATOM     19  C   UNL     1       1.986  -3.317  -0.557  0.00  0.00    -0.005 C 
ENDBRANCH  17  18
ENDBRANCH   6  17
TORSDOF 5
