REMARK  Name = 4636
REMARK  4 active torsions:
REMARK  status: ('A' for Active; 'I' for Inactive)
REMARK    1  A    between atoms: C_1  and  C_9
REMARK    2  A    between atoms: C_2  and  C_15
REMARK    3  A    between atoms: C_3  and  O_13
REMARK    4  A    between atoms: C_15  and  C_18
REMARK                            x       y       z     vdW  Elec       q    Type
REMARK                         _______ _______ _______ _____ _____    ______ ____
ROOT
ATOM      1  C   UNL     1      -2.000   0.219  -0.022  0.00  0.00    +0.010 C 
ATOM      2  C   UNL     1       0.597   0.110   0.863  0.00  0.00    -0.020 C 
ATOM      3  C   UNL     1      -1.452  -1.011   0.245  0.00  0.00    +0.125 C 
ATOM      4  C   UNL     1      -0.133  -1.066   0.695  0.00  0.00    +0.008 C 
ATOM      5  C   UNL     1       0.007   1.343   0.580  0.00  0.00    -0.026 C 
ATOM      6  C   UNL     1      -1.312   1.398   0.131  0.00  0.00    -0.006 C 
ATOM      7  C   UNL     1       0.493  -2.391   0.997  0.00  0.00    +0.034 C 
ATOM      8  C   UNL     1       0.766   2.618   0.754  0.00  0.00    +0.031 C 
ENDROOT
BRANCH   1   9
ATOM      9  C   UNL     1      -3.452   0.301  -0.520  0.00  0.00    +0.022 C 
ATOM     10  C   UNL     1      -3.839   1.778  -0.752  0.00  0.00    +0.004 C 
ATOM     11  C   UNL     1      -4.399  -0.312   0.534  0.00  0.00    +0.004 C 
ATOM     12  C   UNL     1      -3.701  -0.449  -1.848  0.00  0.00    +0.004 C 
ENDBRANCH   1   9
BRANCH   3  13
ATOM     13  O   UNL     1      -2.168  -2.161   0.082  0.00  0.00    -0.506 OA
ATOM     14  H   UNL     1      -3.054  -2.122  -0.220  0.00  0.00    +0.292 HD
ENDBRANCH   3  13
BRANCH   2  15
ATOM     15  C   UNL     1       2.011   0.053   1.346  0.00  0.00    +0.087 C 
BRANCH  15  18
ATOM     16  N   UNL     1       3.945   0.875   0.043  0.00  0.00    -0.299 N 
ATOM     17  N   UNL     1       2.902  -1.041  -0.643  0.00  0.00    -0.232 NA
ATOM     18  C   UNL     1       2.973  -0.056   0.209  0.00  0.00    +0.113 C 
ATOM     19  C   UNL     1       4.728   0.541  -1.110  0.00  0.00    +0.084 C 
ATOM     20  C   UNL     1       4.032  -0.750  -1.584  0.00  0.00    +0.116 C 
ATOM     21  H   UNL     1       4.090   1.657   0.623  0.00  0.00    +0.153 HD
ENDBRANCH  15  18
ENDBRANCH   2  15
TORSDOF 4
