REMARK  Name = 441140
REMARK  3 active torsions:
REMARK  status: ('A' for Active; 'I' for Inactive)
REMARK    1  A    between atoms: C_9  and  O_19
REMARK    2  A    between atoms: C_15  and  O_21
REMARK    3  A    between atoms: C_18  and  O_23
REMARK                            x       y       z     vdW  Elec       q    Type
REMARK                         _______ _______ _______ _____ _____    ______ ____
ROOT
ATOM      1 CL   UNL     1       2.450  -2.948  -0.518  0.00  0.00    -0.076 Cl
ATOM      2  O   UNL     1      -0.170  -1.386  -0.369  0.00  0.00    -0.467 OA
ATOM      3  O   UNL     1      -1.092   1.953   0.411  0.00  0.00    -0.287 OA
ATOM      4  O   UNL     1      -5.377   0.120  -0.515  0.00  0.00    -0.291 OA
ATOM      5  C   UNL     1      -1.253  -0.415  -0.272  0.00  0.00    +0.237 C 
ATOM      6  C   UNL     1      -1.952  -0.326  -1.649  0.00  0.00    +0.059 C 
ATOM      7  C   UNL     1      -3.253   0.476  -1.566  0.00  0.00    +0.074 C 
ATOM      8  C   UNL     1      -0.577   0.882   0.157  0.00  0.00    +0.222 C 
ATOM      9  C   UNL     1      -2.222  -0.831   0.811  0.00  0.00    +0.162 C 
ATOM     10  C   UNL     1      -1.058   0.222  -2.766  0.00  0.00    +0.005 C 
ATOM     11  C   UNL     1       0.837   0.621   0.223  0.00  0.00    +0.107 C 
ATOM     12  C   UNL     1       0.994  -0.711  -0.098  0.00  0.00    +0.159 C 
ATOM     13  C   UNL     1      -4.158  -0.035  -0.467  0.00  0.00    +0.176 C 
ATOM     14  C   UNL     1      -3.549  -0.679   0.721  0.00  0.00    +0.074 C 
ATOM     15  C   UNL     1       1.895   1.450   0.533  0.00  0.00    +0.148 C 
ATOM     16  C   UNL     1       2.249  -1.285  -0.121  0.00  0.00    +0.126 C 
ATOM     17  C   UNL     1       3.170   0.884   0.511  0.00  0.00    +0.075 C 
ATOM     18  C   UNL     1       3.347  -0.474   0.186  0.00  0.00    +0.155 C 
ENDROOT
BRANCH   9  19
ATOM     19  O   UNL     1      -1.688  -1.417   1.947  0.00  0.00    -0.472 OA
ATOM     20  C   UNL     1      -2.020  -0.666   3.096  0.00  0.00    +0.252 C 
ENDBRANCH   9  19
BRANCH  15  21
ATOM     21  O   UNL     1       1.723   2.757   0.845  0.00  0.00    -0.471 OA
ATOM     22  C   UNL     1       1.757   3.698  -0.230  0.00  0.00    +0.252 C 
ENDBRANCH  15  21
BRANCH  18  23
ATOM     23  O   UNL     1       4.615  -0.979   0.180  0.00  0.00    -0.470 OA
ATOM     24  C   UNL     1       5.331  -0.910  -1.050  0.00  0.00    +0.253 C 
ENDBRANCH  18  23
TORSDOF 3
