REMARK  Name = 517030
REMARK  6 active torsions:
REMARK  status: ('A' for Active; 'I' for Inactive)
REMARK    1  A    between atoms: C_1  and  C_2
REMARK    2  A    between atoms: C_1  and  C_8
REMARK    3  A    between atoms: C_2  and  C_3
REMARK    4  A    between atoms: C_3  and  N_4
REMARK    5  A    between atoms: C_8  and  C_9
REMARK    6  A    between atoms: C_9  and  C_12
REMARK                            x       y       z     vdW  Elec       q    Type
REMARK                         _______ _______ _______ _____ _____    ______ ____
ROOT
ATOM      1  C   UNL     1       0.993  -0.604   0.060  0.00  0.00    -0.002 C 
ENDROOT
BRANCH   1   2
ATOM      2  C   UNL     1       2.232   0.298   0.027  0.00  0.00    -0.024 C 
BRANCH   2   3
ATOM      3  C   UNL     1       3.545  -0.476   0.018  0.00  0.00    -0.086 C 
BRANCH   3   4
ATOM      4  N   UNL     1       4.698   0.451  -0.063  0.00  0.00    +0.380 N 
ATOM      5  H   UNL     1       5.566  -0.086  -0.068  0.00  0.00    -0.089 HD
ATOM      6  H   UNL     1       4.690   1.076   0.743  0.00  0.00    -0.089 HD
ATOM      7  H   UNL     1       4.633   1.000  -0.920  0.00  0.00    -0.089 HD
ENDBRANCH   3   4
ENDBRANCH   2   3
ENDBRANCH   1   2
BRANCH   1   8
ATOM      8  C   UNL     1      -0.294   0.225  -0.009  0.00  0.00    +0.012 C 
BRANCH   8   9
ATOM      9  C   UNL     1      -1.545  -0.649  -0.014  0.00  0.00    +0.114 C 
BRANCH   9  12
ATOM     10  O   UNL     1      -3.899  -0.677  -0.034  0.00  0.00    -0.246 OA
ATOM     11  O   UNL     1      -2.840   1.346   0.027  0.00  0.00    -0.246 OA
ATOM     12  C   UNL     1      -2.890   0.086  -0.012  0.00  0.00    +0.365 C 
ENDBRANCH   9  12
ENDBRANCH   8   9
ENDBRANCH   1   8
TORSDOF 6
