REMARK  Name = 4993
REMARK  2 active torsions:
REMARK  status: ('A' for Active; 'I' for Inactive)
REMARK    1  A    between atoms: C_5  and  C_14
REMARK    2  A    between atoms: C_6  and  C_20
REMARK                            x       y       z     vdW  Elec       q    Type
REMARK                         _______ _______ _______ _____ _____    ______ ____
ROOT
ATOM      1  N   UNL     1      -2.721  -0.947   0.297  0.00  0.00    -0.337 NA
ATOM      2  N   UNL     1      -2.700   1.413  -0.191  0.00  0.00    -0.317 NA
ATOM      3  N   UNL     1      -0.653   2.571  -0.443  0.00  0.00    -0.335 N 
ATOM      4  N   UNL     1      -4.723   0.253   0.061  0.00  0.00    -0.283 N 
ATOM      5  C   UNL     1      -0.625   0.213   0.045  0.00  0.00    +0.138 C 
ATOM      6  C   UNL     1      -1.372  -0.924   0.284  0.00  0.00    +0.112 C 
ATOM      7  C   UNL     1      -1.351   1.364  -0.189  0.00  0.00    +0.178 C 
ATOM      8  C   UNL     1      -3.312   0.239   0.056  0.00  0.00    +0.196 C 
ATOM      9  H   UNL     1      -1.152   3.402  -0.612  0.00  0.00    +0.144 HD
ATOM     10  H   UNL     1       0.331   2.578  -0.450  0.00  0.00    +0.144 HD
ATOM     11  H   UNL     1      -5.223  -0.577   0.236  0.00  0.00    +0.156 HD
ATOM     12  H   UNL     1      -5.208   1.093  -0.110  0.00  0.00    +0.156 HD
ENDROOT
BRANCH   5  14
ATOM     13 CL   UNL     1       5.331   0.105   0.031  0.00  0.00    -0.082 Cl
ATOM     14  C   UNL     1       0.822   0.188   0.041  0.00  0.00    -0.008 C 
ATOM     15  C   UNL     1       1.512  -0.069  -1.143  0.00  0.00    -0.003 C 
ATOM     16  C   UNL     1       1.526   0.419   1.223  0.00  0.00    -0.003 C 
ATOM     17  C   UNL     1       2.906  -0.094  -1.147  0.00  0.00    +0.011 C 
ATOM     18  C   UNL     1       2.921   0.394   1.219  0.00  0.00    +0.011 C 
ATOM     19  C   UNL     1       3.611   0.138   0.035  0.00  0.00    +0.058 C 
ENDBRANCH   5  14
BRANCH   6  20
ATOM     20  C   UNL     1      -0.709  -2.237   0.552  0.00  0.00    +0.056 C 
ATOM     21  C   UNL     1      -0.463  -3.028  -0.730  0.00  0.00    +0.008 C 
ENDBRANCH   6  20
TORSDOF 2
