REMARK  Name = 5951
REMARK  5 active torsions:
REMARK  status: ('A' for Active; 'I' for Inactive)
REMARK    1  A    between atoms: CA_1  and  N_2
REMARK    2  A    between atoms: CA_1  and  C_7
REMARK    3  A    between atoms: CA_1  and  CB_10
REMARK    4  A    between atoms: C_7  and  O_8
REMARK    5  A    between atoms: CB_10  and  OG_11
REMARK                            x       y       z     vdW  Elec       q    Type
REMARK                         _______ _______ _______ _____ _____    ______ ____
ROOT
ATOM      1  CA  SER A   1       0.250  -0.572   0.467  0.00  0.00    +0.065 C 
ENDROOT
BRANCH   1   2
ATOM      2  N   SER A   1      -0.178  -1.961   0.315  0.00  0.00    +0.390 N 
ATOM      3  H1  SER A   1       0.568  -2.583   0.626  0.00  0.00    -0.088 HD
ATOM      4  H2  SER A   1      -0.388  -2.147  -0.666  0.00  0.00    -0.088 HD
ATOM      5  H3  SER A   1      -1.013  -2.124   0.877  0.00  0.00    -0.088 HD
ENDBRANCH   1   2
BRANCH   1   7
ATOM      6  OXT SER A   1      -1.688   0.044  -0.896  0.00  0.00    -0.253 OA
ATOM      7  C   SER A   1      -0.890   0.309  -0.007  0.00  0.00    +0.295 C 
BRANCH   7   8
ATOM      8  O   SER A   1      -0.915   1.473   0.693  0.00  0.00    -0.482 OA
ATOM      9  H   SER A   1      -0.281   1.629   1.365  0.00  0.00    +0.295 HD
ENDBRANCH   7   8
ENDBRANCH   1   7
BRANCH   1  10
ATOM     10  CB  SER A   1       1.504  -0.323  -0.365  0.00  0.00    +0.126 C 
BRANCH  10  11
ATOM     11  OG  SER A   1       1.916   1.031  -0.206  0.00  0.00    -0.384 OA
ATOM     12  H   SER A   1       2.714   1.190  -0.735  0.00  0.00    +0.210 HD
ENDBRANCH  10  11
ENDBRANCH   1  10
TORSDOF 5
