REMARK  Name = 3324
REMARK  9 active torsions:
REMARK  status: ('A' for Active; 'I' for Inactive)
REMARK    1  A    between atoms: C_1  and  N_2
REMARK    2  A    between atoms: C_1  and  C_14
REMARK    3  A    between atoms: C_14  and  C_15
REMARK    4  A    between atoms: C_15  and  C_16
REMARK    5  A    between atoms: C_15  and  C_21
REMARK    6  A    between atoms: C_16  and  O_17
REMARK    7  A    between atoms: O_17  and  C_19
REMARK    8  A    between atoms: C_21  and  O_22
REMARK    9  A    between atoms: O_22  and  C_24
REMARK                            x       y       z     vdW  Elec       q    Type
REMARK                         _______ _______ _______ _____ _____    ______ ____
ROOT
ATOM      1  C   UNL     1      -0.307   0.615   1.523  0.00  0.00    +0.095 C 
ENDROOT
BRANCH   1   2
ATOM      2  N   UNL     1      -1.508   1.251   0.995  0.00  0.00    -0.261 N 
ATOM      3  N   UNL     1      -2.988   2.841   0.566  0.00  0.00    -0.246 NA
ATOM      4  N   UNL     1      -2.545  -0.628  -0.137  0.00  0.00    -0.322 NA
ATOM      5  N   UNL     1      -4.645   0.038  -1.188  0.00  0.00    -0.191 NA
ATOM      6  N   UNL     1      -3.849  -2.161  -1.330  0.00  0.00    -0.293 N 
ATOM      7  C   UNL     1      -2.477   0.652   0.259  0.00  0.00    +0.213 C 
ATOM      8  C   UNL     1      -1.847   2.558   1.159  0.00  0.00    +0.222 C 
ATOM      9  C   UNL     1      -3.393   1.659  -0.001  0.00  0.00    +0.126 C 
ATOM     10  C   UNL     1      -4.511   1.314  -0.754  0.00  0.00    +0.187 C 
ATOM     11  C   UNL     1      -3.668  -0.841  -0.857  0.00  0.00    +0.139 C 
ATOM     12  H   UNL     1      -3.179  -2.853  -1.128  0.00  0.00    +0.155 HD
ATOM     13  H   UNL     1      -4.646  -2.388  -1.862  0.00  0.00    +0.155 HD
ENDBRANCH   1   2
BRANCH   1  14
ATOM     14  C   UNL     1       0.894   0.669   0.571  0.00  0.00    +0.029 C 
BRANCH  14  15
ATOM     15  C   UNL     1       2.162  -0.071   1.062  0.00  0.00    +0.089 C 
BRANCH  15  16
ATOM     16  C   UNL     1       3.307   0.125   0.053  0.00  0.00    +0.212 C 
BRANCH  16  17
ATOM     17  O   UNL     1       3.620   1.508  -0.063  0.00  0.00    -0.448 OA
BRANCH  17  19
ATOM     18  O   UNL     1       5.268   1.023  -1.607  0.00  0.00    -0.250 OA
ATOM     19  C   UNL     1       4.627   1.819  -0.933  0.00  0.00    +0.318 C 
ATOM     20  C   UNL     1       4.845   3.301  -0.952  0.00  0.00    +0.121 C 
ENDBRANCH  17  19
ENDBRANCH  16  17
ENDBRANCH  15  16
BRANCH  15  21
ATOM     21  C   UNL     1       1.927  -1.570   1.298  0.00  0.00    +0.212 C 
BRANCH  21  22
ATOM     22  O   UNL     1       1.528  -2.213   0.095  0.00  0.00    -0.448 OA
BRANCH  22  24
ATOM     23  O   UNL     1       1.390  -4.237   1.201  0.00  0.00    -0.250 OA
ATOM     24  C   UNL     1       1.290  -3.557   0.188  0.00  0.00    +0.318 C 
ATOM     25  C   UNL     1       0.880  -4.097  -1.148  0.00  0.00    +0.121 C 
ENDBRANCH  22  24
ENDBRANCH  21  22
ENDBRANCH  15  21
ENDBRANCH  14  15
ENDBRANCH   1  14
TORSDOF 9
