REMARK  Name = 34633
REMARK  6 active torsions:
REMARK  status: ('A' for Active; 'I' for Inactive)
REMARK    1  A    between atoms: C_4  and  C_24
REMARK    2  A    between atoms: C_12  and  N_18
REMARK    3  A    between atoms: C_19  and  O_21
REMARK    4  A    between atoms: O_21  and  C_22
REMARK    5  A    between atoms: C_24  and  C_25
REMARK    6  A    between atoms: C_25  and  N_27
REMARK                            x       y       z     vdW  Elec       q    Type
REMARK                         _______ _______ _______ _____ _____    ______ ____
ROOT
ATOM      1  S   UNL     1       0.629   3.613  -1.549  0.00  0.00    -0.084 S 
ATOM      2  O   UNL     1       1.607   0.201   2.581  0.00  0.00    -0.274 OA
ATOM      3  N   UNL     1       1.046   1.235   0.557  0.00  0.00    -0.236 N 
ATOM      4  C   UNL     1       1.261   0.132   1.401  0.00  0.00    +0.231 C 
ATOM      5  C   UNL     1      -0.262   1.442  -0.019  0.00  0.00    +0.065 C 
ATOM      6  C   UNL     1       2.111   2.190   0.360  0.00  0.00    +0.064 C 
ATOM      7  C   UNL     1      -0.554   2.449  -0.949  0.00  0.00    +0.044 C 
ATOM      8  C   UNL     1       2.019   3.288  -0.508  0.00  0.00    +0.043 C 
ATOM      9  C   UNL     1      -1.338   0.621   0.394  0.00  0.00    +0.030 C 
ATOM     10  C   UNL     1       3.343   2.013   1.034  0.00  0.00    +0.016 C 
ATOM     11  C   UNL     1      -1.858   2.585  -1.468  0.00  0.00    +0.009 C 
ATOM     12  C   UNL     1      -2.629   0.764  -0.121  0.00  0.00    +0.054 C 
ATOM     13  C   UNL     1       3.097   4.187  -0.643  0.00  0.00    +0.008 C 
ATOM     14  C   UNL     1      -2.889   1.746  -1.061  0.00  0.00    +0.015 C 
ATOM     15  C   UNL     1       4.408   2.907   0.895  0.00  0.00    +0.001 C 
ATOM     16  C   UNL     1       4.282   4.003   0.060  0.00  0.00    +0.001 C 
ENDROOT
BRANCH  12  18
ATOM     17  O   UNL     1      -5.532   0.653  -0.887  0.00  0.00    -0.226 OA
ATOM     18  N   UNL     1      -3.654  -0.077   0.312  0.00  0.00    -0.250 N 
ATOM     19  C   UNL     1      -4.991  -0.088  -0.076  0.00  0.00    +0.405 C 
ATOM     20  H   UNL     1      -3.398  -0.752   0.982  0.00  0.00    +0.158 HD
BRANCH  19  21
ATOM     21  O   UNL     1      -5.650  -1.081   0.600  0.00  0.00    -0.434 OA
BRANCH  21  22
ATOM     22  C   UNL     1      -7.045  -1.221   0.308  0.00  0.00    +0.210 C 
ATOM     23  C   UNL     1      -7.611  -2.355   1.135  0.00  0.00    +0.051 C 
ENDBRANCH  21  22
ENDBRANCH  19  21
ENDBRANCH  12  18
BRANCH   4  24
ATOM     24  C   UNL     1       1.109  -1.208   0.714  0.00  0.00    +0.063 C 
BRANCH  24  25
ATOM     25  C   UNL     1       2.420  -1.961   0.818  0.00  0.00    -0.067 C 
BRANCH  25  27
ATOM     26  O   UNL     1       3.272  -5.388  -1.450  0.00  0.00    -0.358 OA
ATOM     27  N   UNL     1       2.288  -3.264   0.169  0.00  0.00    +0.391 N 
ATOM     28  C   UNL     1       3.307  -4.199   0.665  0.00  0.00    -0.045 C 
ATOM     29  C   UNL     1       2.393  -3.133  -1.291  0.00  0.00    -0.045 C 
ATOM     30  C   UNL     1       3.158  -5.547  -0.035  0.00  0.00    +0.119 C 
ATOM     31  C   UNL     1       2.264  -4.506  -1.944  0.00  0.00    +0.119 C 
ATOM     32  H   UNL     1       1.366  -3.635   0.398  0.00  0.00    -0.079 HD
ENDBRANCH  25  27
ENDBRANCH  24  25
ENDBRANCH   4  24
TORSDOF 6
