REMARK  Name = 6305
REMARK  5 active torsions:
REMARK  status: ('A' for Active; 'I' for Inactive)
REMARK    1  A    between atoms: CG_2  and  CB_11
REMARK    2  A    between atoms: CB_11  and  CA_12
REMARK    3  A    between atoms: CA_12  and  N_13
REMARK    4  A    between atoms: CA_12  and  C_18
REMARK    5  A    between atoms: C_18  and  O_19
REMARK                            x       y       z     vdW  Elec       q    Type
REMARK                         _______ _______ _______ _____ _____    ______ ____
ROOT
ATOM      1  NE1 TRP A   1      -1.647   2.004   0.548  0.00  0.00    -0.312 N 
ATOM      2  CG  TRP A   1       0.147   1.132  -0.424  0.00  0.00    -0.008 C 
ATOM      3  CD2 TRP A   1      -0.867   0.135  -0.386  0.00  0.00    +0.011 C 
ATOM      4  CE2 TRP A   1      -1.982   0.708   0.229  0.00  0.00    +0.048 C 
ATOM      5  CD1 TRP A   1      -0.362   2.270   0.158  0.00  0.00    +0.058 C 
ATOM      6  CE3 TRP A   1      -0.943  -1.204  -0.817  0.00  0.00    +0.001 C 
ATOM      7  CZ2 TRP A   1      -3.175   0.005   0.435  0.00  0.00    +0.015 C 
ATOM      8  CZ3 TRP A   1      -2.130  -1.919  -0.618  0.00  0.00    +0.000 C 
ATOM      9  CH2 TRP A   1      -3.227  -1.322  -0.001  0.00  0.00    +0.001 C 
ATOM     10  HE1 TRP A   1      -2.246   2.647   0.993  0.00  0.00    +0.152 HD
ENDROOT
BRANCH   2  11
ATOM     11  CB  TRP A   1       1.506   0.985  -0.983  0.00  0.00    +0.017 C 
BRANCH  11  12
ATOM     12  CA  TRP A   1       2.560   0.488   0.040  0.00  0.00    +0.040 C 
BRANCH  12  13
ATOM     13  N   TRP A   1       3.876   0.365  -0.583  0.00  0.00    +0.389 N 
ATOM     14  H1  TRP A   1       4.156   1.268  -0.966  0.00  0.00    -0.088 HD
ATOM     15  H2  TRP A   1       3.834  -0.324  -1.334  0.00  0.00    -0.088 HD
ATOM     16  H3  TRP A   1       4.557   0.067   0.115  0.00  0.00    -0.088 HD
ENDBRANCH  12  13
BRANCH  12  18
ATOM     17  OXT TRP A   1       2.560  -1.947   0.088  0.00  0.00    -0.253 OA
ATOM     18  C   TRP A   1       2.208  -0.885   0.586  0.00  0.00    +0.293 C 
BRANCH  18  19
ATOM     19  O   TRP A   1       1.476  -0.815   1.728  0.00  0.00    -0.482 OA
ATOM     20  H   TRP A   1       1.228   0.019   2.075  0.00  0.00    +0.295 HD
ENDBRANCH  18  19
ENDBRANCH  12  18
ENDBRANCH  11  12
ENDBRANCH   2  11
TORSDOF 5
