REMARK  Name = 127151
REMARK  6 active torsions:
REMARK  status: ('A' for Active; 'I' for Inactive)
REMARK    1  A    between atoms: C_1  and  C_4
REMARK    2  A    between atoms: C_1  and  C_10
REMARK    3  A    between atoms: C_1  and  O_16
REMARK    4  A    between atoms: O_16  and  C_17
REMARK    5  A    between atoms: C_18  and  O_23
REMARK    6  A    between atoms: O_23  and  C_24
REMARK                            x       y       z     vdW  Elec       q    Type
REMARK                         _______ _______ _______ _____ _____    ______ ____
ROOT
ATOM      1  C   UNL     1       0.841  -0.181   0.787  0.00  0.00    +0.213 C 
ENDROOT
BRANCH   1   4
ATOM      2  O   UNL     1       2.583  -0.158  -0.846  0.00  0.00    -0.357 OA
ATOM      3  N   UNL     1       3.712  -2.587   0.112  0.00  0.00    +0.387 N 
ATOM      4  C   UNL     1       2.257  -0.639   0.463  0.00  0.00    +0.138 C 
ATOM      5  C   UNL     1       2.363  -2.166   0.496  0.00  0.00    -0.047 C 
ATOM      6  C   UNL     1       4.052  -2.053  -1.207  0.00  0.00    -0.049 C 
ATOM      7  C   UNL     1       3.911  -0.536  -1.214  0.00  0.00    +0.119 C 
ATOM      8  H   UNL     1       3.752  -3.606   0.084  0.00  0.00    -0.084 HD
ATOM      9  H   UNL     1       4.380  -2.232   0.797  0.00  0.00    -0.084 HD
ENDBRANCH   1   4
BRANCH   1  10
ATOM     10  C   UNL     1       0.699   1.322   0.714  0.00  0.00    +0.020 C 
ATOM     11  C   UNL     1       0.930   2.080   1.850  0.00  0.00    -0.001 C 
ATOM     12  C   UNL     1       0.340   1.912  -0.487  0.00  0.00    -0.001 C 
ATOM     13  C   UNL     1       0.799   3.468   1.783  0.00  0.00    -0.000 C 
ATOM     14  C   UNL     1       0.209   3.299  -0.554  0.00  0.00    -0.000 C 
ATOM     15  C   UNL     1       0.439   4.077   0.581  0.00  0.00    -0.000 C 
ENDBRANCH   1  10
BRANCH   1  16
ATOM     16  O   UNL     1      -0.078  -0.783  -0.123  0.00  0.00    -0.469 OA
BRANCH  16  17
ATOM     17  C   UNL     1      -1.330  -1.050   0.357  0.00  0.00    +0.173 C 
ATOM     18  C   UNL     1      -2.449  -0.468  -0.233  0.00  0.00    +0.172 C 
ATOM     19  C   UNL     1      -1.473  -1.909   1.443  0.00  0.00    +0.040 C 
ATOM     20  C   UNL     1      -3.721  -0.748   0.267  0.00  0.00    +0.040 C 
ATOM     21  C   UNL     1      -2.745  -2.189   1.943  0.00  0.00    +0.003 C 
ATOM     22  C   UNL     1      -3.869  -1.608   1.355  0.00  0.00    +0.003 C 
BRANCH  18  23
ATOM     23  O   UNL     1      -2.317   0.373  -1.296  0.00  0.00    -0.472 OA
BRANCH  23  24
ATOM     24  C   UNL     1      -2.966  -0.007  -2.508  0.00  0.00    +0.206 C 
ATOM     25  C   UNL     1      -2.188   0.550  -3.681  0.00  0.00    +0.051 C 
ENDBRANCH  23  24
ENDBRANCH  18  23
ENDBRANCH  16  17
ENDBRANCH   1  16
TORSDOF 6
