REMARK  Name = 9568617
REMARK  9 active torsions:
REMARK  status: ('A' for Active; 'I' for Inactive)
REMARK    1  A    between atoms: N_1  and  O_26
REMARK    2  A    between atoms: C_2  and  C_5
REMARK    3  A    between atoms: C_2  and  C_14
REMARK    4  A    between atoms: C_7  and  N_8
REMARK    5  A    between atoms: N_13  and  C_19
REMARK    6  A    between atoms: N_17  and  S_22
REMARK    7  A    between atoms: O_26  and  C_27
REMARK    8  A    between atoms: C_27  and  C_31
REMARK    9  A    between atoms: C_31  and  O_32
REMARK                            x       y       z     vdW  Elec       q    Type
REMARK                         _______ _______ _______ _____ _____    ______ ____
ROOT
ATOM      1  N   UNL     1      -2.067  -0.999  -0.037  0.00  0.00    -0.076 NA
ATOM      2  C   UNL     1      -1.996   0.236   0.359  0.00  0.00    +0.198 C 
ENDROOT
BRANCH   2   5
ATOM      3  S   UNL     1      -4.663   3.108   0.026  0.00  0.00    -0.061 S 
ATOM      4  N   UNL     1      -4.246   0.614  -0.513  0.00  0.00    -0.385 NA
ATOM      5  C   UNL     1      -3.142   1.117   0.114  0.00  0.00    +0.148 C 
ATOM      6  C   UNL     1      -3.158   2.428   0.487  0.00  0.00    +0.126 C 
ATOM      7  C   UNL     1      -5.126   1.586  -0.616  0.00  0.00    +0.189 C 
BRANCH   7   8
ATOM      8  N   UNL     1      -6.426   1.380  -1.243  0.00  0.00    -0.388 NA
ATOM      9  H   UNL     1      -7.066   2.126  -1.306  0.00  0.00    +0.123 HD
ATOM     10  H   UNL     1      -6.665   0.496  -1.604  0.00  0.00    +0.123 HD
ATOM     11  H   UNL     1      -6.957   1.606  -0.445  0.00  0.00    +0.123 HD
ENDBRANCH   7   8
ENDBRANCH   2   5
BRANCH   2  14
ATOM     12  O   UNL     1      -0.689   0.657   2.264  0.00  0.00    -0.268 OA
ATOM     13  N   UNL     1       0.176   1.244   0.164  0.00  0.00    -0.292 N 
ATOM     14  C   UNL     1      -0.754   0.740   1.048  0.00  0.00    +0.269 C 
ATOM     15  H   UNL     1      -0.032   1.238  -0.799  0.00  0.00    +0.150 HD
BRANCH  13  19
ATOM     16  O   UNL     1       2.681   2.911  -1.403  0.00  0.00    -0.271 OA
ATOM     17  N   UNL     1       3.184   0.899  -0.243  0.00  0.00    -0.156 N 
ATOM     18  C   UNL     1       2.517   0.758   1.070  0.00  0.00    +0.126 C 
ATOM     19  C   UNL     1       1.464   1.788   0.606  0.00  0.00    +0.171 C 
ATOM     20  C   UNL     1       2.458   2.067  -0.566  0.00  0.00    +0.264 C 
ATOM     21  C   UNL     1       3.464   1.131   2.198  0.00  0.00    +0.026 C 
BRANCH  17  22
ATOM     22  S   UNL     1       4.752   0.514  -0.721  0.00  0.00    +0.096 S 
ATOM     23  O   UNL     1       5.606   1.591  -0.184  0.00  0.00    -0.050 OA
ATOM     24  O   UNL     1       4.721   0.481  -2.195  0.00  0.00    -0.050 OA
ATOM     25  O   UNL     1       5.037  -0.802  -0.119  0.00  0.00    -0.050 OA
ENDBRANCH  17  22
ENDBRANCH  13  19
ENDBRANCH   2  14
BRANCH   1  26
ATOM     26  O   UNL     1      -0.897  -1.710   0.262  0.00  0.00    -0.374 OA
BRANCH  26  27
ATOM     27  C   UNL     1      -1.059  -3.041  -0.202  0.00  0.00    +0.249 C 
ATOM     28  C   UNL     1      -1.271  -2.992  -1.712  0.00  0.00    +0.058 C 
ATOM     29  C   UNL     1      -2.247  -3.656   0.531  0.00  0.00    +0.058 C 
BRANCH  27  31
ATOM     30  O   UNL     1       1.167  -3.248   0.765  0.00  0.00    -0.246 OA
ATOM     31  C   UNL     1       0.238  -3.758   0.150  0.00  0.00    +0.353 C 
BRANCH  31  32
ATOM     32  O   UNL     1       0.278  -5.043  -0.287  0.00  0.00    -0.478 OA
ATOM     33  H   UNL     1      -0.450  -5.402  -0.755  0.00  0.00    +0.295 HD
ENDBRANCH  31  32
ENDBRANCH  27  31
ENDBRANCH  26  27
ENDBRANCH   1  26
TORSDOF 9
