REMARK  Name = 5284627
REMARK  4 active torsions:
REMARK  status: ('A' for Active; 'I' for Inactive)
REMARK    1  A    between atoms: C_8  and  C_17
REMARK    2  A    between atoms: C_17  and  O_18
REMARK    3  A    between atoms: O_18  and  S_19
REMARK    4  A    between atoms: S_19  and  N_22
REMARK                            x       y       z     vdW  Elec       q    Type
REMARK                         _______ _______ _______ _____ _____    ______ ____
ROOT
ATOM      1  O   UNL     1      -1.001  -2.513  -0.374  0.00  0.00    -0.329 OA
ATOM      2  O   UNL     1       0.146  -0.560   1.471  0.00  0.00    -0.328 OA
ATOM      3  O   UNL     1       1.254  -1.976  -0.027  0.00  0.00    -0.310 OA
ATOM      4  O   UNL     1      -2.023   0.933  -1.069  0.00  0.00    -0.332 OA
ATOM      5  O   UNL     1      -3.045   1.177   1.030  0.00  0.00    -0.332 OA
ATOM      6  C   UNL     1      -0.781  -1.138  -0.726  0.00  0.00    +0.201 C 
ATOM      7  C   UNL     1      -2.028  -0.336  -0.412  0.00  0.00    +0.179 C 
ATOM      8  C   UNL     1       0.455  -0.784   0.091  0.00  0.00    +0.247 C 
ATOM      9  C   UNL     1      -2.172   0.042   1.047  0.00  0.00    +0.177 C 
ATOM     10  C   UNL     1      -0.850   0.428   1.696  0.00  0.00    +0.177 C 
ATOM     11  C   UNL     1       0.312  -3.051  -0.169  0.00  0.00    +0.190 C 
ATOM     12  C   UNL     1      -2.927   1.735  -0.291  0.00  0.00    +0.187 C 
ATOM     13  C   UNL     1       0.303  -3.891   1.101  0.00  0.00    +0.061 C 
ATOM     14  C   UNL     1       0.712  -3.888  -1.378  0.00  0.00    +0.061 C 
ATOM     15  C   UNL     1      -4.308   1.727  -0.943  0.00  0.00    +0.061 C 
ATOM     16  C   UNL     1      -2.385   3.155  -0.206  0.00  0.00    +0.061 C 
ENDROOT
BRANCH   8  17
ATOM     17  C   UNL     1       1.264   0.374  -0.483  0.00  0.00    +0.232 C 
BRANCH  17  18
ATOM     18  O   UNL     1       2.373   0.614   0.364  0.00  0.00    -0.224 OA
BRANCH  18  19
ATOM     19  S   UNL     1       3.433   1.809   0.003  0.00  0.00    +0.046 S 
ATOM     20  O   UNL     1       2.695   3.050  -0.143  0.00  0.00    -0.056 OA
ATOM     21  O   UNL     1       4.526   1.722   0.954  0.00  0.00    -0.056 OA
BRANCH  19  22
ATOM     22  N   UNL     1       4.048   1.370  -1.536  0.00  0.00    -0.204 NA
ATOM     23  H   UNL     1       3.300   1.421  -2.228  0.00  0.00    +0.144 HD
ATOM     24  H   UNL     1       4.410   0.417  -1.498  0.00  0.00    +0.144 HD
ENDBRANCH  19  22
ENDBRANCH  18  19
ENDBRANCH  17  18
ENDBRANCH   8  17
TORSDOF 4
