REMARK  Name = 2479
REMARK  3 active torsions:
REMARK  status: ('A' for Active; 'I' for Inactive)
REMARK    1  A    between atoms: C_6  and  C_12
REMARK    2  A    between atoms: C_6  and  C_16
REMARK    3  A    between atoms: C_12  and  C_14
REMARK                            x       y       z     vdW  Elec       q    Type
REMARK                         _______ _______ _______ _____ _____    ______ ____
ROOT
ATOM      1  O   UNL     1      -0.614  -2.175  -1.236  0.00  0.00    -0.274 OA
ATOM      2  O   UNL     1       0.279   0.862   2.232  0.00  0.00    -0.274 OA
ATOM      3  O   UNL     1      -3.258   1.523  -0.616  0.00  0.00    -0.252 OA
ATOM      4  N   UNL     1      -1.874  -0.275  -0.985  0.00  0.00    -0.239 N 
ATOM      5  N   UNL     1      -1.428   1.242   0.747  0.00  0.00    -0.239 N 
ATOM      6  C   UNL     1       0.285  -0.418   0.172  0.00  0.00    +0.138 C 
ATOM      7  C   UNL     1      -0.765  -1.066  -0.725  0.00  0.00    +0.237 C 
ATOM      8  C   UNL     1      -0.278   0.592   1.168  0.00  0.00    +0.237 C 
ATOM      9  C   UNL     1      -2.247   0.884  -0.317  0.00  0.00    +0.312 C 
ATOM     10  H   UNL     1      -2.459  -0.567  -1.722  0.00  0.00    +0.159 HD
ATOM     11  H   UNL     1      -1.692   2.043   1.255  0.00  0.00    +0.159 HD
ENDROOT
BRANCH   6  12
ATOM     12  C   UNL     1       1.253   0.347  -0.748  0.00  0.00    +0.016 C 
ATOM     13  C   UNL     1       1.864  -0.617  -1.762  0.00  0.00    +0.001 C 
BRANCH  12  14
ATOM     14  C   UNL     1       2.316   1.063   0.102  0.00  0.00    +0.001 C 
ATOM     15  C   UNL     1       3.285   1.899  -0.722  0.00  0.00    +0.000 C 
ENDBRANCH  12  14
ENDBRANCH   6  12
BRANCH   6  16
ATOM     16  C   UNL     1       1.058  -1.508   0.928  0.00  0.00    +0.017 C 
ATOM     17  C   UNL     1       0.123  -2.354   1.763  0.00  0.00    +0.001 C 
ENDBRANCH   6  16
TORSDOF 3
