REMARK  Name = 5281071
REMARK  6 active torsions:
REMARK  status: ('A' for Active; 'I' for Inactive)
REMARK    1  A    between atoms: C_7  and  C_17
REMARK    2  A    between atoms: C_10  and  C_23
REMARK    3  A    between atoms: C_17  and  C_18
REMARK    4  A    between atoms: C_18  and  N_19
REMARK    5  A    between atoms: C_23  and  C_25
REMARK    6  A    between atoms: C_25  and  O_26
REMARK                            x       y       z     vdW  Elec       q    Type
REMARK                         _______ _______ _______ _____ _____    ______ ____
ROOT
ATOM      1  O   UNL     1       1.695   1.165   1.961  0.00  0.00    -0.471 OA
ATOM      2  C   UNL     1       1.161  -0.483  -0.261  0.00  0.00    -0.002 C 
ATOM      3  C   UNL     1       0.305   0.680   0.066  0.00  0.00    +0.033 C 
ATOM      4  C   UNL     1       2.642  -0.411  -0.424  0.00  0.00    -0.001 C 
ATOM      5  C   UNL     1       3.438   0.502   0.302  0.00  0.00    +0.021 C 
ATOM      6  C   UNL     1       0.604   1.463   1.186  0.00  0.00    +0.139 C 
ATOM      7  C   UNL     1       0.545  -1.681  -0.282  0.00  0.00    -0.028 C 
ATOM      8  C   UNL     1       2.897   1.533   1.274  0.00  0.00    +0.232 C 
ATOM      9  C   UNL     1      -0.817   1.015  -0.706  0.00  0.00    -0.001 C 
ATOM     10  C   UNL     1      -1.629   2.092  -0.341  0.00  0.00    -0.011 C 
ATOM     11  C   UNL     1       3.276  -1.248  -1.369  0.00  0.00    -0.000 C 
ATOM     12  C   UNL     1      -0.217   2.524   1.570  0.00  0.00    +0.037 C 
ATOM     13  C   UNL     1       4.830   0.534   0.073  0.00  0.00    -0.001 C 
ATOM     14  C   UNL     1      -1.333   2.841   0.799  0.00  0.00    -0.001 C 
ATOM     15  C   UNL     1       4.655  -1.208  -1.571  0.00  0.00    -0.000 C 
ATOM     16  C   UNL     1       5.435  -0.319  -0.847  0.00  0.00    -0.000 C 
ENDROOT
BRANCH   7  17
ATOM     17  C   UNL     1      -0.932  -1.858  -0.127  0.00  0.00    +0.003 C 
BRANCH  17  18
ATOM     18  C   UNL     1      -1.256  -3.192   0.545  0.00  0.00    -0.073 C 
BRANCH  18  19
ATOM     19  N   UNL     1      -2.698  -3.339   0.706  0.00  0.00    +0.384 N 
ATOM     20  C   UNL     1      -3.014  -4.597   1.384  0.00  0.00    -0.101 C 
ATOM     21  C   UNL     1      -3.371  -3.278  -0.592  0.00  0.00    -0.101 C 
ATOM     22  H   UNL     1      -3.035  -2.567   1.282  0.00  0.00    -0.080 HD
ENDBRANCH  18  19
ENDBRANCH  17  18
ENDBRANCH   7  17
BRANCH  10  23
ATOM     23  C   UNL     1      -2.809   2.456  -1.179  0.00  0.00    +0.136 C 
BRANCH  23  25
ATOM     24  O   UNL     1      -4.175   0.919   0.127  0.00  0.00    -0.250 OA
ATOM     25  C   UNL     1      -4.085   1.748  -0.769  0.00  0.00    +0.318 C 
BRANCH  25  26
ATOM     26  O   UNL     1      -5.146   2.140  -1.522  0.00  0.00    -0.480 OA
ATOM     27  H   UNL     1      -5.030   2.779  -2.198  0.00  0.00    +0.295 HD
ENDBRANCH  25  26
ENDBRANCH  23  25
ENDBRANCH  10  23
TORSDOF 6
