REMARK  Name = 156391
REMARK  4 active torsions:
REMARK  status: ('A' for Active; 'I' for Inactive)
REMARK    1  A    between atoms: C_1  and  C_13
REMARK    2  A    between atoms: C_9  and  O_11
REMARK    3  A    between atoms: C_13  and  C_16
REMARK    4  A    between atoms: C_16  and  O_17
REMARK                            x       y       z     vdW  Elec       q    Type
REMARK                         _______ _______ _______ _____ _____    ______ ____
ROOT
ATOM      1  C   UNL     1       1.673  -0.583   0.204  0.00  0.00    -0.012 C 
ATOM      2  C   UNL     1      -0.581   0.332   0.250  0.00  0.00    -0.000 C 
ATOM      3  C   UNL     1      -1.094  -0.929  -0.136  0.00  0.00    +0.003 C 
ATOM      4  C   UNL     1       0.805   0.489   0.415  0.00  0.00    -0.004 C 
ATOM      5  C   UNL     1       1.168  -1.824  -0.175  0.00  0.00    -0.004 C 
ATOM      6  C   UNL     1      -0.206  -1.997  -0.344  0.00  0.00    -0.000 C 
ATOM      7  C   UNL     1      -1.469   1.400   0.458  0.00  0.00    +0.003 C 
ATOM      8  C   UNL     1      -2.480  -1.085  -0.301  0.00  0.00    +0.037 C 
ATOM      9  C   UNL     1      -3.347  -0.013  -0.090  0.00  0.00    +0.139 C 
ATOM     10  C   UNL     1      -2.843   1.227   0.289  0.00  0.00    +0.037 C 
ENDROOT
BRANCH   9  11
ATOM     11  O   UNL     1      -4.688  -0.181  -0.253  0.00  0.00    -0.471 OA
ATOM     12  C   UNL     1      -5.518   0.955  -0.018  0.00  0.00    +0.252 C 
ENDBRANCH   9  11
BRANCH   1  13
ATOM     13  C   UNL     1       3.142  -0.400   0.384  0.00  0.00    +0.121 C 
ATOM     14  C   UNL     1       3.546  -0.003   1.818  0.00  0.00    +0.016 C 
BRANCH  13  16
ATOM     15  O   UNL     1       3.080   1.233  -1.431  0.00  0.00    -0.250 OA
ATOM     16  C   UNL     1       3.733   0.615  -0.600  0.00  0.00    +0.317 C 
BRANCH  16  17
ATOM     17  O   UNL     1       5.078   0.763  -0.470  0.00  0.00    -0.480 OA
ATOM     18  H   UNL     1       5.543   0.272   0.178  0.00  0.00    +0.295 HD
ENDBRANCH  16  17
ENDBRANCH  13  16
ENDBRANCH   1  13
TORSDOF 4
