REMARK  Name = 5790
REMARK  4 active torsions:
REMARK  status: ('A' for Active; 'I' for Inactive)
REMARK    1  A    between atoms: N_4  and  C1*_13
REMARK    2  A    between atoms: C3*_12  and  O3*_16
REMARK    3  A    between atoms: C4*_15  and  C5*_18
REMARK    4  A    between atoms: C5*_18  and  O5*_19
REMARK                            x       y       z     vdW  Elec       q    Type
REMARK                         _______ _______ _______ _____ _____    ______ ____
ROOT
ATOM      1  F   UNL     1      -2.420  -2.424   0.314  0.00  0.00    -0.198 F 
ATOM      2  O   UNL     1      -1.194   2.796  -0.386  0.00  0.00    -0.252 OA
ATOM      3  O   UNL     1      -4.351  -0.512   0.237  0.00  0.00    -0.267 OA
ATOM      4  N   UNL     1      -0.455   0.587  -0.186  0.00  0.00    -0.216 N 
ATOM      5  N   UNL     1      -2.765   1.149  -0.077  0.00  0.00    -0.234 N 
ATOM      6  C   UNL     1      -1.444   1.599  -0.229  0.00  0.00    +0.316 C 
ATOM      7  C   UNL     1      -0.817  -0.741  -0.004  0.00  0.00    +0.105 C 
ATOM      8  C   UNL     1      -2.081  -1.135   0.137  0.00  0.00    +0.208 C 
ATOM      9  C   UNL     1      -3.184  -0.162   0.107  0.00  0.00    +0.282 C 
ATOM     10  H   UNL     1      -3.470   1.836  -0.104  0.00  0.00    +0.159 HD
ENDROOT
BRANCH   4  13
ATOM     11  O4* UNL     1       1.604  -0.178  -0.995  0.00  0.00    -0.335 OA
ATOM     12  C3* UNL     1       3.030   0.607   0.729  0.00  0.00    +0.144 C 
ATOM     13  C1* UNL     1       0.937   0.903  -0.328  0.00  0.00    +0.202 C 
ATOM     14  C2* UNL     1       1.633   1.111   1.007  0.00  0.00    +0.083 C 
ATOM     15  C4* UNL     1       2.798  -0.522  -0.266  0.00  0.00    +0.173 C 
BRANCH  12  16
ATOM     16  O3* UNL     1       3.801   1.639   0.119  0.00  0.00    -0.382 OA
ATOM     17  H3* UNL     1       3.946   2.355   0.758  0.00  0.00    +0.210 HD
ENDBRANCH  12  16
BRANCH  15  18
ATOM     18  C5* UNL     1       2.563  -1.867   0.409  0.00  0.00    +0.169 C 
BRANCH  18  19
ATOM     19  O5* UNL     1       2.346  -2.850  -0.591  0.00  0.00    -0.379 OA
ATOM     20  H5* UNL     1       2.195  -3.711  -0.170  0.00  0.00    +0.211 HD
ENDBRANCH  18  19
ENDBRANCH  15  18
ENDBRANCH   4  13
TORSDOF 4
