REMARK  Name = 51634
REMARK  8 active torsions:
REMARK  status: ('A' for Active; 'I' for Inactive)
REMARK    1  A    between atoms: N_1  and  C_14
REMARK    2  A    between atoms: C_2  and  C_18
REMARK    3  A    between atoms: C_3  and  O_8
REMARK    4  A    between atoms: C_4  and  O_10
REMARK    5  A    between atoms: C_5  and  O_12
REMARK    6  A    between atoms: C_14  and  C_15
REMARK    7  A    between atoms: C_15  and  C_16
REMARK    8  A    between atoms: C_18  and  O_19
REMARK                            x       y       z     vdW  Elec       q    Type
REMARK                         _______ _______ _______ _____ _____    ______ ____
ROOT
ATOM      1  N   UNL     1      -0.396  -0.463  -0.837  0.00  0.00    +0.393 N 
ATOM      2  C   UNL     1       0.944  -1.016  -0.550  0.00  0.00    +0.002 C 
ATOM      3  C   UNL     1       1.709  -0.214   0.526  0.00  0.00    +0.123 C 
ATOM      4  C   UNL     1       1.778   1.275   0.173  0.00  0.00    +0.160 C 
ATOM      5  C   UNL     1       0.403   1.830  -0.193  0.00  0.00    +0.119 C 
ATOM      6  C   UNL     1      -0.299   0.949  -1.228  0.00  0.00    -0.045 C 
ATOM      7  H   UNL     1      -0.760  -1.004  -1.621  0.00  0.00    -0.079 HD
ENDROOT
BRANCH   3   8
ATOM      8  O   UNL     1       3.055  -0.686   0.622  0.00  0.00    -0.384 OA
ATOM      9  H   UNL     1       3.052  -1.630   0.846  0.00  0.00    +0.210 HD
ENDBRANCH   3   8
BRANCH   4  10
ATOM     10  O   UNL     1       2.267   2.002   1.302  0.00  0.00    -0.380 OA
ATOM     11  H   UNL     1       3.142   1.663   1.550  0.00  0.00    +0.211 HD
ENDBRANCH   4  10
BRANCH   5  12
ATOM     12  O   UNL     1       0.549   3.147  -0.726  0.00  0.00    -0.384 OA
ATOM     13  H   UNL     1       0.994   3.712  -0.075  0.00  0.00    +0.210 HD
ENDBRANCH   5  12
BRANCH   1  14
ATOM     14  C   UNL     1      -1.373  -0.656   0.235  0.00  0.00    -0.077 C 
BRANCH  14  15
ATOM     15  C   UNL     1      -2.764  -0.229  -0.231  0.00  0.00    -0.023 C 
BRANCH  15  16
ATOM     16  C   UNL     1      -3.804  -0.443   0.869  0.00  0.00    -0.002 C 
ATOM     17  C   UNL     1      -5.185   0.013   0.425  0.00  0.00    -0.000 C 
ENDBRANCH  15  16
ENDBRANCH  14  15
ENDBRANCH   1  14
BRANCH   2  18
ATOM     18  C   UNL     1       0.894  -2.515  -0.223  0.00  0.00    +0.119 C 
BRANCH  18  19
ATOM     19  O   UNL     1       2.221  -2.993  -0.164  0.00  0.00    -0.384 OA
ATOM     20  H   UNL     1       2.215  -3.941   0.042  0.00  0.00    +0.210 HD
ENDBRANCH  18  19
ENDBRANCH   2  18
TORSDOF 8
