REMARK  Name = 4011971
REMARK  3 active torsions:
REMARK  status: ('A' for Active; 'I' for Inactive)
REMARK    1  A    between atoms: N_3  and  C_24
REMARK    2  A    between atoms: C_6  and  N_13
REMARK    3  A    between atoms: C_9  and  C_23
REMARK                            x       y       z     vdW  Elec       q    Type
REMARK                         _______ _______ _______ _____ _____    ______ ____
ROOT
ATOM      1  F   UNL     1      -2.244   2.762   0.403  0.00  0.00    -0.203 F 
ATOM      2  O   UNL     1       2.787   2.539   0.288  0.00  0.00    -0.286 OA
ATOM      3  N   UNL     1       1.532  -1.295  -0.303  0.00  0.00    -0.287 N 
ATOM      4  C   UNL     1       0.546  -0.282  -0.126  0.00  0.00    +0.056 C 
ATOM      5  C   UNL     1       2.871  -0.956  -0.270  0.00  0.00    +0.075 C 
ATOM      6  C   UNL     1      -1.769   0.467   0.029  0.00  0.00    +0.077 C 
ATOM      7  C   UNL     1       0.952   1.055   0.081  0.00  0.00    +0.055 C 
ATOM      8  C   UNL     1      -0.831  -0.554  -0.148  0.00  0.00    +0.032 C 
ATOM      9  C   UNL     1       3.357   0.274  -0.081  0.00  0.00    +0.133 C 
ATOM     10  C   UNL     1       2.400   1.391   0.113  0.00  0.00    +0.204 C 
ATOM     11  C   UNL     1      -1.349   1.779   0.232  0.00  0.00    +0.153 C 
ATOM     12  C   UNL     1       0.011   2.077   0.259  0.00  0.00    +0.035 C 
ENDROOT
BRANCH   6  13
ATOM     13  N   UNL     1      -3.136   0.167   0.004  0.00  0.00    -0.310 N 
ATOM     14  N   UNL     1      -5.864  -0.507  -0.236  0.00  0.00    +0.386 N 
ATOM     15  C   UNL     1      -3.959   0.827  -1.022  0.00  0.00    +0.068 C 
ATOM     16  C   UNL     1      -3.595  -1.154   0.450  0.00  0.00    +0.068 C 
ATOM     17  C   UNL     1      -5.418   0.871  -0.591  0.00  0.00    -0.060 C 
ATOM     18  C   UNL     1      -5.058  -1.101   0.869  0.00  0.00    -0.060 C 
ATOM     19  H   UNL     1      -5.778  -1.102  -1.060  0.00  0.00    -0.084 HD
ATOM     20  H   UNL     1      -6.831  -0.447   0.084  0.00  0.00    -0.084 HD
ENDBRANCH   6  13
BRANCH   9  23
ATOM     21  O   UNL     1       5.240   1.663   0.113  0.00  0.00    -0.240 OA
ATOM     22  O   UNL     1       5.538  -0.576  -0.249  0.00  0.00    -0.240 OA
ATOM     23  C   UNL     1       4.856   0.473  -0.071  0.00  0.00    +0.392 C 
ENDBRANCH   9  23
BRANCH   3  24
ATOM     24  C   UNL     1       1.161  -2.709  -0.523  0.00  0.00    +0.077 C 
ATOM     25  C   UNL     1       1.712  -3.788   0.350  0.00  0.00    +0.022 C 
ATOM     26  C   UNL     1       0.259  -3.421   0.430  0.00  0.00    +0.022 C 
ENDBRANCH   3  24
TORSDOF 3
