REMARK  Name = 4046
REMARK  5 active torsions:
REMARK  status: ('A' for Active; 'I' for Inactive)
REMARK    1  A    between atoms: C_2  and  C_19
REMARK    2  A    between atoms: C_6  and  C_14
REMARK    3  A    between atoms: C_8  and  C_18
REMARK    4  A    between atoms: C_19  and  C_21
REMARK    5  A    between atoms: C_19  and  O_28
REMARK                            x       y       z     vdW  Elec       q    Type
REMARK                         _______ _______ _______ _____ _____    ______ ____
ROOT
ATOM      1  N   UNL     1       1.746   0.798  -0.010  0.00  0.00    -0.402 NA
ATOM      2  C   UNL     1      -0.749  -0.103   0.789  0.00  0.00    -0.007 C 
ATOM      3  C   UNL     1       0.269  -1.025   0.541  0.00  0.00    +0.095 C 
ATOM      4  C   UNL     1      -0.533   1.253   0.643  0.00  0.00    +0.030 C 
ATOM      5  C   UNL     1       1.523  -0.522   0.136  0.00  0.00    +0.120 C 
ATOM      6  C   UNL     1       0.726   1.651   0.243  0.00  0.00    +0.202 C 
ATOM      7  C   UNL     1       0.072  -2.409   0.683  0.00  0.00    -0.015 C 
ATOM      8  C   UNL     1       2.545  -1.434  -0.114  0.00  0.00    +0.097 C 
ATOM      9  C   UNL     1       1.111  -3.298   0.426  0.00  0.00    -0.004 C 
ATOM     10  C   UNL     1       2.349  -2.810   0.027  0.00  0.00    +0.006 C 
ENDROOT
BRANCH   6  14
ATOM     11  F   UNL     1      -0.054   3.910   0.336  0.00  0.00    -0.164 F 
ATOM     12  F   UNL     1       2.018   3.562   0.872  0.00  0.00    -0.164 F 
ATOM     13  F   UNL     1       1.396   3.413  -1.206  0.00  0.00    -0.164 F 
ATOM     14  C   UNL     1       1.015   3.104   0.067  0.00  0.00    +0.446 C 
ENDBRANCH   6  14
BRANCH   8  18
ATOM     15  F   UNL     1       4.788  -1.967  -0.753  0.00  0.00    -0.166 F 
ATOM     16  F   UNL     1       3.873  -0.252  -1.714  0.00  0.00    -0.166 F 
ATOM     17  F   UNL     1       4.474  -0.133   0.372  0.00  0.00    -0.166 F 
ATOM     18  C   UNL     1       3.896  -0.956  -0.547  0.00  0.00    +0.421 C 
ENDBRANCH   8  18
BRANCH   2  19
ATOM     19  C   UNL     1      -2.126  -0.540   1.224  0.00  0.00    +0.110 C 
BRANCH  19  21
ATOM     20  N   UNL     1      -4.365  -1.213   0.525  0.00  0.00    +0.387 N 
ATOM     21  C   UNL     1      -3.060  -0.753   0.035  0.00  0.00    -0.030 C 
ATOM     22  C   UNL     1      -3.208   0.544  -0.772  0.00  0.00    -0.019 C 
ATOM     23  C   UNL     1      -4.202   0.372  -1.918  0.00  0.00    -0.004 C 
ATOM     24  C   UNL     1      -5.523  -0.188  -1.402  0.00  0.00    -0.023 C 
ATOM     25  C   UNL     1      -5.302  -1.451  -0.573  0.00  0.00    -0.082 C 
ATOM     26  H   UNL     1      -4.755  -0.502   1.144  0.00  0.00    -0.084 HD
ATOM     27  H   UNL     1      -4.226  -2.093   1.022  0.00  0.00    -0.084 HD
ENDBRANCH  19  21
BRANCH  19  28
ATOM     28  O   UNL     1      -2.681   0.445   2.092  0.00  0.00    -0.382 OA
ATOM     29  H   UNL     1      -3.566   0.167   2.374  0.00  0.00    +0.211 HD
ENDBRANCH  19  28
ENDBRANCH   2  19
TORSDOF 5
