REMARK  Name = 123631
REMARK  7 active torsions:
REMARK  status: ('A' for Active; 'I' for Inactive)
REMARK    1  A    between atoms: N_1  and  C_15
REMARK    2  A    between atoms: C_4  and  O_23
REMARK    3  A    between atoms: C_7  and  O_21
REMARK    4  A    between atoms: O_23  and  C_24
REMARK    5  A    between atoms: C_24  and  C_25
REMARK    6  A    between atoms: C_25  and  C_26
REMARK    7  A    between atoms: C_26  and  N_28
REMARK                            x       y       z     vdW  Elec       q    Type
REMARK                         _______ _______ _______ _____ _____    ______ ____
ROOT
ATOM      1  N   UNL     1      -1.158  -1.209   0.606  0.00  0.00    -0.298 N 
ATOM      2  N   UNL     1       1.571  -3.995  -0.780  0.00  0.00    -0.248 NA
ATOM      3  N   UNL     1      -0.687  -3.356  -0.235  0.00  0.00    -0.230 NA
ATOM      4  C   UNL     1       2.964  -0.251   0.380  0.00  0.00    +0.169 C 
ATOM      5  C   UNL     1       1.135  -1.798   0.075  0.00  0.00    +0.048 C 
ATOM      6  C   UNL     1       1.609  -0.533   0.466  0.00  0.00    +0.044 C 
ATOM      7  C   UNL     1       3.847  -1.210  -0.089  0.00  0.00    +0.156 C 
ATOM      8  C   UNL     1       2.014  -2.783  -0.403  0.00  0.00    +0.066 C 
ATOM      9  C   UNL     1       3.368  -2.465  -0.476  0.00  0.00    +0.112 C 
ATOM     10  C   UNL     1      -0.210  -2.152   0.134  0.00  0.00    +0.131 C 
ATOM     11  C   UNL     1       0.245  -4.216  -0.675  0.00  0.00    +0.252 C 
ATOM     12  H   UNL     1      -0.793  -0.577   1.266  0.00  0.00    +0.154 HD
ENDROOT
BRANCH   1  15
ATOM     13 CL   UNL     1      -5.767   0.379   2.197  0.00  0.00    -0.080 Cl
ATOM     14  F   UNL     1      -6.513  -0.403  -0.564  0.00  0.00    -0.203 F 
ATOM     15  C   UNL     1      -2.515  -1.003   0.314  0.00  0.00    +0.050 C 
ATOM     16  C   UNL     1      -3.373  -0.476   1.284  0.00  0.00    +0.028 C 
ATOM     17  C   UNL     1      -3.019  -1.325  -0.950  0.00  0.00    +0.017 C 
ATOM     18  C   UNL     1      -4.721  -0.272   0.994  0.00  0.00    +0.086 C 
ATOM     19  C   UNL     1      -4.369  -1.120  -1.241  0.00  0.00    +0.032 C 
ATOM     20  C   UNL     1      -5.220  -0.594  -0.269  0.00  0.00    +0.151 C 
ENDBRANCH   1  15
BRANCH   7  21
ATOM     21  O   UNL     1       5.181  -0.947  -0.179  0.00  0.00    -0.472 OA
ATOM     22  C   UNL     1       5.980  -1.250   0.962  0.00  0.00    +0.252 C 
ENDBRANCH   7  21
BRANCH   4  23
ATOM     23  O   UNL     1       3.419   0.984   0.762  0.00  0.00    -0.473 OA
BRANCH  23  24
ATOM     24  C   UNL     1       3.468   1.988  -0.243  0.00  0.00    +0.203 C 
BRANCH  24  25
ATOM     25  C   UNL     1       3.234   3.345   0.406  0.00  0.00    +0.025 C 
BRANCH  25  26
ATOM     26  C   UNL     1       1.869   3.414   1.083  0.00  0.00    -0.073 C 
BRANCH  26  28
ATOM     27  O   UNL     1      -1.567   3.914  -1.276  0.00  0.00    -0.358 OA
ATOM     28  N   UNL     1       0.806   3.171   0.109  0.00  0.00    +0.390 N 
ATOM     29  C   UNL     1      -0.508   3.143   0.766  0.00  0.00    -0.045 C 
ATOM     30  C   UNL     1       0.821   4.194  -0.945  0.00  0.00    -0.045 C 
ATOM     31  C   UNL     1      -1.600   2.900  -0.271  0.00  0.00    +0.119 C 
ATOM     32  C   UNL     1      -0.303   3.927  -1.942  0.00  0.00    +0.119 C 
ATOM     33  H   UNL     1       0.977   2.260  -0.318  0.00  0.00    -0.079 HD
ENDBRANCH  26  28
ENDBRANCH  25  26
ENDBRANCH  24  25
ENDBRANCH  23  24
ENDBRANCH   4  23
TORSDOF 7
