REMARK  Name = 38853
REMARK  7 active torsions:
REMARK  status: ('A' for Active; 'I' for Inactive)
REMARK    1  A    between atoms: C_1  and  C_2
REMARK    2  A    between atoms: C_1  and  C_12
REMARK    3  A    between atoms: C_5  and  O_8
REMARK    4  A    between atoms: C_7  and  O_10
REMARK    5  A    between atoms: C_12  and  N_14
REMARK    6  A    between atoms: C_12  and  C_19
REMARK    7  A    between atoms: C_19  and  O_20
REMARK                            x       y       z     vdW  Elec       q    Type
REMARK                         _______ _______ _______ _____ _____    ______ ____
ROOT
ATOM      1  C   UNL     1      -1.206  -0.745  -1.142  0.00  0.00    +0.017 C 
ENDROOT
BRANCH   1   2
ATOM      2  C   UNL     1       0.216  -0.579  -0.657  0.00  0.00    -0.020 C 
ATOM      3  C   UNL     1       0.830   0.656  -0.773  0.00  0.00    +0.035 C 
ATOM      4  C   UNL     1       0.875  -1.666  -0.108  0.00  0.00    -0.001 C 
ATOM      5  C   UNL     1       2.143   0.809  -0.326  0.00  0.00    +0.167 C 
ATOM      6  C   UNL     1       2.187  -1.513   0.339  0.00  0.00    +0.039 C 
ATOM      7  C   UNL     1       2.821  -0.276   0.231  0.00  0.00    +0.167 C 
BRANCH   5   8
ATOM      8  O   UNL     1       2.751   2.023  -0.436  0.00  0.00    -0.503 OA
ATOM      9  H   UNL     1       2.289   2.746  -0.811  0.00  0.00    +0.292 HD
ENDBRANCH   5   8
BRANCH   7  10
ATOM     10  O   UNL     1       4.103  -0.138   0.672  0.00  0.00    -0.503 OA
ATOM     11  H   UNL     1       4.536   0.690   0.602  0.00  0.00    +0.292 HD
ENDBRANCH   7  10
ENDBRANCH   1   2
BRANCH   1  12
ATOM     12  C   UNL     1      -2.307  -0.464  -0.090  0.00  0.00    +0.047 C 
ATOM     13  C   UNL     1      -2.257  -1.466   1.074  0.00  0.00    -0.011 C 
BRANCH  12  14
ATOM     14  N   UNL     1      -3.621  -0.634  -0.728  0.00  0.00    +0.390 N 
ATOM     15  H   UNL     1      -3.699  -1.581  -1.099  0.00  0.00    -0.088 HD
ATOM     16  H   UNL     1      -3.719   0.038  -1.489  0.00  0.00    -0.088 HD
ATOM     17  H   UNL     1      -4.356  -0.477  -0.039  0.00  0.00    -0.088 HD
ENDBRANCH  12  14
BRANCH  12  19
ATOM     18  O   UNL     1      -2.762   1.934  -0.101  0.00  0.00    -0.253 OA
ATOM     19  C   UNL     1      -2.242   0.968   0.447  0.00  0.00    +0.295 C 
BRANCH  19  20
ATOM     20  O   UNL     1      -1.531   1.092   1.598  0.00  0.00    -0.482 OA
ATOM     21  H   UNL     1      -1.145   0.336   1.994  0.00  0.00    +0.295 HD
ENDBRANCH  19  20
ENDBRANCH  12  19
ENDBRANCH   1  12
TORSDOF 7
