REMARK  Name = 3325
REMARK  10 active torsions:
REMARK  status: ('A' for Active; 'I' for Inactive)
REMARK    1  A    between atoms: S_1  and  C_2
REMARK    2  A    between atoms: S_1  and  C_15
REMARK    3  A    between atoms: C_2  and  C_3
REMARK    4  A    between atoms: C_3  and  C_6
REMARK    5  A    between atoms: N_4  and  C_6
REMARK    6  A    between atoms: N_4  and  S_9
REMARK    7  A    between atoms: S_9  and  N_12
REMARK    8  A    between atoms: C_15  and  C_18
REMARK    9  A    between atoms: C_20  and  N_21
REMARK   10  A    between atoms: N_21  and  C_24
REMARK                            x       y       z     vdW  Elec       q    Type
REMARK                         _______ _______ _______ _____ _____    ______ ____
ROOT
ATOM      1  S   UNL     1       0.974  -2.046   1.129  0.00  0.00    -0.133 S 
ENDROOT
BRANCH   1   2
ATOM      2  C   UNL     1       2.617  -2.649   0.634  0.00  0.00    +0.066 C 
BRANCH   2   3
ATOM      3  C   UNL     1       3.219  -1.823  -0.498  0.00  0.00    +0.074 C 
BRANCH   3   5
ATOM      4  N   UNL     1       4.565  -0.045   0.543  0.00  0.00    -0.387 N 
ATOM      5  C   UNL     1       3.398  -0.356  -0.117  0.00  0.00    +0.122 C 
ATOM      6  H   UNL     1       4.743   0.883   0.817  0.00  0.00    +0.157 HD
ATOM      7  H   UNL     1       5.222  -0.752   0.740  0.00  0.00    +0.157 HD
BRANCH   5   8
ATOM      8  N   UNL     1       2.433   0.444  -0.461  0.00  0.00    -0.074 NA
BRANCH   8   9
ATOM      9  S   UNL     1       2.495   2.042  -0.127  0.00  0.00    +0.127 S 
ATOM     10  O   UNL     1       3.584   2.636  -0.885  0.00  0.00    -0.137 OA
ATOM     11  O   UNL     1       2.455   2.220   1.316  0.00  0.00    -0.137 OA
BRANCH   9  12
ATOM     12  N   UNL     1       1.043   2.735  -0.741  0.00  0.00    -0.189 NA
ATOM     13  H   UNL     1       1.039   3.738  -0.553  0.00  0.00    +0.146 HD
ATOM     14  H   UNL     1       0.240   2.301  -0.286  0.00  0.00    +0.146 HD
ENDBRANCH   9  12
ENDBRANCH   8   9
ENDBRANCH   5   8
ENDBRANCH   3   5
ENDBRANCH   2   3
ENDBRANCH   1   2
BRANCH   1  15
ATOM     15  C   UNL     1       0.125  -2.282  -0.448  0.00  0.00    +0.113 C 
BRANCH  15  18
ATOM     16  S   UNL     1      -3.805  -1.771  -0.059  0.00  0.00    -0.055 S 
ATOM     17  N   UNL     1      -1.606  -0.556  -0.670  0.00  0.00    -0.384 NA
ATOM     18  C   UNL     1      -1.306  -1.861  -0.368  0.00  0.00    +0.111 C 
ATOM     19  C   UNL     1      -2.349  -2.676  -0.016  0.00  0.00    +0.121 C 
ATOM     20  C   UNL     1      -2.904  -0.392  -0.540  0.00  0.00    +0.243 C 
BRANCH  20  21
ATOM     21  N   UNL     1      -3.583   0.764  -0.752  0.00  0.00    -0.178 NA
BRANCH  21  24
ATOM     22  N   UNL     1      -4.388   2.792   0.289  0.00  0.00    -0.370 N 
ATOM     23  N   UNL     1      -3.227   1.249   1.502  0.00  0.00    -0.370 N 
ATOM     24  C   UNL     1      -3.740   1.575   0.268  0.00  0.00    +0.196 C 
ATOM     25  H   UNL     1      -4.802   3.144  -0.532  0.00  0.00    +0.159 HD
ATOM     26  H   UNL     1      -4.437   3.310   1.125  0.00  0.00    +0.159 HD
ATOM     27  H   UNL     1      -2.739   0.403   1.624  0.00  0.00    +0.159 HD
ATOM     28  H   UNL     1      -3.348   1.862   2.262  0.00  0.00    +0.159 HD
ENDBRANCH  21  24
ENDBRANCH  20  21
ENDBRANCH  15  18
ENDBRANCH   1  15
TORSDOF 10
