REMARK  Name = 3385
REMARK  0 active torsions:
REMARK  status: ('A' for Active; 'I' for Inactive)
REMARK                            x       y       z     vdW  Elec       q    Type
REMARK                         _______ _______ _______ _____ _____    ______ ____
ROOT
ATOM      1  F   UNL     1      -2.455  -0.838  -0.001  0.00  0.00    -0.198 F 
ATOM      2  O   UNL     1      -1.605   1.748   0.000  0.00  0.00    -0.267 OA
ATOM      3  O   UNL     1       2.812   0.357  -0.001  0.00  0.00    -0.252 OA
ATOM      4  N   UNL     1       0.616   1.077   0.001  0.00  0.00    -0.234 N 
ATOM      5  N   UNL     1       1.126  -1.214   0.000  0.00  0.00    -0.265 N 
ATOM      6  C   UNL     1      -0.758   0.861   0.000  0.00  0.00    +0.282 C 
ATOM      7  C   UNL     1       1.609   0.090   0.000  0.00  0.00    +0.311 C 
ATOM      8  C   UNL     1      -1.138  -0.565   0.000  0.00  0.00    +0.208 C 
ATOM      9  C   UNL     1      -0.208  -1.518   0.000  0.00  0.00    +0.100 C 
ATOM     10  H   UNL     1       0.919   2.014   0.002  0.00  0.00    +0.159 HD
ATOM     11  H   UNL     1       1.775  -1.954   0.000  0.00  0.00    +0.157 HD
ENDROOT
TORSDOF 0
