REMARK  Name = 8226
REMARK  5 active torsions:
REMARK  status: ('A' for Active; 'I' for Inactive)
REMARK    1  A    between atoms: C_6  and  C_22
REMARK    2  A    between atoms: N_21  and  CA_24
REMARK    3  A    between atoms: CA_24  and  C_25
REMARK    4  A    between atoms: CA_24  and  C_27
REMARK    5  A    between atoms: C_27  and  O_28
REMARK                            x       y       z     vdW  Elec       q    Type
REMARK                         _______ _______ _______ _____ _____    ______ ____
ROOT
ATOM      1  N   UNL     1       0.225  -2.460  -0.003  0.00  0.00    +0.390 N 
ATOM      2  N   UNL     1       5.604   0.191   0.210  0.00  0.00    -0.312 N 
ATOM      3  C   UNL     1       1.342  -1.531  -0.335  0.00  0.00    -0.031 C 
ATOM      4  C   UNL     1       1.021  -0.045   0.007  0.00  0.00    -0.045 C 
ATOM      5  C   UNL     1       2.667  -2.047   0.340  0.00  0.00    +0.011 C 
ATOM      6  C   UNL     1      -1.373  -0.615   0.345  0.00  0.00    +0.077 C 
ATOM      7  C   UNL     1      -1.067  -1.902  -0.426  0.00  0.00    -0.063 C 
ATOM      8  C   UNL     1       3.741  -1.022   0.259  0.00  0.00    -0.008 C 
ATOM      9  C   UNL     1       2.139   0.925  -0.033  0.00  0.00    -0.005 C 
ATOM     10  C   UNL     1       3.403   0.337   0.091  0.00  0.00    +0.010 C 
ATOM     11  C   UNL     1      -0.220   0.342   0.350  0.00  0.00    -0.026 C 
ATOM     12  C   UNL     1       4.567   1.087   0.065  0.00  0.00    +0.048 C 
ATOM     13  C   UNL     1       0.404  -3.783  -0.610  0.00  0.00    -0.100 C 
ATOM     14  C   UNL     1       5.113  -1.092   0.332  0.00  0.00    +0.058 C 
ATOM     15  C   UNL     1       2.093   2.316  -0.185  0.00  0.00    -0.000 C 
ATOM     16  C   UNL     1       4.539   2.474  -0.085  0.00  0.00    +0.015 C 
ATOM     17  C   UNL     1       3.274   3.071  -0.209  0.00  0.00    +0.001 C 
ATOM     18  H   UNL     1       0.234  -2.571   1.011  0.00  0.00    -0.079 HD
ATOM     19  H   UNL     1       6.558   0.431   0.225  0.00  0.00    +0.152 HD
ENDROOT
BRANCH   6  22
ATOM     20  O   UNL     1      -2.486   0.470  -1.466  0.00  0.00    -0.275 OA
ATOM     21  N   UNL     1      -3.582   0.278   0.578  0.00  0.00    -0.303 N 
ATOM     22  C   UNL     1      -2.526   0.095  -0.298  0.00  0.00    +0.224 C 
ATOM     23  H   UNL     1      -3.496  -0.070   1.495  0.00  0.00    +0.149 HD
BRANCH  21  24
ATOM     24  CA  UNL     1      -4.805   0.955   0.211  0.00  0.00    +0.101 C 
BRANCH  24  25
ATOM     25  C   UNL     1      -5.496   0.248  -0.962  0.00  0.00    +0.022 C 
ATOM     26  C   UNL     1      -6.753   0.972  -1.427  0.00  0.00    +0.002 C 
ENDBRANCH  24  25
BRANCH  24  27
ATOM     27  C   UNL     1      -5.734   1.027   1.423  0.00  0.00    +0.157 C 
BRANCH  27  28
ATOM     28  O   UNL     1      -6.089  -0.291   1.826  0.00  0.00    -0.380 OA
ATOM     29  H   UNL     1      -6.679  -0.246   2.595  0.00  0.00    +0.211 HD
ENDBRANCH  27  28
ENDBRANCH  24  27
ENDBRANCH  21  24
ENDBRANCH   6  22
TORSDOF 5
