REMARK  Name = 2182
REMARK  0 active torsions:
REMARK  status: ('A' for Active; 'I' for Inactive)
REMARK                            x       y       z     vdW  Elec       q    Type
REMARK                         _______ _______ _______ _____ _____    ______ ____
ROOT
ATOM      1 CL   UNL     1       2.496  -2.515   0.000  0.00  0.00    -0.082 Cl
ATOM      2 CL   UNL     1       4.900  -0.420   0.001  0.00  0.00    -0.081 Cl
ATOM      3  O   UNL     1      -4.994  -0.275   0.001  0.00  0.00    -0.212 OA
ATOM      4  N   UNL     1      -1.565  -0.649   0.000  0.00  0.00    -0.251 N 
ATOM      5  N   UNL     1      -0.707   1.540   0.000  0.00  0.00    -0.275 N 
ATOM      6  N   UNL     1      -3.061   1.030  -0.001  0.00  0.00    -0.304 NA
ATOM      7  C   UNL     1      -0.286  -1.319   0.000  0.00  0.00    +0.124 C 
ATOM      8  C   UNL     1       0.860  -0.332   0.000  0.00  0.00    +0.023 C 
ATOM      9  C   UNL     1      -1.791   0.704  -0.001  0.00  0.00    +0.255 C 
ATOM     10  C   UNL     1      -2.820  -1.358   0.000  0.00  0.00    +0.231 C 
ATOM     11  C   UNL     1       0.614   1.056   0.000  0.00  0.00    +0.050 C 
ATOM     12  C   UNL     1      -3.774  -0.165   0.000  0.00  0.00    +0.204 C 
ATOM     13  C   UNL     1       2.179  -0.803   0.000  0.00  0.00    +0.067 C 
ATOM     14  C   UNL     1       1.696   1.946   0.000  0.00  0.00    +0.015 C 
ATOM     15  C   UNL     1       3.247   0.094   0.000  0.00  0.00    +0.068 C 
ATOM     16  C   UNL     1       3.006   1.466   0.000  0.00  0.00    +0.014 C 
ATOM     17  H   UNL     1      -0.857   2.513   0.000  0.00  0.00    +0.156 HD
ENDROOT
TORSDOF 0
