REMARK  Name = 4976
REMARK  4 active torsions:
REMARK  status: ('A' for Active; 'I' for Inactive)
REMARK    1  A    between atoms: C_1  and  C_16
REMARK    2  A    between atoms: C_16  and  C_17
REMARK    3  A    between atoms: C_17  and  C_18
REMARK    4  A    between atoms: C_18  and  N_19
REMARK                            x       y       z     vdW  Elec       q    Type
REMARK                         _______ _______ _______ _____ _____    ______ ____
ROOT
ATOM      1  C   UNL     1      -0.103  -0.392   0.708  0.00  0.00    +0.044 C 
ATOM      2  C   UNL     1       0.151   1.091   0.485  0.00  0.00    -0.018 C 
ATOM      3  C   UNL     1      -1.542  -0.808   0.444  0.00  0.00    -0.018 C 
ATOM      4  C   UNL     1      -0.120   1.745  -0.733  0.00  0.00    -0.004 C 
ATOM      5  C   UNL     1      -2.197  -0.583  -0.783  0.00  0.00    -0.004 C 
ATOM      6  C   UNL     1       0.707   1.836   1.545  0.00  0.00    -0.004 C 
ATOM      7  C   UNL     1      -2.241  -1.470   1.473  0.00  0.00    -0.004 C 
ATOM      8  C   UNL     1      -0.675   1.072  -1.916  0.00  0.00    -0.000 C 
ATOM      9  C   UNL     1      -1.567   0.072  -1.938  0.00  0.00    -0.000 C 
ATOM     10  C   UNL     1       0.191   3.111  -0.864  0.00  0.00    -0.000 C 
ATOM     11  C   UNL     1      -3.515  -1.044  -0.954  0.00  0.00    -0.000 C 
ATOM     12  C   UNL     1       0.995   3.193   1.403  0.00  0.00    -0.000 C 
ATOM     13  C   UNL     1      -3.553  -1.906   1.293  0.00  0.00    -0.000 C 
ATOM     14  C   UNL     1       0.739   3.830   0.197  0.00  0.00    -0.000 C 
ATOM     15  C   UNL     1      -4.190  -1.695   0.078  0.00  0.00    -0.000 C 
ENDROOT
BRANCH   1  16
ATOM     16  C   UNL     1       0.908  -1.278  -0.032  0.00  0.00    +0.007 C 
BRANCH  16  17
ATOM     17  C   UNL     1       2.333  -0.964   0.407  0.00  0.00    -0.023 C 
BRANCH  17  18
ATOM     18  C   UNL     1       3.331  -1.871  -0.311  0.00  0.00    -0.082 C 
BRANCH  18  19
ATOM     19  N   UNL     1       4.693  -1.551   0.100  0.00  0.00    +0.382 N 
ATOM     20  C   UNL     1       5.657  -2.387  -0.602  0.00  0.00    -0.106 C 
ATOM     21  H   UNL     1       4.785  -1.706   1.104  0.00  0.00    -0.085 HD
ATOM     22  H   UNL     1       4.881  -0.575  -0.128  0.00  0.00    -0.085 HD
ENDBRANCH  18  19
ENDBRANCH  17  18
ENDBRANCH  16  17
ENDBRANCH   1  16
TORSDOF 4
