REMARK  Name = 7697
REMARK  6 active torsions:
REMARK  status: ('A' for Active; 'I' for Inactive)
REMARK    1  A    between atoms: O_1  and  C_3
REMARK    2  A    between atoms: O_1  and  C_9
REMARK    3  A    between atoms: C_9  and  C_10
REMARK    4  A    between atoms: C_10  and  O_11
REMARK    5  A    between atoms: C_10  and  C_13
REMARK    6  A    between atoms: C_13  and  O_14
REMARK                            x       y       z     vdW  Elec       q    Type
REMARK                         _______ _______ _______ _____ _____    ______ ____
ROOT
ATOM      1  O   UNL     1       0.607  -0.700   0.376  0.00  0.00    -0.473 OA
ENDROOT
BRANCH   1   3
ATOM      2 CL   UNL     1      -5.072   0.603  -0.352  0.00  0.00    -0.082 Cl
ATOM      3  C   UNL     1      -0.718  -0.396   0.206  0.00  0.00    +0.139 C 
ATOM      4  C   UNL     1      -1.189   0.861   0.570  0.00  0.00    +0.038 C 
ATOM      5  C   UNL     1      -1.580  -1.347  -0.330  0.00  0.00    +0.038 C 
ATOM      6  C   UNL     1      -2.538   1.171   0.397  0.00  0.00    +0.015 C 
ATOM      7  C   UNL     1      -2.929  -1.037  -0.503  0.00  0.00    +0.015 C 
ATOM      8  C   UNL     1      -3.408   0.221  -0.139  0.00  0.00    +0.058 C 
ENDBRANCH   1   3
BRANCH   1   9
ATOM      9  C   UNL     1       1.529   0.381   0.280  0.00  0.00    +0.237 C 
BRANCH   9  10
ATOM     10  C   UNL     1       2.881  -0.134  -0.199  0.00  0.00    +0.183 C 
BRANCH  10  11
ATOM     11  O   UNL     1       3.379  -1.074   0.756  0.00  0.00    -0.378 OA
ATOM     12  H   UNL     1       2.747  -1.804   0.850  0.00  0.00    +0.211 HD
ENDBRANCH  10  11
BRANCH  10  13
ATOM     13  C   UNL     1       3.896   0.996  -0.319  0.00  0.00    +0.170 C 
BRANCH  13  14
ATOM     14  O   UNL     1       5.143   0.454  -0.742  0.00  0.00    -0.379 OA
ATOM     15  H   UNL     1       5.795   1.167  -0.821  0.00  0.00    +0.211 HD
ENDBRANCH  13  14
ENDBRANCH  10  13
ENDBRANCH   9  10
ENDBRANCH   1   9
TORSDOF 6
