REMARK  Name = 6957673
REMARK  9 active torsions:
REMARK  status: ('A' for Active; 'I' for Inactive)
REMARK    1  A    between atoms: C_1  and  C_4
REMARK    2  A    between atoms: C_1  and  N_17
REMARK    3  A    between atoms: C_1  and  C_26
REMARK    4  A    between atoms: N_3  and  C_6
REMARK    5  A    between atoms: C_11  and  C_13
REMARK    6  A    between atoms: C_13  and  O_14
REMARK    7  A    between atoms: C_18  and  C_20
REMARK    8  A    between atoms: C_26  and  C_27
REMARK    9  A    between atoms: C_32  and  O_33
REMARK                            x       y       z     vdW  Elec       q    Type
REMARK                         _______ _______ _______ _____ _____    ______ ____
ROOT
ATOM      1  C   UNL     1       0.847  -0.620   1.321  0.00  0.00    +0.153 C 
ENDROOT
BRANCH   1   4
ATOM      2  O   UNL     1      -0.250  -0.764  -0.823  0.00  0.00    -0.273 OA
ATOM      3  N   UNL     1      -1.558  -0.702   1.125  0.00  0.00    -0.283 N 
ATOM      4  C   UNL     1      -0.371  -0.686   0.397  0.00  0.00    +0.244 C 
ATOM      5  H   UNL     1      -1.467  -0.671   2.104  0.00  0.00    +0.155 HD
BRANCH   3   6
ATOM      6  C   UNL     1      -2.879  -0.759   0.622  0.00  0.00    +0.050 C 
ATOM      7  C   UNL     1      -3.942  -0.766   1.511  0.00  0.00    +0.015 C 
ATOM      8  C   UNL     1      -3.083  -0.805  -0.747  0.00  0.00    +0.015 C 
ATOM      9  C   UNL     1      -5.245  -0.822   1.016  0.00  0.00    +0.008 C 
ATOM     10  C   UNL     1      -4.386  -0.859  -1.242  0.00  0.00    +0.008 C 
ATOM     11  C   UNL     1      -5.467  -0.868  -0.360  0.00  0.00    +0.076 C 
BRANCH  11  13
ATOM     12  O   UNL     1      -7.852  -0.935  -0.189  0.00  0.00    -0.245 OA
ATOM     13  C   UNL     1      -6.825  -0.924  -0.876  0.00  0.00    +0.338 C 
BRANCH  13  14
ATOM     14  O   UNL     1      -6.864  -0.963  -2.236  0.00  0.00    -0.477 OA
ATOM     15  H   UNL     1      -6.067  -0.953  -2.728  0.00  0.00    +0.295 HD
ENDBRANCH  13  14
ENDBRANCH  11  13
ENDBRANCH   3   6
ENDBRANCH   1   4
BRANCH   1  17
ATOM     16  O   UNL     1       3.312  -1.894   2.059  0.00  0.00    -0.270 OA
ATOM     17  N   UNL     1       2.011  -0.793   0.486  0.00  0.00    -0.295 N 
ATOM     18  C   UNL     1       3.162  -1.425   0.933  0.00  0.00    +0.246 C 
ATOM     19  H   UNL     1       1.987  -0.450  -0.437  0.00  0.00    +0.150 HD
BRANCH  18  20
ATOM     20  C   UNL     1       4.282  -1.500  -0.039  0.00  0.00    +0.053 C 
ATOM     21  C   UNL     1       5.191  -2.532   0.069  0.00  0.00    +0.005 C 
ATOM     22  C   UNL     1       4.378  -0.535  -1.020  0.00  0.00    +0.005 C 
ATOM     23  C   UNL     1       6.242  -2.603  -0.844  0.00  0.00    +0.000 C 
ATOM     24  C   UNL     1       5.430  -0.605  -1.934  0.00  0.00    +0.000 C 
ATOM     25  C   UNL     1       6.362  -1.639  -1.846  0.00  0.00    +0.000 C 
ENDBRANCH  18  20
ENDBRANCH   1  17
BRANCH   1  26
ATOM     26  C   UNL     1       0.916   0.716   2.068  0.00  0.00    +0.055 C 
BRANCH  26  27
ATOM     27  C   UNL     1       0.928   1.916   1.153  0.00  0.00    -0.020 C 
ATOM     28  C   UNL     1      -0.274   2.498   0.780  0.00  0.00    -0.001 C 
ATOM     29  C   UNL     1       2.140   2.416   0.703  0.00  0.00    -0.001 C 
ATOM     30  C   UNL     1      -0.263   3.607  -0.066  0.00  0.00    +0.036 C 
ATOM     31  C   UNL     1       2.150   3.525  -0.143  0.00  0.00    +0.036 C 
ATOM     32  C   UNL     1       0.949   4.120  -0.527  0.00  0.00    +0.134 C 
BRANCH  32  33
ATOM     33  O   UNL     1       0.960   5.203  -1.352  0.00  0.00    -0.506 OA
ATOM     34  H   UNL     1       0.153   5.603  -1.610  0.00  0.00    +0.292 HD
ENDBRANCH  32  33
ENDBRANCH  26  27
ENDBRANCH   1  26
TORSDOF 9
