REMARK  Name = 5576
REMARK  0 active torsions:
REMARK  status: ('A' for Active; 'I' for Inactive)
REMARK                            x       y       z     vdW  Elec       q    Type
REMARK                         _______ _______ _______ _____ _____    ______ ____
ROOT
ATOM      1  O   UNL     1      -0.147   1.379   0.005  0.00  0.00    -0.433 OA
ATOM      2  O   UNL     1      -0.776  -2.056   0.013  0.00  0.00    -0.271 OA
ATOM      3  O   UNL     1       2.130   1.491   0.009  0.00  0.00    -0.226 OA
ATOM      4  N   UNL     1       0.992  -0.532  -0.006  0.00  0.00    -0.191 N 
ATOM      5  C   UNL     1      -1.144   0.342  -0.003  0.00  0.00    +0.206 C 
ATOM      6  C   UNL     1      -0.320  -0.922   0.004  0.00  0.00    +0.270 C 
ATOM      7  C   UNL     1      -1.972   0.455  -1.273  0.00  0.00    +0.053 C 
ATOM      8  C   UNL     1      -1.990   0.454   1.257  0.00  0.00    +0.053 C 
ATOM      9  C   UNL     1       1.103   0.825   0.003  0.00  0.00    +0.411 C 
ATOM     10  C   UNL     1       2.124  -1.437  -0.009  0.00  0.00    +0.126 C 
ENDROOT
TORSDOF 0
