REMARK  Name = 3957
REMARK  2 active torsions:
REMARK  status: ('A' for Active; 'I' for Inactive)
REMARK    1  A    between atoms: C_18  and  O_25
REMARK    2  A    between atoms: O_25  and  C_26
REMARK                            x       y       z     vdW  Elec       q    Type
REMARK                         _______ _______ _______ _____ _____    ______ ____
ROOT
ATOM      1 CL   UNL     1      -3.816  -5.025   0.127  0.00  0.00    -0.082 Cl
ATOM      2  O   UNL     1       5.084   1.520  -0.135  0.00  0.00    -0.226 OA
ATOM      3  N   UNL     1       3.051   0.413  -0.347  0.00  0.00    -0.245 N 
ATOM      4  N   UNL     1      -1.487   2.429   1.431  0.00  0.00    -0.244 NA
ATOM      5  C   UNL     1       0.346   0.309   0.546  0.00  0.00    -0.039 C 
ATOM      6  C   UNL     1       1.138   1.584   0.691  0.00  0.00    +0.044 C 
ATOM      7  C   UNL     1       1.179  -0.948   0.525  0.00  0.00    +0.044 C 
ATOM      8  C   UNL     1      -0.989   0.296   0.421  0.00  0.00    +0.009 C 
ATOM      9  C   UNL     1       2.250   1.641  -0.357  0.00  0.00    +0.101 C 
ATOM     10  C   UNL     1       2.293  -0.835  -0.517  0.00  0.00    +0.101 C 
ATOM     11  C   UNL     1      -1.707  -1.001   0.282  0.00  0.00    -0.003 C 
ATOM     12  C   UNL     1      -1.640   1.619   0.353  0.00  0.00    +0.077 C 
ATOM     13  C   UNL     1      -2.762  -1.211  -0.634  0.00  0.00    -0.021 C 
ATOM     14  C   UNL     1      -3.329  -0.185  -1.599  0.00  0.00    +0.031 C 
ATOM     15  C   UNL     1      -2.491   1.044  -1.949  0.00  0.00    +0.033 C 
ATOM     16  C   UNL     1      -2.361   1.982  -0.783  0.00  0.00    -0.004 C 
ATOM     17  C   UNL     1      -1.350  -2.057   1.152  0.00  0.00    +0.001 C 
ATOM     18  C   UNL     1       4.442   0.475  -0.232  0.00  0.00    +0.405 C 
ATOM     19  C   UNL     1      -3.405  -2.470  -0.651  0.00  0.00    +0.007 C 
ATOM     20  C   UNL     1      -2.953   3.247  -0.797  0.00  0.00    -0.001 C 
ATOM     21  C   UNL     1      -1.994  -3.293   1.108  0.00  0.00    +0.011 C 
ATOM     22  C   UNL     1      -3.022  -3.501   0.203  0.00  0.00    +0.057 C 
ATOM     23  C   UNL     1      -2.813   4.095   0.296  0.00  0.00    +0.020 C 
ATOM     24  C   UNL     1      -2.077   3.643   1.376  0.00  0.00    +0.099 C 
ENDROOT
BRANCH  18  25
ATOM     25  O   UNL     1       5.028  -0.763  -0.238  0.00  0.00    -0.435 OA
BRANCH  25  26
ATOM     26  C   UNL     1       6.456  -0.786  -0.124  0.00  0.00    +0.210 C 
ATOM     27  C   UNL     1       6.929  -2.224  -0.148  0.00  0.00    +0.051 C 
ENDBRANCH  25  26
ENDBRANCH  18  25
TORSDOF 2
