REMARK  Name = 3767
REMARK  2 active torsions:
REMARK  status: ('A' for Active; 'I' for Inactive)
REMARK    1  A    between atoms: N_2  and  N_11
REMARK    2  A    between atoms: C_3  and  C_6
REMARK                            x       y       z     vdW  Elec       q    Type
REMARK                         _______ _______ _______ _____ _____    ______ ____
ROOT
ATOM      1  O   UNL     1       1.807  -1.451   0.410  0.00  0.00    -0.269 OA
ATOM      2  N   UNL     1       2.152   0.751  -0.234  0.00  0.00    -0.250 N 
ATOM      3  C   UNL     1       1.343  -0.339   0.097  0.00  0.00    +0.259 C 
ATOM      4  H   UNL     1       1.743   1.613  -0.476  0.00  0.00    +0.169 HD
ENDROOT
BRANCH   3   6
ATOM      5  N   UNL     1      -2.859   0.272  -0.059  0.00  0.00    -0.242 NA
ATOM      6  C   UNL     1      -0.094  -0.130   0.043  0.00  0.00    +0.058 C 
ATOM      7  C   UNL     1      -0.947  -1.201  -0.201  0.00  0.00    +0.025 C 
ATOM      8  C   UNL     1      -0.623   1.142   0.234  0.00  0.00    +0.025 C 
ATOM      9  C   UNL     1      -2.309  -0.950  -0.241  0.00  0.00    +0.099 C 
ATOM     10  C   UNL     1      -1.999   1.288   0.174  0.00  0.00    +0.099 C 
ENDBRANCH   3   6
BRANCH   2  11
ATOM     11  N   UNL     1       3.528   0.619  -0.222  0.00  0.00    -0.254 NA
ATOM     12  H   UNL     1       3.775  -0.333   0.048  0.00  0.00    +0.140 HD
ATOM     13  H   UNL     1       3.927   1.277   0.447  0.00  0.00    +0.140 HD
ENDBRANCH   2  11
TORSDOF 2
