REMARK  Name = 4762
REMARK  1 active torsions:
REMARK  status: ('A' for Active; 'I' for Inactive)
REMARK    1  A    between atoms: C_4  and  C_10
REMARK                            x       y       z     vdW  Elec       q    Type
REMARK                         _______ _______ _______ _____ _____    ______ ____
ROOT
ATOM      1  O   UNL     1      -1.149  -1.394   0.338  0.00  0.00    -0.356 OA
ATOM      2  N   UNL     1      -2.903   0.794  -0.174  0.00  0.00    +0.389 N 
ATOM      3  C   UNL     1      -1.455   1.010  -0.002  0.00  0.00    -0.030 C 
ATOM      4  C   UNL     1      -0.677  -0.263  -0.413  0.00  0.00    +0.118 C 
ATOM      5  C   UNL     1      -3.332  -0.387   0.576  0.00  0.00    -0.049 C 
ATOM      6  C   UNL     1      -2.544  -1.611   0.136  0.00  0.00    +0.119 C 
ATOM      7  C   UNL     1      -1.054   2.230  -0.834  0.00  0.00    -0.021 C 
ATOM      8  H   UNL     1      -3.108   0.658  -1.164  0.00  0.00    -0.084 HD
ATOM      9  H   UNL     1      -3.404   1.611   0.177  0.00  0.00    -0.084 HD
ENDROOT
BRANCH   4  10
ATOM     10  C   UNL     1       0.814  -0.159  -0.166  0.00  0.00    +0.003 C 
ATOM     11  C   UNL     1       1.706  -0.853  -0.983  0.00  0.00    -0.002 C 
ATOM     12  C   UNL     1       1.292   0.631   0.879  0.00  0.00    -0.002 C 
ATOM     13  C   UNL     1       3.079  -0.757  -0.754  0.00  0.00    -0.000 C 
ATOM     14  C   UNL     1       2.665   0.727   1.107  0.00  0.00    -0.000 C 
ATOM     15  C   UNL     1       3.558   0.033   0.290  0.00  0.00    -0.000 C 
ENDBRANCH   4  10
TORSDOF 1
