REMARK  Name = 3152
REMARK  6 active torsions:
REMARK  status: ('A' for Active; 'I' for Inactive)
REMARK    1  A    between atoms: C_1  and  C_3
REMARK    2  A    between atoms: C_1  and  C_17
REMARK    3  A    between atoms: C_10  and  O_12
REMARK    4  A    between atoms: C_11  and  O_14
REMARK    5  A    between atoms: N_16  and  C_23
REMARK    6  A    between atoms: C_23  and  C_24
REMARK                            x       y       z     vdW  Elec       q    Type
REMARK                         _______ _______ _______ _____ _____    ______ ____
ROOT
ATOM      1  C   UNL     1       0.179  -1.613  -0.153  0.00  0.00    +0.008 C 
ENDROOT
BRANCH   1   3
ATOM      2  O   UNL     1       2.281  -2.129   1.954  0.00  0.00    -0.291 OA
ATOM      3  C   UNL     1       1.045  -0.570   0.527  0.00  0.00    +0.066 C 
ATOM      4  C   UNL     1       1.607   0.474  -0.465  0.00  0.00    +0.034 C 
ATOM      5  C   UNL     1       2.270  -1.202   1.164  0.00  0.00    +0.173 C 
ATOM      6  C   UNL     1       3.084   0.444  -0.229  0.00  0.00    -0.016 C 
ATOM      7  C   UNL     1       3.466  -0.521   0.694  0.00  0.00    +0.034 C 
ATOM      8  C   UNL     1       4.048   1.238  -0.831  0.00  0.00    +0.036 C 
ATOM      9  C   UNL     1       4.782  -0.739   1.056  0.00  0.00    +0.043 C 
ATOM     10  C   UNL     1       5.388   1.043  -0.483  0.00  0.00    +0.172 C 
ATOM     11  C   UNL     1       5.753   0.061   0.453  0.00  0.00    +0.172 C 
BRANCH  10  12
ATOM     12  O   UNL     1       6.345   1.819  -1.069  0.00  0.00    -0.468 OA
ATOM     13  C   UNL     1       6.683   3.037  -0.410  0.00  0.00    +0.253 C 
ENDBRANCH  10  12
BRANCH  11  14
ATOM     14  O   UNL     1       7.064  -0.121   0.781  0.00  0.00    -0.468 OA
ATOM     15  C   UNL     1       7.802  -1.058   0.000  0.00  0.00    +0.253 C 
ENDBRANCH  11  14
ENDBRANCH   1   3
BRANCH   1  17
ATOM     16  N   UNL     1      -3.985  -0.789  -0.949  0.00  0.00    +0.390 N 
ATOM     17  C   UNL     1      -1.065  -0.986  -0.774  0.00  0.00    -0.004 C 
ATOM     18  C   UNL     1      -1.920  -2.043  -1.482  0.00  0.00    -0.023 C 
ATOM     19  C   UNL     1      -1.906  -0.265   0.285  0.00  0.00    -0.023 C 
ATOM     20  C   UNL     1      -3.219  -1.438  -2.020  0.00  0.00    -0.077 C 
ATOM     21  C   UNL     1      -3.205   0.281  -0.312  0.00  0.00    -0.077 C 
ATOM     22  H   UNL     1      -4.193  -1.492  -0.239  0.00  0.00    -0.079 HD
BRANCH  16  23
ATOM     23  C   UNL     1      -5.247  -0.262  -1.468  0.00  0.00    -0.050 C 
BRANCH  23  24
ATOM     24  C   UNL     1      -6.096   0.338  -0.379  0.00  0.00    -0.043 C 
ATOM     25  C   UNL     1      -7.005  -0.462   0.298  0.00  0.00    -0.006 C 
ATOM     26  C   UNL     1      -5.957   1.684  -0.068  0.00  0.00    -0.006 C 
ATOM     27  C   UNL     1      -7.791   0.094   1.307  0.00  0.00    -0.000 C 
ATOM     28  C   UNL     1      -6.743   2.240   0.942  0.00  0.00    -0.000 C 
ATOM     29  C   UNL     1      -7.660   1.445   1.629  0.00  0.00    -0.000 C 
ENDBRANCH  23  24
ENDBRANCH  16  23
ENDBRANCH   1  17
TORSDOF 6
