REMARK  Name = 441401
REMARK  4 active torsions:
REMARK  status: ('A' for Active; 'I' for Inactive)
REMARK    1  A    between atoms: C_2  and  N_10
REMARK    2  A    between atoms: C_3  and  N_21
REMARK    3  A    between atoms: C_11  and  C_14
REMARK    4  A    between atoms: C_14  and  N_16
REMARK                            x       y       z     vdW  Elec       q    Type
REMARK                         _______ _______ _______ _____ _____    ______ ____
ROOT
ATOM      1  F   UNL     1      -2.980  -2.193  -0.150  0.00  0.00    -0.203 F 
ATOM      2  C   UNL     1      -0.055  -0.101   0.383  0.00  0.00    +0.059 C 
ATOM      3  C   UNL     1      -2.844   0.168   0.079  0.00  0.00    +0.076 C 
ATOM      4  C   UNL     1      -0.847  -1.232   0.188  0.00  0.00    +0.046 C 
ATOM      5  C   UNL     1      -0.642   1.163   0.428  0.00  0.00    +0.016 C 
ATOM      6  C   UNL     1      -2.228  -1.099   0.037  0.00  0.00    +0.155 C 
ATOM      7  C   UNL     1      -2.023   1.296   0.278  0.00  0.00    +0.018 C 
ENDROOT
BRANCH   2  10
ATOM      8  O   UNL     1       3.428  -1.111   0.710  0.00  0.00    -0.434 OA
ATOM      9  O   UNL     1       1.722  -2.570   0.390  0.00  0.00    -0.226 OA
ATOM     10  N   UNL     1       1.354  -0.237   0.538  0.00  0.00    -0.221 N 
ATOM     11  C   UNL     1       3.601   0.311   0.624  0.00  0.00    +0.210 C 
ATOM     12  C   UNL     1       2.214   0.872   0.854  0.00  0.00    +0.147 C 
ATOM     13  C   UNL     1       2.099  -1.414   0.519  0.00  0.00    +0.409 C 
BRANCH  11  14
ATOM     14  C   UNL     1       4.168   0.655  -0.747  0.00  0.00    +0.135 C 
BRANCH  14  16
ATOM     15  O   UNL     1       6.727   1.846  -0.069  0.00  0.00    -0.275 OA
ATOM     16  N   UNL     1       5.481   0.069  -0.909  0.00  0.00    -0.301 N 
ATOM     17  C   UNL     1       6.648   0.720  -0.553  0.00  0.00    +0.223 C 
ATOM     18  C   UNL     1       7.869  -0.124  -0.803  0.00  0.00    +0.095 C 
ATOM     19  H   UNL     1       5.547  -0.837  -1.290  0.00  0.00    +0.150 HD
ENDBRANCH  14  16
ENDBRANCH  11  14
ENDBRANCH   2  10
BRANCH   3  21
ATOM     20  O   UNL     1      -6.954   0.759  -0.582  0.00  0.00    -0.350 OA
ATOM     21  N   UNL     1      -4.228   0.304  -0.072  0.00  0.00    -0.301 N 
ATOM     22  C   UNL     1      -4.839  -0.170  -1.321  0.00  0.00    +0.123 C 
ATOM     23  C   UNL     1      -4.930   1.412   0.585  0.00  0.00    +0.123 C 
ATOM     24  C   UNL     1      -6.328  -0.412  -1.106  0.00  0.00    +0.164 C 
ATOM     25  C   UNL     1      -6.415   1.085   0.699  0.00  0.00    +0.164 C 
ENDBRANCH   3  21
TORSDOF 4
