REMARK  Name = 3410
REMARK  10 active torsions:
REMARK  status: ('A' for Active; 'I' for Inactive)
REMARK    1  A    between atoms: C_1  and  N_2
REMARK    2  A    between atoms: C_1  and  C_16
REMARK    3  A    between atoms: N_2  and  C_5
REMARK    4  A    between atoms: C_5  and  C_7
REMARK    5  A    between atoms: C_7  and  C_8
REMARK    6  A    between atoms: C_13  and  O_14
REMARK    7  A    between atoms: C_16  and  C_17
REMARK    8  A    between atoms: C_16  and  O_29
REMARK    9  A    between atoms: C_20  and  N_24
REMARK   10  A    between atoms: C_22  and  O_27
REMARK                            x       y       z     vdW  Elec       q    Type
REMARK                         _______ _______ _______ _____ _____    ______ ____
ROOT
ATOM      1  C   UNL     1      -0.450   3.136   0.384  0.00  0.00    -0.047 C 
ENDROOT
BRANCH   1   2
ATOM      2  N   UNL     1       0.528   2.387  -0.386  0.00  0.00    +0.387 N 
ATOM      3  H   UNL     1       0.499   1.408  -0.103  0.00  0.00    -0.084 HD
ATOM      4  H   UNL     1       0.304   2.475  -1.377  0.00  0.00    -0.084 HD
BRANCH   2   5
ATOM      5  C   UNL     1       1.877   2.914  -0.159  0.00  0.00    -0.057 C 
ATOM      6  C   UNL     1       1.903   4.377  -0.604  0.00  0.00    -0.023 C 
BRANCH   5   7
ATOM      7  C   UNL     1       2.902   2.050  -0.916  0.00  0.00    +0.005 C 
BRANCH   7   8
ATOM      8  C   UNL     1       2.878   0.594  -0.514  0.00  0.00    -0.024 C 
ATOM      9  C   UNL     1       2.046  -0.283  -1.191  0.00  0.00    -0.001 C 
ATOM     10  C   UNL     1       3.690   0.163   0.523  0.00  0.00    -0.001 C 
ATOM     11  C   UNL     1       2.025  -1.628  -0.821  0.00  0.00    +0.037 C 
ATOM     12  C   UNL     1       3.669  -1.182   0.893  0.00  0.00    +0.037 C 
ATOM     13  C   UNL     1       2.836  -2.077   0.221  0.00  0.00    +0.139 C 
BRANCH  13  14
ATOM     14  O   UNL     1       2.816  -3.389   0.583  0.00  0.00    -0.471 OA
ATOM     15  C   UNL     1       1.942  -4.250  -0.145  0.00  0.00    +0.252 C 
ENDBRANCH  13  14
ENDBRANCH   7   8
ENDBRANCH   5   7
ENDBRANCH   2   5
ENDBRANCH   1   2
BRANCH   1  16
ATOM     16  C   UNL     1      -1.864   2.590   0.148  0.00  0.00    +0.112 C 
BRANCH  16  17
ATOM     17  C   UNL     1      -1.971   1.137   0.555  0.00  0.00    +0.004 C 
ATOM     18  C   UNL     1      -2.371   0.200  -0.382  0.00  0.00    +0.016 C 
ATOM     19  C   UNL     1      -1.667   0.775   1.856  0.00  0.00    +0.001 C 
ATOM     20  C   UNL     1      -2.470  -1.140  -0.007  0.00  0.00    +0.085 C 
ATOM     21  C   UNL     1      -1.765  -0.565   2.231  0.00  0.00    +0.038 C 
ATOM     22  C   UNL     1      -2.167  -1.522   1.300  0.00  0.00    +0.147 C 
BRANCH  20  24
ATOM     23  O   UNL     1      -3.232  -0.837  -2.928  0.00  0.00    -0.265 OA
ATOM     24  N   UNL     1      -2.874  -2.087  -0.951  0.00  0.00    -0.274 N 
ATOM     25  C   UNL     1      -3.210  -1.876  -2.283  0.00  0.00    +0.304 C 
ATOM     26  H   UNL     1      -2.927  -3.017  -0.634  0.00  0.00    +0.155 HD
ENDBRANCH  20  24
BRANCH  22  27
ATOM     27  O   UNL     1      -2.258  -2.826   1.687  0.00  0.00    -0.504 OA
ATOM     28  H   UNL     1      -2.526  -3.480   1.072  0.00  0.00    +0.292 HD
ENDBRANCH  22  27
ENDBRANCH  16  17
BRANCH  16  29
ATOM     29  O   UNL     1      -2.815   3.337   0.906  0.00  0.00    -0.382 OA
ATOM     30  H   UNL     1      -2.762   4.273   0.659  0.00  0.00    +0.211 HD
ENDBRANCH  16  29
ENDBRANCH   1  16
TORSDOF 10
