REMARK  Name = 2720
REMARK  2 active torsions:
REMARK  status: ('A' for Active; 'I' for Inactive)
REMARK    1  A    between atoms: C_9  and  S_15
REMARK    2  A    between atoms: S_15  and  N_18
REMARK                            x       y       z     vdW  Elec       q    Type
REMARK                         _______ _______ _______ _____ _____    ______ ____
ROOT
ATOM      1 CL   UNL     1      -2.725   2.398   0.036  0.00  0.00    -0.081 Cl
ATOM      2  S   UNL     1       2.419  -1.174   0.012  0.00  0.00    +0.103 S 
ATOM      3  O   UNL     1       2.368  -1.917  -1.234  0.00  0.00    -0.146 OA
ATOM      4  O   UNL     1       2.409  -1.875   1.283  0.00  0.00    -0.146 OA
ATOM      5  N   UNL     1       2.356   1.840  -0.038  0.00  0.00    -0.293 N 
ATOM      6  N   UNL     1       3.700  -0.164  -0.026  0.00  0.00    -0.110 NA
ATOM      7  C   UNL     1       0.969  -0.162   0.018  0.00  0.00    +0.144 C 
ATOM      8  C   UNL     1       1.099   1.229  -0.007  0.00  0.00    +0.070 C 
ATOM      9  C   UNL     1      -1.429  -0.006   0.054  0.00  0.00    +0.134 C 
ATOM     10  C   UNL     1      -0.277  -0.789   0.049  0.00  0.00    +0.042 C 
ATOM     11  C   UNL     1      -0.070   1.998  -0.001  0.00  0.00    +0.029 C 
ATOM     12  C   UNL     1      -1.326   1.385   0.029  0.00  0.00    +0.078 C 
ATOM     13  C   UNL     1       3.514   1.114  -0.044  0.00  0.00    +0.187 C 
ATOM     14  H   UNL     1       2.408   2.823  -0.055  0.00  0.00    +0.154 HD
ENDROOT
BRANCH   9  15
ATOM     15  S   UNL     1      -2.978  -0.823   0.096  0.00  0.00    +0.058 S 
ATOM     16  O   UNL     1      -2.781  -2.138   0.684  0.00  0.00    -0.153 OA
ATOM     17  O   UNL     1      -3.960   0.088   0.662  0.00  0.00    -0.153 OA
BRANCH  15  18
ATOM     18  N   UNL     1      -3.289  -1.003  -1.573  0.00  0.00    -0.203 NA
ATOM     19  H   UNL     1      -4.183  -1.476  -1.704  0.00  0.00    +0.144 HD
ATOM     20  H   UNL     1      -2.546  -1.556  -2.000  0.00  0.00    +0.144 HD
ENDBRANCH  15  18
ENDBRANCH   9  15
TORSDOF 2
