REMARK  Name = 40466968
REMARK  14 active torsions:
REMARK  status: ('A' for Active; 'I' for Inactive)
REMARK    1  A    between atoms: C_1  and  O_7
REMARK    2  A    between atoms: C_2  and  C_20
REMARK    3  A    between atoms: O_7  and  C_8
REMARK    4  A    between atoms: C_8  and  C_9
REMARK    5  A    between atoms: C_9  and  C_10
REMARK    6  A    between atoms: C_10  and  C_11
REMARK    7  A    between atoms: C_11  and  C_13
REMARK    8  A    between atoms: C_20  and  C_21
REMARK    9  A    between atoms: C_21  and  C_24
REMARK   10  A    between atoms: C_21  and  N_25
REMARK   11  A    between atoms: N_25  and  S_27
REMARK   12  A    between atoms: S_27  and  C_30
REMARK   13  A    between atoms: C_30  and  C_31
REMARK   14  A    between atoms: C_31  and  C_32
REMARK                            x       y       z     vdW  Elec       q    Type
REMARK                         _______ _______ _______ _____ _____    ______ ____
ROOT
ATOM      1  C   UNL     1      -0.188   2.650  -0.412  0.00  0.00    +0.139 C 
ATOM      2  C   UNL     1       2.555   2.471   0.067  0.00  0.00    -0.020 C 
ATOM      3  C   UNL     1       0.719   2.953  -1.428  0.00  0.00    +0.037 C 
ATOM      4  C   UNL     1       0.277   2.257   0.843  0.00  0.00    +0.037 C 
ATOM      5  C   UNL     1       2.090   2.864  -1.189  0.00  0.00    -0.001 C 
ATOM      6  C   UNL     1       1.648   2.168   1.083  0.00  0.00    -0.001 C 
ENDROOT
BRANCH   1   7
ATOM      7  O   UNL     1      -1.535   2.736  -0.648  0.00  0.00    -0.475 OA
BRANCH   7   8
ATOM      8  C   UNL     1      -2.373   1.855   0.088  0.00  0.00    +0.205 C 
BRANCH   8   9
ATOM      9  C   UNL     1      -3.615   1.553  -0.738  0.00  0.00    +0.047 C 
BRANCH   9  10
ATOM     10  C   UNL     1      -4.556   0.595  -0.011  0.00  0.00    +0.004 C 
BRANCH  10  11
ATOM     11  C   UNL     1      -5.777   0.268  -0.867  0.00  0.00    -0.000 C 
BRANCH  11  13
ATOM     12  N   UNL     1      -9.370  -1.607   0.536  0.00  0.00    +0.384 N 
ATOM     13  C   UNL     1      -6.704  -0.715  -0.156  0.00  0.00    -0.004 C 
ATOM     14  C   UNL     1      -7.604  -1.442  -1.166  0.00  0.00    -0.023 C 
ATOM     15  C   UNL     1      -7.551   0.004   0.904  0.00  0.00    -0.023 C 
ATOM     16  C   UNL     1      -8.584  -2.377  -0.473  0.00  0.00    -0.082 C 
ATOM     17  C   UNL     1      -8.531  -0.945   1.578  0.00  0.00    -0.082 C 
ATOM     18  H   UNL     1     -10.012  -2.248   1.001  0.00  0.00    -0.085 HD
ATOM     19  H   UNL     1      -9.854  -0.865   0.030  0.00  0.00    -0.085 HD
ENDBRANCH  11  13
ENDBRANCH  10  11
ENDBRANCH   9  10
ENDBRANCH   8   9
ENDBRANCH   7   8
ENDBRANCH   1   7
BRANCH   2  20
ATOM     20  C   UNL     1       4.021   2.373   0.322  0.00  0.00    +0.055 C 
BRANCH  20  21
ATOM     21  C   UNL     1       4.597   0.985   0.008  0.00  0.00    +0.182 C 
BRANCH  21  24
ATOM     22  O   UNL     1       6.748   1.321   0.920  0.00  0.00    -0.244 OA
ATOM     23  O   UNL     1       6.584   0.382  -1.155  0.00  0.00    -0.244 OA
ATOM     24  C   UNL     1       6.126   0.885  -0.092  0.00  0.00    +0.381 C 
ENDBRANCH  21  24
BRANCH  21  25
ATOM     25  N   UNL     1       4.266   0.060   1.124  0.00  0.00    -0.173 NA
ATOM     26  H   UNL     1       5.149  -0.262   1.518  0.00  0.00    +0.149 HD
BRANCH  25  27
ATOM     27  S   UNL     1       3.332  -1.323   0.792  0.00  0.00    +0.041 S 
ATOM     28  O   UNL     1       2.423  -1.058  -0.305  0.00  0.00    -0.157 OA
ATOM     29  O   UNL     1       2.841  -1.848   2.052  0.00  0.00    -0.157 OA
BRANCH  27  30
ATOM     30  C   UNL     1       4.588  -2.437   0.207  0.00  0.00    +0.169 C 
BRANCH  30  31
ATOM     31  C   UNL     1       3.999  -3.788  -0.168  0.00  0.00    +0.027 C 
BRANCH  31  32
ATOM     32  C   UNL     1       5.082  -4.750  -0.652  0.00  0.00    +0.002 C 
ATOM     33  C   UNL     1       4.493  -6.090  -1.064  0.00  0.00    +0.000 C 
ENDBRANCH  31  32
ENDBRANCH  30  31
ENDBRANCH  27  30
ENDBRANCH  25  27
ENDBRANCH  21  25
ENDBRANCH  20  21
ENDBRANCH   2  20
TORSDOF 14
