REMARK  Name = 157922
REMARK  6 active torsions:
REMARK  status: ('A' for Active; 'I' for Inactive)
REMARK    1  A    between atoms: C_2  and  C_3
REMARK    2  A    between atoms: C_2  and  C_9
REMARK    3  A    between atoms: C_3  and  C_4
REMARK    4  A    between atoms: C_4  and  C_6
REMARK    5  A    between atoms: C_6  and  O_7
REMARK    6  A    between atoms: C_9  and  N_10
REMARK                            x       y       z     vdW  Elec       q    Type
REMARK                         _______ _______ _______ _____ _____    ______ ____
ROOT
ATOM      1  O   UNL     1      -2.048   1.370   0.005  0.00  0.00    -0.298 OA
ATOM      2  C   UNL     1      -1.917   0.147   0.002  0.00  0.00    +0.129 C 
ENDROOT
BRANCH   2   3
ATOM      3  C   UNL     1      -0.547  -0.521   0.022  0.00  0.00    +0.074 C 
BRANCH   3   4
ATOM      4  C   UNL     1       0.613   0.471   0.024  0.00  0.00    +0.117 C 
BRANCH   4   6
ATOM      5  O   UNL     1       2.148  -1.419   0.003  0.00  0.00    -0.250 OA
ATOM      6  C   UNL     1       1.964  -0.209   0.003  0.00  0.00    +0.318 C 
BRANCH   6   7
ATOM      7  O   UNL     1       2.940   0.748  -0.009  0.00  0.00    -0.444 OA
ATOM      8  C   UNL     1       4.284   0.257  -0.021  0.00  0.00    +0.256 C 
ENDBRANCH   6   7
ENDBRANCH   4   6
ENDBRANCH   3   4
ENDBRANCH   2   3
BRANCH   2   9
ATOM      9  C   UNL     1      -3.099  -0.805  -0.012  0.00  0.00    -0.020 C 
BRANCH   9  10
ATOM     10  N   UNL     1      -4.337  -0.040  -0.017  0.00  0.00    +0.385 N 
ATOM     11  H   UNL     1      -5.132  -0.679  -0.027  0.00  0.00    -0.089 HD
ATOM     12  H   UNL     1      -4.367   0.552  -0.847  0.00  0.00    -0.089 HD
ATOM     13  H   UNL     1      -4.380   0.543   0.818  0.00  0.00    -0.089 HD
ENDBRANCH   9  10
ENDBRANCH   2   9
TORSDOF 6
