REMARK  Name = 446156
REMARK  14 active torsions:
REMARK  status: ('A' for Active; 'I' for Inactive)
REMARK    1  A    between atoms: C_2  and  C_17
REMARK    2  A    between atoms: C_3  and  C_14
REMARK    3  A    between atoms: C_4  and  C_34
REMARK    4  A    between atoms: C_5  and  C_20
REMARK    5  A    between atoms: C_6  and  C_8
REMARK    6  A    between atoms: C_21  and  C_22
REMARK    7  A    between atoms: C_22  and  O_23
REMARK    8  A    between atoms: C_22  and  C_25
REMARK    9  A    between atoms: C_25  and  C_26
REMARK   10  A    between atoms: C_26  and  O_27
REMARK   11  A    between atoms: C_26  and  C_29
REMARK   12  A    between atoms: C_29  and  C_31
REMARK   13  A    between atoms: C_31  and  O_32
REMARK   14  A    between atoms: C_34  and  O_35
REMARK                            x       y       z     vdW  Elec       q    Type
REMARK                         _______ _______ _______ _____ _____    ______ ____
ROOT
ATOM      1  N   UNL     1      -0.524  -2.696  -0.007  0.00  0.00    -0.414 NA
ATOM      2  C   UNL     1      -1.829  -2.470   0.265  0.00  0.00    +0.106 C 
ATOM      3  C   UNL     1       0.229  -1.607  -0.277  0.00  0.00    +0.094 C 
ATOM      4  C   UNL     1      -2.413  -1.214   0.279  0.00  0.00    +0.029 C 
ATOM      5  C   UNL     1      -0.258  -0.309  -0.288  0.00  0.00    +0.092 C 
ATOM      6  C   UNL     1      -1.606  -0.118  -0.004  0.00  0.00    -0.012 C 
ENDROOT
BRANCH   6   8
ATOM      7  F   UNL     1      -3.814   5.010   0.016  0.00  0.00    -0.204 F 
ATOM      8  C   UNL     1      -2.180   1.218   0.001  0.00  0.00    -0.003 C 
ATOM      9  C   UNL     1      -2.193   1.967   1.178  0.00  0.00    +0.002 C 
ATOM     10  C   UNL     1      -2.719   1.750  -1.171  0.00  0.00    +0.002 C 
ATOM     11  C   UNL     1      -2.745   3.248   1.183  0.00  0.00    +0.030 C 
ATOM     12  C   UNL     1      -3.271   3.031  -1.165  0.00  0.00    +0.030 C 
ATOM     13  C   UNL     1      -3.284   3.780   0.011  0.00  0.00    +0.140 C 
ENDBRANCH   6   8
BRANCH   3  14
ATOM     14  C   UNL     1       1.667  -1.890  -0.573  0.00  0.00    +0.049 C 
ATOM     15  C   UNL     1       1.845  -2.762  -1.829  0.00  0.00    +0.007 C 
ATOM     16  C   UNL     1       2.394  -2.534   0.621  0.00  0.00    +0.007 C 
ENDBRANCH   3  14
BRANCH   2  17
ATOM     17  C   UNL     1      -2.645  -3.687   0.561  0.00  0.00    +0.052 C 
ATOM     18  C   UNL     1      -2.706  -4.657  -0.632  0.00  0.00    +0.007 C 
ATOM     19  C   UNL     1      -2.155  -4.429   1.817  0.00  0.00    +0.007 C 
ENDBRANCH   2  17
BRANCH   5  20
ATOM     20  C   UNL     1       0.637   0.820  -0.594  0.00  0.00    -0.018 C 
ATOM     21  C   UNL     1       1.322   1.526   0.321  0.00  0.00    -0.001 C 
BRANCH  21  22
ATOM     22  C   UNL     1       2.242   2.691   0.041  0.00  0.00    +0.135 C 
BRANCH  22  23
ATOM     23  O   UNL     1       1.756   3.881   0.653  0.00  0.00    -0.380 OA
ATOM     24  H   UNL     1       2.362   4.614   0.461  0.00  0.00    +0.211 HD
ENDBRANCH  22  23
BRANCH  22  25
ATOM     25  C   UNL     1       3.663   2.384   0.548  0.00  0.00    +0.064 C 
BRANCH  25  26
ATOM     26  C   UNL     1       4.283   1.129  -0.086  0.00  0.00    +0.124 C 
BRANCH  26  27
ATOM     27  O   UNL     1       4.341   1.301  -1.500  0.00  0.00    -0.384 OA
ATOM     28  H   UNL     1       3.455   1.504  -1.838  0.00  0.00    +0.210 HD
ENDBRANCH  26  27
BRANCH  26  29
ATOM     29  C   UNL     1       5.678   0.808   0.456  0.00  0.00    +0.139 C 
BRANCH  29  31
ATOM     30  O   UNL     1       5.673  -1.302  -0.725  0.00  0.00    -0.250 OA
ATOM     31  C   UNL     1       6.103  -0.618   0.195  0.00  0.00    +0.316 C 
BRANCH  31  32
ATOM     32  O   UNL     1       6.999  -1.076   1.104  0.00  0.00    -0.480 OA
ATOM     33  H   UNL     1       7.299  -0.513   1.791  0.00  0.00    +0.295 HD
ENDBRANCH  31  32
ENDBRANCH  29  31
ENDBRANCH  26  29
ENDBRANCH  25  26
ENDBRANCH  22  25
ENDBRANCH  21  22
ENDBRANCH   5  20
BRANCH   4  34
ATOM     34  C   UNL     1      -3.866  -1.058   0.590  0.00  0.00    +0.171 C 
BRANCH  34  35
ATOM     35  O   UNL     1      -4.615  -1.129  -0.615  0.00  0.00    -0.346 OA
ATOM     36  C   UNL     1      -6.008  -0.986  -0.373  0.00  0.00    +0.175 C 
ENDBRANCH  34  35
ENDBRANCH   4  34
TORSDOF 14
