REMARK  Name = 3696
REMARK  4 active torsions:
REMARK  status: ('A' for Active; 'I' for Inactive)
REMARK    1  A    between atoms: N_1  and  C_16
REMARK    2  A    between atoms: C_16  and  C_17
REMARK    3  A    between atoms: C_17  and  C_18
REMARK    4  A    between atoms: C_18  and  N_19
REMARK                            x       y       z     vdW  Elec       q    Type
REMARK                         _______ _______ _______ _____ _____    ______ ____
ROOT
ATOM      1  N   UNL     1      -0.133  -0.062  -0.389  0.00  0.00    -0.287 N 
ATOM      2  C   UNL     1      -1.104  -1.094  -0.269  0.00  0.00    +0.048 C 
ATOM      3  C   UNL     1      -0.340   1.342  -0.387  0.00  0.00    +0.048 C 
ATOM      4  C   UNL     1      -2.799   0.274   1.169  0.00  0.00    +0.032 C 
ATOM      5  C   UNL     1      -1.704   1.169   1.726  0.00  0.00    +0.032 C 
ATOM      6  C   UNL     1      -2.340  -0.950   0.406  0.00  0.00    -0.008 C 
ATOM      7  C   UNL     1      -1.092   1.975   0.617  0.00  0.00    -0.008 C 
ATOM      8  C   UNL     1      -0.869  -2.346  -0.898  0.00  0.00    +0.015 C 
ATOM      9  C   UNL     1       0.218   2.153  -1.399  0.00  0.00    +0.015 C 
ATOM     10  C   UNL     1      -3.273  -2.017   0.397  0.00  0.00    -0.003 C 
ATOM     11  C   UNL     1      -1.269   3.370   0.598  0.00  0.00    -0.003 C 
ATOM     12  C   UNL     1      -1.794  -3.393  -0.878  0.00  0.00    +0.001 C 
ATOM     13  C   UNL     1       0.037   3.537  -1.412  0.00  0.00    +0.001 C 
ATOM     14  C   UNL     1      -3.003  -3.227  -0.232  0.00  0.00    -0.000 C 
ATOM     15  C   UNL     1      -0.707   4.147  -0.411  0.00  0.00    -0.000 C 
ENDROOT
BRANCH   1  16
ATOM     16  C   UNL     1       1.249  -0.458  -0.707  0.00  0.00    +0.093 C 
BRANCH  16  17
ATOM     17  C   UNL     1       1.835  -1.321   0.411  0.00  0.00    -0.001 C 
BRANCH  17  18
ATOM     18  C   UNL     1       3.293  -1.738   0.196  0.00  0.00    -0.076 C 
BRANCH  18  19
ATOM     19  N   UNL     1       4.186  -0.587   0.137  0.00  0.00    +0.384 N 
ATOM     20  C   UNL     1       5.577  -1.021  -0.005  0.00  0.00    -0.101 C 
ATOM     21  C   UNL     1       4.034   0.246   1.331  0.00  0.00    -0.101 C 
ATOM     22  H   UNL     1       3.935  -0.032  -0.681  0.00  0.00    -0.080 HD
ENDBRANCH  18  19
ENDBRANCH  17  18
ENDBRANCH  16  17
ENDBRANCH   1  16
TORSDOF 4
