4058
  -OEChem-10051719153D

 39 40  0     0  0  0  0  0  0999 V2000
   -1.9234   -1.2579    0.3732 O   0  0  0  0  0  0  0  0  0  0  0  0
   -1.0897   -2.0615   -1.6257 O   0  0  0  0  0  0  0  0  0  0  0  0
    3.1581   -0.9256    0.2214 N   0  0  0  0  0  0  0  0  0  0  0  0
    0.2344   -0.5659   -0.2567 C   0  0  0  0  0  0  0  0  0  0  0  0
    1.2868   -0.7726   -1.3787 C   0  0  0  0  0  0  0  0  0  0  0  0
    0.8300   -1.2027    1.0278 C   0  0  0  0  0  0  0  0  0  0  0  0
    2.6725   -0.2512   -0.9873 C   0  0  0  0  0  0  0  0  0  0  0  0
    2.2470   -0.7106    1.3510 C   0  0  0  0  0  0  0  0  0  0  0  0
   -0.2153    0.8976   -0.1372 C   0  0  0  0  0  0  0  0  0  0  0  0
   -0.9863   -1.3896   -0.6084 C   0  0  0  0  0  0  0  0  0  0  0  0
    4.5081   -0.4735    0.5560 C   0  0  0  0  0  0  0  0  0  0  0  0
   -0.7881    1.5378   -1.2331 C   0  0  0  0  0  0  0  0  0  0  0  0
   -0.0479    1.5775    1.0663 C   0  0  0  0  0  0  0  0  0  0  0  0
   -1.1962    2.8672   -1.1248 C   0  0  0  0  0  0  0  0  0  0  0  0
   -0.4561    2.9068    1.1747 C   0  0  0  0  0  0  0  0  0  0  0  0
   -1.0303    3.5517    0.0791 C   0  0  0  0  0  0  0  0  0  0  0  0
   -3.1368   -1.9883    0.1671 C   0  0  0  0  0  0  0  0  0  0  0  0
   -4.0667   -1.7393    1.3353 C   0  0  0  0  0  0  0  0  0  0  0  0
    0.9787   -0.2955   -2.3170 H   0  0  0  0  0  0  0  0  0  0  0  0
    1.3868   -1.8430   -1.6118 H   0  0  0  0  0  0  0  0  0  0  0  0
    0.8764   -2.2948    0.8976 H   0  0  0  0  0  0  0  0  0  0  0  0
    0.1809   -1.0538    1.9001 H   0  0  0  0  0  0  0  0  0  0  0  0
    3.3570   -0.4538   -1.8203 H   0  0  0  0  0  0  0  0  0  0  0  0
    2.6435    0.8375   -0.8511 H   0  0  0  0  0  0  0  0  0  0  0  0
    2.2622    0.3407    1.6517 H   0  0  0  0  0  0  0  0  0  0  0  0
    2.6055   -1.2841    2.2154 H   0  0  0  0  0  0  0  0  0  0  0  0
    5.1997   -0.6859   -0.2668 H   0  0  0  0  0  0  0  0  0  0  0  0
    4.8884   -1.0114    1.4315 H   0  0  0  0  0  0  0  0  0  0  0  0
    4.5448    0.6012    0.7683 H   0  0  0  0  0  0  0  0  0  0  0  0
   -0.9344    1.0223   -2.1781 H   0  0  0  0  0  0  0  0  0  0  0  0
    0.3466    1.1220    1.9648 H   0  0  0  0  0  0  0  0  0  0  0  0
   -1.6455    3.3687   -1.9770 H   0  0  0  0  0  0  0  0  0  0  0  0
   -0.3372    3.4375    2.1149 H   0  0  0  0  0  0  0  0  0  0  0  0
   -1.3509    4.5858    0.1644 H   0  0  0  0  0  0  0  0  0  0  0  0
   -3.6110   -1.6527   -0.7619 H   0  0  0  0  0  0  0  0  0  0  0  0
   -2.9110   -3.0579    0.0948 H   0  0  0  0  0  0  0  0  0  0  0  0
   -5.0068   -2.2837    1.2100 H   0  0  0  0  0  0  0  0  0  0  0  0
   -3.5983   -2.0530    2.2740 H   0  0  0  0  0  0  0  0  0  0  0  0
   -4.2864   -0.6708    1.4315 H   0  0  0  0  0  0  0  0  0  0  0  0
  1 10  1  0  0  0  0
  1 17  1  0  0  0  0
  2 10  2  0  0  0  0
  3  7  1  0  0  0  0
  3  8  1  0  0  0  0
  3 11  1  0  0  0  0
  4  5  1  0  0  0  0
  4  6  1  0  0  0  0
  4  9  1  0  0  0  0
  4 10  1  0  0  0  0
  5  7  1  0  0  0  0
  5 19  1  0  0  0  0
  5 20  1  0  0  0  0
  6  8  1  0  0  0  0
  6 21  1  0  0  0  0
  6 22  1  0  0  0  0
  7 23  1  0  0  0  0
  7 24  1  0  0  0  0
  8 25  1  0  0  0  0
  8 26  1  0  0  0  0
  9 12  2  0  0  0  0
  9 13  1  0  0  0  0
 11 27  1  0  0  0  0
 11 28  1  0  0  0  0
 11 29  1  0  0  0  0
 12 14  1  0  0  0  0
 12 30  1  0  0  0  0
 13 15  2  0  0  0  0
 13 31  1  0  0  0  0
 14 16  2  0  0  0  0
 14 32  1  0  0  0  0
 15 16  1  0  0  0  0
 15 33  1  0  0  0  0
 16 34  1  0  0  0  0
 17 18  1  0  0  0  0
 17 35  1  0  0  0  0
 17 36  1  0  0  0  0
 18 37  1  0  0  0  0
 18 38  1  0  0  0  0
 18 39  1  0  0  0  0
M  END
> <DATABASE_ID>
DB00454

> <DATABASE_NAME>
drugbank

> <ORIGINAL_SOURCE>
PUBCHEM

> <ORIGINAL_SOURCE_URL>
https://pubchem.ncbi.nlm.nih.gov/rest/pug/compound/inchikey/XADCESSVHJOZHK-UHFFFAOYSA-N/SDF?record_type=3d

> <SMILES>
CCOC(=O)C1(CCN(C)CC1)C1=CC=CC=C1

> <INCHI_IDENTIFIER>
InChI=1S/C15H21NO2/c1-3-18-14(17)15(9-11-16(2)12-10-15)13-7-5-4-6-8-13/h4-8H,3,9-12H2,1-2H3

> <INCHI_KEY>
XADCESSVHJOZHK-UHFFFAOYSA-N

> <FORMULA>
C15H21NO2

> <MOLECULAR_WEIGHT>
247.3327

> <EXACT_MASS>
247.157228921

> <JCHEM_ACCEPTOR_COUNT>
2

> <JCHEM_AVERAGE_POLARIZABILITY>
28.088457270759086

> <JCHEM_BIOAVAILABILITY>
1

> <JCHEM_DONOR_COUNT>
0

> <JCHEM_FORMAL_CHARGE>
0

> <JCHEM_GHOSE_FILTER>
1

> <JCHEM_IUPAC>
ethyl 1-methyl-4-phenylpiperidine-4-carboxylate

> <ALOGPS_LOGP>
2.90

> <JCHEM_LOGP>
2.455800395999999

> <ALOGPS_LOGS>
-2.35

> <JCHEM_MDDR_LIKE_RULE>
0

> <JCHEM_NUMBER_OF_RINGS>
2

> <JCHEM_PHYSIOLOGICAL_CHARGE>
1

> <JCHEM_PKA_STRONGEST_BASIC>
8.159623182152663

> <JCHEM_POLAR_SURFACE_AREA>
29.54

> <JCHEM_REFRACTIVITY>
72.4837

> <JCHEM_ROTATABLE_BOND_COUNT>
4

> <JCHEM_RULE_OF_FIVE>
1

> <ALOGPS_SOLUBILITY>
1.11e+00 g/l

> <JCHEM_TRADITIONAL_IUPAC>
meperidine

> <JCHEM_VEBER_RULE>
1

> <DRUGBANK_ID>
DB00454

> <SECONDARY_ACCESSION_NUMBERS>
APRD00074

> <DRUG_GROUPS>
approved

> <GENERIC_NAME>
Meperidine

> <SYNONYMS>
Isonipecaïne; Meperidina; Pethidin; Pethidine; Péthidine; Pethidinum; Petidina; Petydyna

> <PRODUCTS>
Demerol; Demerol 10%-liq Im IV Sc; Demerol 10%-liq Im Sc 100mg/ml; Demerol 100 mg/ml; Demerol 50 mg/ml (multiple Dose With Metacresol As Preservative); Demerol 50 mg/ml (single Use, Preservative Free); Demerol 50mg - Liq Im IV Sc 50mg/ml; Demerol 50mg - Liq Im Sc 50mg/ml; Demerol 75 mg/ml; Demerol 75mg - Liq Im IV Sc 75mg/ml; Meperidine HCl; Meperidine HCl Injection 100mg/ml; Meperidine HCl Injection 10mg/ml; Meperidine HCl Injection 25mg/ml; Meperidine HCl Injection 50mg/ml; Meperidine HCl Injection 75mg/ml; Meperidine Hcl and Promethazine Hcl; Meperidine Hydrochloride; Meperidine Hydrochloride Injection USP; Meperidine Hydrochloride and Promethazine Hydrochloride; Pethidine Injection B.P.

> <INTERNATIONAL_BRANDS>
Dolantin; Dolcontral; Dolosal; Dolsin; Lydol; Mialgin; Petidin

> <SALTS>
Meperidine hydrochloride

$$$$
