REMARK  Name = 4499
REMARK  8 active torsions:
REMARK  status: ('A' for Active; 'I' for Inactive)
REMARK    1  A    between atoms: C_2  and  C_10
REMARK    2  A    between atoms: C_3  and  C_20
REMARK    3  A    between atoms: C_4  and  C_27
REMARK    4  A    between atoms: C_11  and  N_18
REMARK    5  A    between atoms: C_20  and  O_21
REMARK    6  A    between atoms: O_21  and  C_22
REMARK    7  A    between atoms: C_22  and  C_23
REMARK    8  A    between atoms: C_27  and  O_28
REMARK                            x       y       z     vdW  Elec       q    Type
REMARK                         _______ _______ _______ _____ _____    ______ ____
ROOT
ATOM      1  N   UNL     1      -1.683   2.672  -0.737  0.00  0.00    -0.334 N 
ATOM      2  C   UNL     1      -0.943   0.175   0.381  0.00  0.00    +0.013 C 
ATOM      3  C   UNL     1      -0.018   1.398   0.362  0.00  0.00    +0.071 C 
ATOM      4  C   UNL     1      -2.358   0.490  -0.116  0.00  0.00    +0.085 C 
ATOM      5  C   UNL     1      -0.411   2.565  -0.196  0.00  0.00    +0.098 C 
ATOM      6  C   UNL     1      -2.656   1.688  -0.668  0.00  0.00    +0.028 C 
ATOM      7  C   UNL     1       0.430   3.809  -0.301  0.00  0.00    +0.026 C 
ATOM      8  C   UNL     1      -3.995   2.080  -1.232  0.00  0.00    +0.047 C 
ATOM      9  H   UNL     1      -1.911   3.507  -1.205  0.00  0.00    +0.147 HD
ENDROOT
BRANCH   2  10
ATOM     10  C   UNL     1      -0.347  -0.931  -0.440  0.00  0.00    +0.023 C 
ATOM     11  C   UNL     1       0.544  -1.842   0.120  0.00  0.00    +0.143 C 
ATOM     12  C   UNL     1      -0.704  -1.027  -1.782  0.00  0.00    +0.002 C 
ATOM     13  C   UNL     1       1.082  -2.858  -0.669  0.00  0.00    +0.024 C 
ATOM     14  C   UNL     1      -0.165  -2.043  -2.571  0.00  0.00    +0.000 C 
ATOM     15  C   UNL     1       0.728  -2.959  -2.014  0.00  0.00    +0.002 C 
BRANCH  11  18
ATOM     16  O   UNL     1       1.728  -2.599   1.948  0.00  0.00    -0.126 OA
ATOM     17  O   UNL     1       0.436  -0.842   2.195  0.00  0.00    -0.126 OA
ATOM     18  N   UNL     1       0.921  -1.757   1.488  0.00  0.00    +0.058 N 
ENDBRANCH  11  18
ENDBRANCH   2  10
BRANCH   3  20
ATOM     19  O   UNL     1       1.448   1.461   2.223  0.00  0.00    -0.245 OA
ATOM     20  C   UNL     1       1.282   1.250   1.036  0.00  0.00    +0.339 C 
BRANCH  20  21
ATOM     21  O   UNL     1       2.197   0.855   0.119  0.00  0.00    -0.446 OA
BRANCH  21  22
ATOM     22  C   UNL     1       3.523   0.667   0.626  0.00  0.00    +0.209 C 
BRANCH  22  23
ATOM     23  C   UNL     1       4.455   0.224  -0.505  0.00  0.00    +0.044 C 
ATOM     24  C   UNL     1       5.851  -0.072   0.041  0.00  0.00    +0.004 C 
ATOM     25  C   UNL     1       4.530   1.278  -1.611  0.00  0.00    +0.004 C 
ENDBRANCH  22  23
ENDBRANCH  21  22
ENDBRANCH  20  21
ENDBRANCH   3  20
BRANCH   4  27
ATOM     26  O   UNL     1      -3.633  -1.405  -0.747  0.00  0.00    -0.245 OA
ATOM     27  C   UNL     1      -3.374  -0.555   0.085  0.00  0.00    +0.342 C 
BRANCH  27  28
ATOM     28  O   UNL     1      -3.926  -0.386   1.311  0.00  0.00    -0.441 OA
ATOM     29  C   UNL     1      -4.941  -1.335   1.656  0.00  0.00    +0.256 C 
ENDBRANCH  27  28
ENDBRANCH   4  27
TORSDOF 8
