REMARK  Name = 2148
REMARK  5 active torsions:
REMARK  status: ('A' for Active; 'I' for Inactive)
REMARK    1  A    between atoms: C_1  and  C_9
REMARK    2  A    between atoms: C_4  and  N_16
REMARK    3  A    between atoms: N_8  and  C_11
REMARK    4  A    between atoms: C_11  and  C_13
REMARK    5  A    between atoms: C_13  and  O_14
REMARK                            x       y       z     vdW  Elec       q    Type
REMARK                         _______ _______ _______ _____ _____    ______ ____
ROOT
ATOM      1  C   UNL     1       0.783   0.254   0.298  0.00  0.00    +0.053 C 
ATOM      2  C   UNL     1       1.574   1.257  -0.262  0.00  0.00    +0.006 C 
ATOM      3  C   UNL     1       1.335  -0.996   0.578  0.00  0.00    +0.006 C 
ATOM      4  C   UNL     1       3.471  -0.240  -0.262  0.00  0.00    +0.042 C 
ATOM      5  C   UNL     1       2.918   1.010  -0.542  0.00  0.00    +0.014 C 
ATOM      6  C   UNL     1       2.680  -1.242   0.298  0.00  0.00    +0.014 C 
ENDROOT
BRANCH   1   9
ATOM      7  O   UNL     1      -1.015   1.670   0.811  0.00  0.00    -0.270 OA
ATOM      8  N   UNL     1      -1.481  -0.591   0.587  0.00  0.00    -0.291 N 
ATOM      9  C   UNL     1      -0.618   0.511   0.591  0.00  0.00    +0.246 C 
ATOM     10  H   UNL     1      -1.100  -1.480   0.405  0.00  0.00    +0.150 HD
BRANCH   8  11
ATOM     11  C   UNL     1      -2.902  -0.494   0.836  0.00  0.00    +0.201 C 
BRANCH  11  13
ATOM     12  O   UNL     1      -4.923  -0.156  -0.427  0.00  0.00    -0.248 OA
ATOM     13  C   UNL     1      -3.704  -0.274  -0.421  0.00  0.00    +0.334 C 
BRANCH  13  14
ATOM     14  O   UNL     1      -2.948  -0.220  -1.542  0.00  0.00    -0.479 OA
ATOM     15  H   UNL     1      -2.018  -0.316  -1.486  0.00  0.00    +0.295 HD
ENDBRANCH  13  14
ENDBRANCH  11  13
ENDBRANCH   8  11
ENDBRANCH   1   9
BRANCH   4  16
ATOM     16  N   UNL     1       4.830  -0.489  -0.544  0.00  0.00    -0.357 N 
ATOM     17  H   UNL     1       5.389   0.218  -0.940  0.00  0.00    +0.142 HD
ATOM     18  H   UNL     1       5.220  -1.371  -0.346  0.00  0.00    +0.142 HD
ENDBRANCH   4  16
TORSDOF 5
