REMARK  Name = 77993
REMARK  6 active torsions:
REMARK  status: ('A' for Active; 'I' for Inactive)
REMARK    1  A    between atoms: C_2  and  C_11
REMARK    2  A    between atoms: C_7  and  C_19
REMARK    3  A    between atoms: C_11  and  C_13
REMARK    4  A    between atoms: C_19  and  C_20
REMARK    5  A    between atoms: C_20  and  S_21
REMARK    6  A    between atoms: S_21  and  C_24
REMARK                            x       y       z     vdW  Elec       q    Type
REMARK                         _______ _______ _______ _____ _____    ______ ____
ROOT
ATOM      1  N   UNL     1       3.641   2.705  -1.226  0.00  0.00    -0.312 N 
ATOM      2  C   UNL     1       3.545   0.972   0.126  0.00  0.00    -0.008 C 
ATOM      3  C   UNL     1       2.263   1.561   0.106  0.00  0.00    +0.010 C 
ATOM      4  C   UNL     1       4.375   1.680  -0.691  0.00  0.00    +0.058 C 
ATOM      5  C   UNL     1       2.347   2.657  -0.757  0.00  0.00    +0.048 C 
ATOM      6  C   UNL     1       1.031   1.283   0.730  0.00  0.00    -0.003 C 
ATOM      7  C   UNL     1      -0.068   2.108   0.469  0.00  0.00    -0.020 C 
ATOM      8  C   UNL     1       1.257   3.490  -1.027  0.00  0.00    +0.014 C 
ATOM      9  C   UNL     1       0.045   3.195  -0.396  0.00  0.00    -0.003 C 
ATOM     10  H   UNL     1       3.987   3.378  -1.855  0.00  0.00    +0.152 HD
ENDROOT
BRANCH   2  11
ATOM     11  C   UNL     1       3.941  -0.238   0.915  0.00  0.00    +0.007 C 
BRANCH  11  13
ATOM     12  N   UNL     1       4.196  -2.726   0.860  0.00  0.00    +0.387 N 
ATOM     13  C   UNL     1       3.733  -1.532   0.139  0.00  0.00    -0.054 C 
ATOM     14  C   UNL     1       4.572  -1.568  -1.141  0.00  0.00    -0.023 C 
ATOM     15  C   UNL     1       4.944  -3.033  -1.338  0.00  0.00    -0.025 C 
ATOM     16  C   UNL     1       4.311  -3.766  -0.166  0.00  0.00    -0.077 C 
ATOM     17  C   UNL     1       3.299  -3.134   1.935  0.00  0.00    -0.101 C 
ATOM     18  H   UNL     1       5.081  -2.542   1.332  0.00  0.00    -0.080 HD
ENDBRANCH  11  13
ENDBRANCH   2  11
BRANCH   7  19
ATOM     19  C   UNL     1      -1.377   1.820   1.128  0.00  0.00    +0.052 C 
BRANCH  19  20
ATOM     20  C   UNL     1      -2.284   0.880   0.329  0.00  0.00    +0.161 C 
BRANCH  20  21
ATOM     21  S   UNL     1      -3.797   0.526   1.167  0.00  0.00    +0.009 S 
ATOM     22  O   UNL     1      -4.579   1.747   1.255  0.00  0.00    -0.169 OA
ATOM     23  O   UNL     1      -3.474  -0.225   2.368  0.00  0.00    -0.169 OA
BRANCH  21  24
ATOM     24  C   UNL     1      -4.653  -0.557   0.063  0.00  0.00    +0.106 C 
ATOM     25  C   UNL     1      -4.463  -1.924   0.173  0.00  0.00    +0.018 C 
ATOM     26  C   UNL     1      -5.499  -0.018  -0.892  0.00  0.00    +0.018 C 
ATOM     27  C   UNL     1      -5.139  -2.778  -0.698  0.00  0.00    +0.001 C 
ATOM     28  C   UNL     1      -6.175  -0.873  -1.763  0.00  0.00    +0.001 C 
ATOM     29  C   UNL     1      -5.995  -2.252  -1.666  0.00  0.00    +0.000 C 
ENDBRANCH  21  24
ENDBRANCH  20  21
ENDBRANCH  19  20
ENDBRANCH   7  19
TORSDOF 6
