REMARK  Name = 65028
REMARK  9 active torsions:
REMARK  status: ('A' for Active; 'I' for Inactive)
REMARK    1  A    between atoms: C_1  and  N_8
REMARK    2  A    between atoms: C_2  and  N_12
REMARK    3  A    between atoms: C_3  and  O_21
REMARK    4  A    between atoms: C_6  and  C_17
REMARK    5  A    between atoms: C_17  and  O_18
REMARK    6  A    between atoms: O_18  and  C_19
REMARK    7  A    between atoms: O_21  and  C_22
REMARK    8  A    between atoms: C_22  and  C_23
REMARK    9  A    between atoms: C_22  and  C_25
REMARK                            x       y       z     vdW  Elec       q    Type
REMARK                         _______ _______ _______ _____ _____    ______ ____
ROOT
ATOM      1  C   UNL     1       0.618   1.405  -0.026  0.00  0.00    +0.083 C 
ATOM      2  C   UNL     1      -0.554   2.168   0.619  0.00  0.00    -0.040 C 
ATOM      3  C   UNL     1       0.639  -0.068   0.430  0.00  0.00    +0.153 C 
ATOM      4  C   UNL     1      -1.897   1.503   0.271  0.00  0.00    +0.013 C 
ATOM      5  C   UNL     1      -0.724  -0.699   0.508  0.00  0.00    +0.006 C 
ATOM      6  C   UNL     1      -1.856   0.013   0.424  0.00  0.00    +0.049 C 
ENDROOT
BRANCH   1   8
ATOM      7  O   UNL     1       3.014   1.465  -1.663  0.00  0.00    -0.275 OA
ATOM      8  N   UNL     1       1.885   2.033   0.291  0.00  0.00    -0.305 N 
ATOM      9  C   UNL     1       2.973   2.006  -0.561  0.00  0.00    +0.223 C 
ATOM     10  C   UNL     1       4.151   2.756   0.001  0.00  0.00    +0.095 C 
ATOM     11  H   UNL     1       1.974   2.501   1.153  0.00  0.00    +0.149 HD
ENDBRANCH   1   8
BRANCH   2  12
ATOM     12  N   UNL     1      -0.587   3.564   0.176  0.00  0.00    +0.383 N 
ATOM     13  H   UNL     1       0.300   4.014   0.402  0.00  0.00    -0.089 HD
ATOM     14  H   UNL     1      -1.347   4.053   0.649  0.00  0.00    -0.089 HD
ATOM     15  H   UNL     1      -0.737   3.597  -0.833  0.00  0.00    -0.089 HD
ENDBRANCH   2  12
BRANCH   6  17
ATOM     16  O   UNL     1      -3.271  -1.749   1.139  0.00  0.00    -0.245 OA
ATOM     17  C   UNL     1      -3.126  -0.714   0.507  0.00  0.00    +0.337 C 
BRANCH  17  18
ATOM     18  O   UNL     1      -4.058  -0.046  -0.217  0.00  0.00    -0.446 OA
BRANCH  18  19
ATOM     19  C   UNL     1      -5.362  -0.637  -0.233  0.00  0.00    +0.209 C 
ATOM     20  C   UNL     1      -6.281   0.220  -1.077  0.00  0.00    +0.051 C 
ENDBRANCH  18  19
ENDBRANCH  17  18
ENDBRANCH   6  17
BRANCH   3  21
ATOM     21  O   UNL     1       1.439  -0.805  -0.496  0.00  0.00    -0.353 OA
BRANCH  21  22
ATOM     22  C   UNL     1       2.087  -1.897   0.137  0.00  0.00    +0.116 C 
BRANCH  22  23
ATOM     23  C   UNL     1       3.432  -1.410   0.688  0.00  0.00    +0.030 C 
ATOM     24  C   UNL     1       4.199  -2.516   1.402  0.00  0.00    +0.003 C 
ENDBRANCH  22  23
BRANCH  22  25
ATOM     25  C   UNL     1       2.294  -3.035  -0.870  0.00  0.00    +0.030 C 
ATOM     26  C   UNL     1       0.986  -3.557  -1.450  0.00  0.00    +0.003 C 
ENDBRANCH  22  25
ENDBRANCH  21  22
ENDBRANCH   3  21
TORSDOF 9
