REMARK  Name = 2471
REMARK  10 active torsions:
REMARK  status: ('A' for Active; 'I' for Inactive)
REMARK    1  A    between atoms: C_1  and  N_17
REMARK    2  A    between atoms: C_2  and  O_23
REMARK    3  A    between atoms: C_3  and  S_7
REMARK    4  A    between atoms: C_5  and  C_14
REMARK    5  A    between atoms: S_7  and  N_10
REMARK    6  A    between atoms: C_14  and  O_15
REMARK    7  A    between atoms: N_17  and  C_19
REMARK    8  A    between atoms: C_19  and  C_20
REMARK    9  A    between atoms: C_20  and  C_21
REMARK   10  A    between atoms: O_23  and  C_24
REMARK                            x       y       z     vdW  Elec       q    Type
REMARK                         _______ _______ _______ _____ _____    ______ ____
ROOT
ATOM      1  C   UNL     1      -0.075   0.824   0.526  0.00  0.00    +0.081 C 
ATOM      2  C   UNL     1      -0.736  -0.417   0.609  0.00  0.00    +0.177 C 
ATOM      3  C   UNL     1      -2.094  -0.527   0.311  0.00  0.00    +0.157 C 
ATOM      4  C   UNL     1      -0.824   1.950   0.134  0.00  0.00    +0.024 C 
ATOM      5  C   UNL     1      -2.182   1.840  -0.164  0.00  0.00    +0.078 C 
ATOM      6  C   UNL     1      -2.817   0.601  -0.075  0.00  0.00    +0.030 C 
ENDROOT
BRANCH   3   7
ATOM      7  S   UNL     1      -2.915  -2.068   0.413  0.00  0.00    +0.060 S 
ATOM      8  O   UNL     1      -2.182  -2.916   1.341  0.00  0.00    -0.153 OA
ATOM      9  O   UNL     1      -4.334  -1.820   0.622  0.00  0.00    -0.153 OA
BRANCH   7  10
ATOM     10  N   UNL     1      -2.688  -2.659  -1.174  0.00  0.00    -0.203 NA
ATOM     11  H   UNL     1      -3.128  -3.576  -1.261  0.00  0.00    +0.144 HD
ATOM     12  H   UNL     1      -1.690  -2.741  -1.367  0.00  0.00    +0.144 HD
ENDBRANCH   7  10
ENDBRANCH   3   7
BRANCH   5  14
ATOM     13  O   UNL     1      -4.138   3.034  -0.852  0.00  0.00    -0.245 OA
ATOM     14  C   UNL     1      -2.936   3.017  -0.566  0.00  0.00    +0.338 C 
BRANCH  14  15
ATOM     15  O   UNL     1      -2.168   4.141  -0.600  0.00  0.00    -0.477 OA
ATOM     16  H   UNL     1      -1.260   4.094  -0.377  0.00  0.00    +0.295 HD
ENDBRANCH  14  15
ENDBRANCH   5  14
BRANCH   1  17
ATOM     17  N   UNL     1       1.274   0.950   0.819  0.00  0.00    -0.330 N 
ATOM     18  H   UNL     1       1.698   0.248   1.364  0.00  0.00    +0.147 HD
BRANCH  17  19
ATOM     19  C   UNL     1       2.092   2.051   0.371  0.00  0.00    +0.087 C 
BRANCH  19  20
ATOM     20  C   UNL     1       3.575   1.701   0.476  0.00  0.00    +0.021 C 
BRANCH  20  21
ATOM     21  C   UNL     1       4.485   2.857   0.055  0.00  0.00    +0.002 C 
ATOM     22  C   UNL     1       5.953   2.501   0.232  0.00  0.00    +0.000 C 
ENDBRANCH  20  21
ENDBRANCH  19  20
ENDBRANCH  17  19
ENDBRANCH   1  17
BRANCH   2  23
ATOM     23  O   UNL     1      -0.027  -1.519   0.988  0.00  0.00    -0.451 OA
BRANCH  23  24
ATOM     24  C   UNL     1       1.051  -1.888   0.203  0.00  0.00    +0.145 C 
ATOM     25  C   UNL     1       0.910  -1.902  -1.173  0.00  0.00    +0.037 C 
ATOM     26  C   UNL     1       2.243  -2.236   0.814  0.00  0.00    +0.037 C 
ATOM     27  C   UNL     1       1.997  -2.275  -1.965  0.00  0.00    +0.003 C 
ATOM     28  C   UNL     1       3.329  -2.610   0.022  0.00  0.00    +0.003 C 
ATOM     29  C   UNL     1       3.206  -2.629  -1.367  0.00  0.00    +0.000 C 
ENDBRANCH  23  24
ENDBRANCH   2  23
TORSDOF 10
