REMARK  Name = 91270
REMARK  13 active torsions:
REMARK  status: ('A' for Active; 'I' for Inactive)
REMARK    1  A    between atoms: C_3  and  C_18
REMARK    2  A    between atoms: C_8  and  C_21
REMARK    3  A    between atoms: C_11  and  O_13
REMARK    4  A    between atoms: C_12  and  O_15
REMARK    5  A    between atoms: C_18  and  O_19
REMARK    6  A    between atoms: C_21  and  N_23
REMARK    7  A    between atoms: N_23  and  C_26
REMARK    8  A    between atoms: C_26  and  C_28
REMARK    9  A    between atoms: C_26  and  C_32
REMARK   10  A    between atoms: C_28  and  O_29
REMARK   11  A    between atoms: O_29  and  C_30
REMARK   12  A    between atoms: C_32  and  C_33
REMARK   13  A    between atoms: C_33  and  C_34
REMARK                            x       y       z     vdW  Elec       q    Type
REMARK                         _______ _______ _______ _____ _____    ______ ____
ROOT
ATOM      1  O   UNK A   1      -0.670  -3.886  -1.005  0.00  0.00    -0.277 OA
ATOM      2  N   UNK A   1       0.828  -2.287  -0.208  0.00  0.00    -0.269 N 
ATOM      3  C   UNK A   1       1.961  -2.870  -0.930  0.00  0.00    +0.179 C 
ATOM      4  C   UNK A   1       2.835  -1.817  -1.604  0.00  0.00    +0.057 C 
ATOM      5  C   UNK A   0       1.098  -1.157   0.697  0.00  0.00    +0.120 C 
ATOM      6  C   UNK A   1       3.159  -0.657  -0.704  0.00  0.00    -0.019 C 
ATOM      7  C   UNK A   1       2.322  -0.340   0.376  0.00  0.00    -0.003 C 
ATOM      8  C   UNK A   1      -0.413  -2.938  -0.259  0.00  0.00    +0.206 C 
ATOM      9  C   UNK A   1       4.278   0.144  -0.973  0.00  0.00    +0.036 C 
ATOM     10  C   UNK A   1       2.634   0.762   1.186  0.00  0.00    +0.037 C 
ATOM     11  C   UNK A   1       4.578   1.237  -0.161  0.00  0.00    +0.172 C 
ATOM     12  C   UNK A   1       3.757   1.545   0.920  0.00  0.00    +0.172 C 
ENDROOT
BRANCH  11  13
ATOM     13  O   UNK A   1       5.674   1.997  -0.438  0.00  0.00    -0.468 OA
ATOM     14  C   UNK A   1       5.491   3.104  -1.317  0.00  0.00    +0.253 C 
ENDBRANCH  11  13
BRANCH  12  15
ATOM     15  O   UNK A   1       4.037   2.610   1.722  0.00  0.00    -0.468 OA
ATOM     16  C   UNK A   1       3.145   2.855   2.808  0.00  0.00    +0.253 C 
ENDBRANCH  12  15
BRANCH   3  18
ATOM     17  O   UNK A   1       2.451  -3.818   1.243  0.00  0.00    -0.248 OA
ATOM     18  C   UNK A   1       2.721  -3.712   0.056  0.00  0.00    +0.332 C 
BRANCH  18  19
ATOM     19  O   UNK A   1       3.757  -4.341  -0.550  0.00  0.00    -0.479 OA
ATOM     20  H   UNK A   1       3.910  -4.216  -1.466  0.00  0.00    +0.295 HD
ENDBRANCH  18  19
ENDBRANCH   3  18
BRANCH   8  21
ATOM     21  C   UNK A   1      -1.482  -2.414   0.669  0.00  0.00    +0.018 C 
ATOM     22  C   UNK A   1      -1.947  -3.518   1.597  0.00  0.00    -0.014 C 
BRANCH  21  23
ATOM     23  N   UNK A   1      -2.571  -1.942  -0.169  0.00  0.00    +0.399 N 
ATOM     24  H   UNK A   1      -3.133  -2.740  -0.466  0.00  0.00    -0.083 HD
ATOM     25  H   UNK A   1      -2.173  -1.463  -0.977  0.00  0.00    -0.083 HD
BRANCH  23  26
ATOM     26  C   UNK A   0      -3.421  -1.002   0.553  0.00  0.00    +0.041 C 
BRANCH  26  28
ATOM     27  O   UNK A   0      -5.019  -1.520  -1.219  0.00  0.00    -0.252 OA
ATOM     28  C   UNK A   0      -4.751  -0.934  -0.178  0.00  0.00    +0.297 C 
BRANCH  28  29
ATOM     29  O   UNK A   0      -5.604  -0.122   0.518  0.00  0.00    -0.450 OA
BRANCH  29  30
ATOM     30  C   UNK A   0      -6.909   0.033  -0.047  0.00  0.00    +0.208 C 
ATOM     31  C   UNK A   0      -7.723   0.955   0.836  0.00  0.00    +0.051 C 
ENDBRANCH  29  30
ENDBRANCH  28  29
ENDBRANCH  26  28
BRANCH  26  32
ATOM     32  C   UNK A   0      -2.793   0.400   0.615  0.00  0.00    -0.006 C 
BRANCH  32  33
ATOM     33  C   UNK A   0      -2.554   1.071  -0.745  0.00  0.00    +0.025 C 
BRANCH  33  34
ATOM     34  C   UNK A   0      -1.995   2.468  -0.643  0.00  0.00    -0.022 C 
ATOM     35  C   UNK A   0      -2.859   3.561  -0.572  0.00  0.00    -0.004 C 
ATOM     36  C   UNK A   0      -0.615   2.667  -0.619  0.00  0.00    -0.004 C 
ATOM     37  C   UNK A   0      -2.342   4.854  -0.478  0.00  0.00    -0.000 C 
ATOM     38  C   UNK A   0      -0.098   3.960  -0.524  0.00  0.00    -0.000 C 
ATOM     39  C   UNK A   0      -0.962   5.053  -0.454  0.00  0.00    -0.000 C 
ENDBRANCH  33  34
ENDBRANCH  32  33
ENDBRANCH  26  32
ENDBRANCH  23  26
ENDBRANCH  21  23
ENDBRANCH   8  21
TORSDOF 13
