REMARK  Name = 2082
REMARK  5 active torsions:
REMARK  status: ('A' for Active; 'I' for Inactive)
REMARK    1  A    between atoms: N_4  and  C_10
REMARK    2  A    between atoms: C_7  and  S_18
REMARK    3  A    between atoms: C_12  and  O_16
REMARK    4  A    between atoms: S_18  and  C_19
REMARK    5  A    between atoms: C_19  and  C_20
REMARK                            x       y       z     vdW  Elec       q    Type
REMARK                         _______ _______ _______ _____ _____    ______ ____
ROOT
ATOM      1  N   UNL     1       0.963   1.030  -0.780  0.00  0.00    -0.302 N 
ATOM      2  N   UNL     1       1.541  -0.858   0.240  0.00  0.00    -0.302 N 
ATOM      3  C   UNL     1      -0.198   0.311  -0.656  0.00  0.00    +0.061 C 
ATOM      4  C   UNL     1       0.189  -0.863  -0.016  0.00  0.00    +0.060 C 
ATOM      5  C   UNL     1      -2.465  -0.403  -0.745  0.00  0.00    +0.027 C 
ATOM      6  C   UNL     1      -1.513   0.580  -1.036  0.00  0.00    +0.022 C 
ATOM      7  C   UNL     1      -0.781  -1.839   0.269  0.00  0.00    +0.016 C 
ATOM      8  C   UNL     1       1.973   0.290  -0.231  0.00  0.00    +0.229 C 
ATOM      9  C   UNL     1      -2.108  -1.591  -0.104  0.00  0.00    +0.007 C 
ATOM     10  H   UNL     1       1.053   1.920  -1.191  0.00  0.00    +0.150 HD
ATOM     11  H   UNL     1       2.070  -1.562   0.680  0.00  0.00    +0.150 HD
ENDROOT
BRANCH   8  13
ATOM     12  O   UNL     1       4.452  -0.953   0.841  0.00  0.00    -0.226 OA
ATOM     13  N   UNL     1       3.256   0.772  -0.217  0.00  0.00    -0.240 N 
ATOM     14  C   UNL     1       4.390   0.145   0.301  0.00  0.00    +0.404 C 
ATOM     15  H   UNL     1       3.393   1.660  -0.619  0.00  0.00    +0.156 HD
BRANCH  14  16
ATOM     16  O   UNL     1       5.480   0.956   0.119  0.00  0.00    -0.431 OA
ATOM     17  C   UNL     1       6.730   0.450   0.602  0.00  0.00    +0.257 C 
ENDBRANCH  14  16
ENDBRANCH   8  13
BRANCH   5  18
ATOM     18  S   UNL     1      -4.170  -0.130  -1.204  0.00  0.00    -0.114 S 
BRANCH  18  19
ATOM     19  C   UNL     1      -4.758   0.676   0.301  0.00  0.00    +0.062 C 
BRANCH  19  20
ATOM     20  C   UNL     1      -6.236   0.378   0.524  0.00  0.00    +0.012 C 
ATOM     21  C   UNL     1      -6.745   1.048   1.792  0.00  0.00    +0.001 C 
ENDBRANCH  19  20
ENDBRANCH  18  19
ENDBRANCH   5  18
TORSDOF 5
