REMARK  Name = 6196
REMARK  5 active torsions:
REMARK  status: ('A' for Active; 'I' for Inactive)
REMARK    1  A    between atoms: N_2  and  CA_11
REMARK    2  A    between atoms: C_3  and  C_21
REMARK    3  A    between atoms: CA_10  and  C_16
REMARK    4  A    between atoms: C_16  and  O_17
REMARK    5  A    between atoms: C_22  and  C_25
REMARK                            x       y       z     vdW  Elec       q    Type
REMARK                         _______ _______ _______ _____ _____    ______ ____
ROOT
ATOM      1  O   UNL     1      -1.213  -2.458  -1.496  0.00  0.00    -0.270 OA
ATOM      2  N   UNL     1      -0.417  -0.414  -0.788  0.00  0.00    -0.293 N 
ATOM      3  C   UNL     1      -1.368  -1.441  -0.820  0.00  0.00    +0.251 C 
ATOM      4  H   UNL     1      -0.594   0.377  -0.229  0.00  0.00    +0.150 HD
ENDROOT
BRANCH   2  11
ATOM      5  S   UNL     1       1.679   1.492   0.353  0.00  0.00    -0.118 S 
ATOM      6  O   UNL     1       1.783  -2.726  -0.839  0.00  0.00    -0.273 OA
ATOM      7  N   UNL     1       2.772  -0.585  -0.821  0.00  0.00    -0.260 N 
ATOM      8  C   UNL     1       1.930   0.551  -1.200  0.00  0.00    +0.151 C 
ATOM      9  C   UNL     1       2.793   0.396   1.363  0.00  0.00    +0.068 C 
ATOM     10  CA  UNL     1       3.592  -0.471   0.364  0.00  0.00    +0.184 C 
ATOM     11  CA  UNL     1       0.835  -0.468  -1.556  0.00  0.00    +0.178 C 
ATOM     12  C   UNL     1       1.827  -1.538  -1.062  0.00  0.00    +0.247 C 
ATOM     13  C   UNL     1       3.671   1.270   2.265  0.00  0.00    +0.013 C 
ATOM     14  C   UNL     1       1.893  -0.484   2.247  0.00  0.00    +0.013 C 
BRANCH  10  16
ATOM     15  OXT UNL     1       4.951   0.927  -1.065  0.00  0.00    -0.248 OA
ATOM     16  C   UNL     1       4.868   0.133  -0.139  0.00  0.00    +0.333 C 
BRANCH  16  17
ATOM     17  O   UNL     1       5.927  -0.323   0.573  0.00  0.00    -0.479 OA
ATOM     18  H   UNL     1       5.794  -0.932   1.272  0.00  0.00    +0.295 HD
ENDBRANCH  16  17
ENDBRANCH  10  16
ENDBRANCH   2  11
BRANCH   3  21
ATOM     19  O   UNL     1      -4.284  -1.712   1.297  0.00  0.00    -0.358 OA
ATOM     20  N   UNL     1      -4.235  -0.328   1.184  0.00  0.00    -0.077 NA
ATOM     21  C   UNL     1      -2.555  -1.255   0.025  0.00  0.00    +0.107 A 
ATOM     22  C   UNL     1      -3.176  -0.082   0.407  0.00  0.00    +0.127 A 
ATOM     23  C   UNL     1      -3.260  -2.256   0.590  0.00  0.00    +0.159 A 
ATOM     24  C   UNL     1      -3.167  -3.722   0.605  0.00  0.00    +0.076 C 
BRANCH  22  25
ATOM     25  C   UNL     1      -2.820   1.273   0.074  0.00  0.00    +0.021 C 
ATOM     26  C   UNL     1      -3.353   1.871  -1.065  0.00  0.00    +0.002 C 
ATOM     27  C   UNL     1      -1.942   1.980   0.892  0.00  0.00    +0.002 C 
ATOM     28  C   UNL     1      -3.007   3.183  -1.388  0.00  0.00    +0.000 C 
ATOM     29  C   UNL     1      -1.596   3.292   0.570  0.00  0.00    +0.000 C 
ATOM     30  C   UNL     1      -2.129   3.894  -0.570  0.00  0.00    +0.000 C 
ENDBRANCH  22  25
ENDBRANCH   3  21
TORSDOF 5
