REMARK  Name = 2581
REMARK  3 active torsions:
REMARK  status: ('A' for Active; 'I' for Inactive)
REMARK    1  A    between atoms: C_6  and  C_16
REMARK    2  A    between atoms: C_16  and  C_19
REMARK    3  A    between atoms: C_19  and  O_20
REMARK                            x       y       z     vdW  Elec       q    Type
REMARK                         _______ _______ _______ _____ _____    ______ ____
ROOT
ATOM      1 CL   UNL     1       5.867  -1.289  -0.427  0.00  0.00    -0.082 Cl
ATOM      2  N   UNL     1       0.854   1.611   0.335  0.00  0.00    -0.353 N 
ATOM      3  C   UNL     1       0.619  -0.589   0.059  0.00  0.00    +0.017 A 
ATOM      4  C   UNL     1      -0.077   0.601   0.270  0.00  0.00    +0.056 A 
ATOM      5  C   UNL     1       2.012  -0.265  -0.002  0.00  0.00    +0.018 A 
ATOM      6  C   UNL     1      -2.176  -0.549   0.273  0.00  0.00    -0.011 C 
ATOM      7  C   UNL     1       2.126   1.114   0.173  0.00  0.00    +0.057 A 
ATOM      8  C   UNL     1      -1.471   0.654   0.381  0.00  0.00    +0.013 C 
ATOM      9  C   UNL     1      -0.115  -1.790  -0.046  0.00  0.00    +0.001 C 
ATOM     10  C   UNL     1      -1.509  -1.754   0.063  0.00  0.00    -0.004 C 
ATOM     11  C   UNL     1       3.188  -1.021  -0.190  0.00  0.00    +0.013 C 
ATOM     12  C   UNL     1       3.358   1.778   0.170  0.00  0.00    +0.018 C 
ATOM     13  C   UNL     1       4.427  -0.371  -0.197  0.00  0.00    +0.058 C 
ATOM     14  C   UNL     1       4.508   1.008  -0.019  0.00  0.00    +0.013 C 
ATOM     15  H   UNL     1       0.639   2.561   0.477  0.00  0.00    +0.166 HD
ENDROOT
BRANCH   6  16
ATOM     16  C   UNL     1      -3.664  -0.539   0.385  0.00  0.00    +0.121 C 
ATOM     17  C   UNL     1      -4.184  -0.025   1.743  0.00  0.00    +0.016 C 
BRANCH  16  19
ATOM     18  O   UNL     1      -3.733   0.875  -1.606  0.00  0.00    -0.250 OA
ATOM     19  C   UNL     1      -4.336   0.274  -0.726  0.00  0.00    +0.317 C 
BRANCH  19  20
ATOM     20  O   UNL     1      -5.693   0.275  -0.639  0.00  0.00    -0.480 OA
ATOM     21  H   UNL     1      -6.118  -0.197   0.049  0.00  0.00    +0.295 HD
ENDBRANCH  19  20
ENDBRANCH  16  19
ENDBRANCH   6  16
TORSDOF 3
