REMARK  Name = 77991
REMARK  5 active torsions:
REMARK  status: ('A' for Active; 'I' for Inactive)
REMARK    1  A    between atoms: C_1  and  C_7
REMARK    2  A    between atoms: C_4  and  O_13
REMARK    3  A    between atoms: C_7  and  N_9
REMARK    4  A    between atoms: O_13  and  C_16
REMARK    5  A    between atoms: N_15  and  C_18
REMARK                            x       y       z     vdW  Elec       q    Type
REMARK                         _______ _______ _______ _____ _____    ______ ____
ROOT
ATOM      1  C   UNL     1       1.964   0.710  -0.152  0.00  0.00    -0.039 C 
ATOM      2  C   UNL     1       0.716   0.200  -0.510  0.00  0.00    +0.031 C 
ATOM      3  C   UNL     1       2.052   1.914   0.547  0.00  0.00    -0.006 C 
ATOM      4  C   UNL     1      -0.411   0.908  -0.159  0.00  0.00    +0.150 C 
ATOM      5  C   UNL     1       0.891   2.608   0.888  0.00  0.00    +0.003 C 
ATOM      6  C   UNL     1      -0.357   2.099   0.531  0.00  0.00    +0.038 C 
ENDROOT
BRANCH   1   7
ATOM      7  C   UNL     1       3.205  -0.032  -0.517  0.00  0.00    -0.035 C 
ATOM      8  C   UNL     1       3.378  -0.193  -2.038  0.00  0.00    -0.018 C 
BRANCH   7   9
ATOM      9  N   UNL     1       3.262  -1.373   0.096  0.00  0.00    +0.388 N 
ATOM     10  C   UNL     1       3.225  -1.259   1.549  0.00  0.00    -0.100 C 
ATOM     11  C   UNL     1       4.464  -2.071  -0.343  0.00  0.00    -0.100 C 
ATOM     12  H   UNL     1       2.450  -1.914  -0.204  0.00  0.00    -0.079 HD
ENDBRANCH   7   9
ENDBRANCH   1   7
BRANCH   4  13
ATOM     13  O   UNL     1      -1.663   0.398  -0.517  0.00  0.00    -0.410 OA
BRANCH  13  16
ATOM     14  O   UNL     1      -1.686  -0.725   1.507  0.00  0.00    -0.226 OA
ATOM     15  N   UNL     1      -3.481  -0.937   0.044  0.00  0.00    -0.244 N 
ATOM     16  C   UNL     1      -2.232  -0.448   0.440  0.00  0.00    +0.409 C 
ATOM     17  C   UNL     1      -4.225  -1.835   0.916  0.00  0.00    +0.118 C 
BRANCH  15  18
ATOM     18  C   UNL     1      -4.122  -0.600  -1.223  0.00  0.00    +0.097 C 
ATOM     19  C   UNL     1      -4.983   0.638  -1.060  0.00  0.00    +0.023 C 
ENDBRANCH  15  18
ENDBRANCH  13  16
ENDBRANCH   4  13
TORSDOF 5
