REMARK  Name = 19861
REMARK  0 active torsions:
REMARK  status: ('A' for Active; 'I' for Inactive)
REMARK                            x       y       z     vdW  Elec       q    Type
REMARK                         _______ _______ _______ _____ _____    ______ ____
ROOT
ATOM      1  N   UNL     1      -3.911  -0.904   0.248  0.00  0.00    +0.386 N 
ATOM      2  N   UNL     1       0.058   2.175  -1.451  0.00  0.00    -0.244 NA
ATOM      3  C   UNL     1      -1.202  -0.327  -0.563  0.00  0.00    -0.047 C 
ATOM      4  C   UNL     1      -2.283   0.709  -0.709  0.00  0.00    -0.001 C 
ATOM      5  C   UNL     1      -1.708  -1.743  -0.532  0.00  0.00    -0.001 C 
ATOM      6  C   UNL     1      -3.393   0.472   0.322  0.00  0.00    -0.073 C 
ATOM      7  C   UNL     1      -2.840  -1.885   0.492  0.00  0.00    -0.073 C 
ATOM      8  C   UNL     1       0.095  -0.014  -0.438  0.00  0.00    +0.009 C 
ATOM      9  C   UNL     1       1.108  -1.096  -0.297  0.00  0.00    -0.003 C 
ATOM     10  C   UNL     1       0.404   1.428  -0.371  0.00  0.00    +0.077 C 
ATOM     11  C   UNL     1       2.182  -1.040   0.619  0.00  0.00    -0.022 C 
ATOM     12  C   UNL     1       2.482   0.094   1.583  0.00  0.00    +0.031 C 
ATOM     13  C   UNL     1       1.369   1.081   1.932  0.00  0.00    +0.033 C 
ATOM     14  C   UNL     1       1.014   1.958   0.765  0.00  0.00    -0.004 C 
ATOM     15  C   UNL     1      -5.002  -1.091   1.205  0.00  0.00    -0.101 C 
ATOM     16  C   UNL     1       1.020  -2.207  -1.166  0.00  0.00    -0.000 C 
ATOM     17  C   UNL     1       3.114  -2.104   0.636  0.00  0.00    -0.004 C 
ATOM     18  C   UNL     1       1.280   3.329   0.777  0.00  0.00    -0.001 C 
ATOM     19  C   UNL     1       1.946  -3.249  -1.121  0.00  0.00    -0.000 C 
ATOM     20  C   UNL     1       2.994  -3.199  -0.216  0.00  0.00    -0.000 C 
ATOM     21  C   UNL     1       0.938   4.116  -0.317  0.00  0.00    +0.020 C 
ATOM     22  C   UNL     1       0.334   3.497  -1.396  0.00  0.00    +0.099 C 
ATOM     23  H   UNL     1      -4.272  -1.057  -0.693  0.00  0.00    -0.080 HD
ENDROOT
TORSDOF 0
