REMARK  Name = 5284549
REMARK  4 active torsions:
REMARK  status: ('A' for Active; 'I' for Inactive)
REMARK    1  A    between atoms: C_6  and  N_19
REMARK    2  A    between atoms: C_12  and  S_13
REMARK    3  A    between atoms: S_13  and  N_16
REMARK    4  A    between atoms: N_19  and  C_22
REMARK                            x       y       z     vdW  Elec       q    Type
REMARK                         _______ _______ _______ _____ _____    ______ ____
ROOT
ATOM      1  S   UNL     1       1.238  -2.040   0.304  0.00  0.00    +0.012 S 
ATOM      2  S   UNL     1      -1.630  -1.307   0.441  0.00  0.00    -0.049 S 
ATOM      3  O   UNL     1       1.062  -2.986  -0.778  0.00  0.00    -0.168 OA
ATOM      4  O   UNL     1       1.179  -2.416   1.700  0.00  0.00    -0.168 OA
ATOM      5  C   UNL     1       2.708  -1.033   0.016  0.00  0.00    +0.133 C 
ATOM      6  C   UNL     1       1.381   1.052  -0.809  0.00  0.00    -0.035 C 
ATOM      7  C   UNL     1       2.469  -0.007  -1.112  0.00  0.00    +0.007 C 
ATOM      8  C   UNL     1       0.069   0.437  -0.411  0.00  0.00    -0.017 C 
ATOM      9  C   UNL     1      -0.039  -0.849   0.073  0.00  0.00    +0.130 C 
ATOM     10  C   UNL     1       3.899  -1.933  -0.299  0.00  0.00    +0.026 C 
ATOM     11  C   UNL     1      -1.218   1.058  -0.477  0.00  0.00    +0.022 C 
ATOM     12  C   UNL     1      -2.227   0.225  -0.040  0.00  0.00    +0.152 C 
ENDROOT
BRANCH  12  13
ATOM     13  S   UNL     1      -3.966   0.419   0.114  0.00  0.00    +0.063 S 
ATOM     14  O   UNL     1      -4.382  -0.510   1.158  0.00  0.00    -0.153 OA
ATOM     15  O   UNL     1      -4.175   1.853   0.271  0.00  0.00    -0.153 OA
BRANCH  13  16
ATOM     16  N   UNL     1      -4.707  -0.078  -1.354  0.00  0.00    -0.203 NA
ATOM     17  H   UNL     1      -5.719   0.030  -1.278  0.00  0.00    +0.144 HD
ATOM     18  H   UNL     1      -4.482  -1.056  -1.535  0.00  0.00    +0.144 HD
ENDBRANCH  13  16
ENDBRANCH  12  13
BRANCH   6  19
ATOM     19  N   UNL     1       1.795   1.970   0.254  0.00  0.00    +0.388 N 
ATOM     20  H   UNL     1       1.889   1.451   1.127  0.00  0.00    -0.084 HD
ATOM     21  H   UNL     1       1.090   2.700   0.350  0.00  0.00    -0.084 HD
BRANCH  19  22
ATOM     22  C   UNL     1       3.069   2.589  -0.073  0.00  0.00    -0.081 C 
ATOM     23  C   UNL     1       3.477   3.554   1.024  0.00  0.00    -0.026 C 
ENDBRANCH  19  22
ENDBRANCH   6  19
TORSDOF 4
