REMARK  Name = 2345
REMARK  4 active torsions:
REMARK  status: ('A' for Active; 'I' for Inactive)
REMARK    1  A    between atoms: O_1  and  C_3
REMARK    2  A    between atoms: O_1  and  C_10
REMARK    3  A    between atoms: C_3  and  C_4
REMARK    4  A    between atoms: C_10  and  C_11
REMARK                            x       y       z     vdW  Elec       q    Type
REMARK                         _______ _______ _______ _____ _____    ______ ____
ROOT
ATOM      1  O   UNL     1       0.038   0.568  -0.001  0.00  0.00    -0.440 OA
ENDROOT
BRANCH   1   3
ATOM      2  O   UNL     1      -1.288   2.449   0.001  0.00  0.00    -0.245 OA
ATOM      3  C   UNL     1      -1.166   1.217  -0.001  0.00  0.00    +0.342 C 
BRANCH   3   4
ATOM      4  C   UNL     1      -2.279   0.280  -0.001  0.00  0.00    +0.076 C 
ATOM      5  C   UNL     1      -3.590   0.755   0.001  0.00  0.00    +0.006 C 
ATOM      6  C   UNL     1      -2.034  -1.093  -0.001  0.00  0.00    +0.006 C 
ATOM      7  C   UNL     1      -4.657  -0.143   0.001  0.00  0.00    +0.000 C 
ATOM      8  C   UNL     1      -3.101  -1.991  -0.001  0.00  0.00    +0.000 C 
ATOM      9  C   UNL     1      -4.413  -1.516   0.000  0.00  0.00    +0.000 C 
ENDBRANCH   3   4
ENDBRANCH   1   3
BRANCH   1  10
ATOM     10  C   UNL     1       1.214   1.385   0.001  0.00  0.00    +0.235 C 
BRANCH  10  11
ATOM     11  C   UNL     1       2.426   0.500   0.000  0.00  0.00    +0.021 C 
ATOM     12  C   UNL     1       2.981   0.093   1.208  0.00  0.00    -0.001 C 
ATOM     13  C   UNL     1       2.982   0.095  -1.208  0.00  0.00    -0.001 C 
ATOM     14  C   UNL     1       4.107  -0.730   1.208  0.00  0.00    -0.000 C 
ATOM     15  C   UNL     1       4.108  -0.728  -1.208  0.00  0.00    -0.000 C 
ATOM     16  C   UNL     1       4.671  -1.140   0.000  0.00  0.00    -0.000 C 
ENDBRANCH  10  11
ENDBRANCH   1  10
TORSDOF 4
