REMARK  Name = 5358
REMARK  6 active torsions:
REMARK  status: ('A' for Active; 'I' for Inactive)
REMARK    1  A    between atoms: C_2  and  C_11
REMARK    2  A    between atoms: C_5  and  C_17
REMARK    3  A    between atoms: C_11  and  C_12
REMARK    4  A    between atoms: C_12  and  N_13
REMARK    5  A    between atoms: C_17  and  S_18
REMARK    6  A    between atoms: S_18  and  N_21
REMARK                            x       y       z     vdW  Elec       q    Type
REMARK                         _______ _______ _______ _____ _____    ______ ____
ROOT
ATOM      1  N   UNL     1      -1.629  -3.131  -0.493  0.00  0.00    -0.312 N 
ATOM      2  C   UNL     1      -2.223  -1.133   0.268  0.00  0.00    -0.008 C 
ATOM      3  C   UNL     1      -0.802  -1.216   0.298  0.00  0.00    +0.010 C 
ATOM      4  C   UNL     1      -0.456  -2.480  -0.184  0.00  0.00    +0.048 C 
ATOM      5  C   UNL     1       1.558  -0.751   0.587  0.00  0.00    +0.003 C 
ATOM      6  C   UNL     1       0.225  -0.336   0.691  0.00  0.00    -0.002 C 
ATOM      7  C   UNL     1      -2.702  -2.325  -0.223  0.00  0.00    +0.057 C 
ATOM      8  C   UNL     1       0.872  -2.909  -0.294  0.00  0.00    +0.014 C 
ATOM      9  C   UNL     1       1.873  -2.018   0.101  0.00  0.00    -0.001 C 
ATOM     10  H   UNL     1      -1.688  -4.044  -0.856  0.00  0.00    +0.152 HD
ENDROOT
BRANCH   2  11
ATOM     11  C   UNL     1      -3.044   0.021   0.687  0.00  0.00    +0.005 C 
BRANCH  11  12
ATOM     12  C   UNL     1      -3.320   1.010  -0.461  0.00  0.00    -0.073 C 
BRANCH  12  13
ATOM     13  N   UNL     1      -4.109   2.154  -0.016  0.00  0.00    +0.384 N 
ATOM     14  C   UNL     1      -4.315   3.096  -1.117  0.00  0.00    -0.101 C 
ATOM     15  C   UNL     1      -3.455   2.823   1.110  0.00  0.00    -0.101 C 
ATOM     16  H   UNL     1      -5.019   1.813   0.294  0.00  0.00    -0.080 HD
ENDBRANCH  12  13
ENDBRANCH  11  12
ENDBRANCH   2  11
BRANCH   5  17
ATOM     17  C   UNL     1       2.651   0.176   1.002  0.00  0.00    +0.195 C 
BRANCH  17  18
ATOM     18  S   UNL     1       3.118   1.128  -0.407  0.00  0.00    +0.045 S 
ATOM     19  O   UNL     1       3.690   0.232  -1.400  0.00  0.00    -0.157 OA
ATOM     20  O   UNL     1       1.997   1.987  -0.759  0.00  0.00    -0.157 OA
BRANCH  18  21
ATOM     21  N   UNL     1       4.353   2.109   0.253  0.00  0.00    -0.182 NA
ATOM     22  C   UNL     1       5.719   1.564   0.357  0.00  0.00    +0.110 C 
ATOM     23  H   UNL     1       4.060   2.363   1.196  0.00  0.00    +0.148 HD
ENDBRANCH  18  21
ENDBRANCH  17  18
ENDBRANCH   5  17
TORSDOF 6
