REMARK  Name = 60490
REMARK  3 active torsions:
REMARK  status: ('A' for Active; 'I' for Inactive)
REMARK    1  A    between atoms: C_1  and  C_4
REMARK    2  A    between atoms: C_1  and  N_13
REMARK    3  A    between atoms: N_13  and  O_18
REMARK                            x       y       z     vdW  Elec       q    Type
REMARK                         _______ _______ _______ _____ _____    ______ ____
ROOT
ATOM      1  C   UNL     1      -1.663  -0.522  -0.865  0.00  0.00    +0.133 C 
ATOM      2  C   UNL     1      -1.955  -1.963  -1.337  0.00  0.00    +0.030 C 
ENDROOT
BRANCH   1   4
ATOM      3  S   UNL     1       0.438   1.257  -0.822  0.00  0.00    -0.090 S 
ATOM      4  C   UNL     1      -0.233  -0.289  -0.568  0.00  0.00    +0.028 C 
ATOM      5  C   UNL     1       1.997  -0.599   0.078  0.00  0.00    +0.006 C 
ATOM      6  C   UNL     1       0.696  -1.182  -0.090  0.00  0.00    +0.004 C 
ATOM      7  C   UNL     1       1.998   0.750  -0.290  0.00  0.00    +0.029 C 
ATOM      8  C   UNL     1       3.208  -1.168   0.539  0.00  0.00    +0.001 C 
ATOM      9  C   UNL     1       3.166   1.534  -0.211  0.00  0.00    +0.006 C 
ATOM     10  C   UNL     1       4.368  -0.393   0.620  0.00  0.00    +0.000 C 
ATOM     11  C   UNL     1       4.345   0.943   0.248  0.00  0.00    +0.001 C 
ENDBRANCH   1   4
BRANCH   1  13
ATOM     12  O   UNL     1      -3.848   1.375  -0.711  0.00  0.00    -0.251 OA
ATOM     13  N   UNL     1      -2.543  -0.224   0.286  0.00  0.00    -0.154 N 
ATOM     14  N   UNL     1      -4.219   0.792   1.464  0.00  0.00    -0.312 N 
ATOM     15  C   UNL     1      -3.545   0.685   0.264  0.00  0.00    +0.323 C 
ATOM     16  H   UNL     1      -4.966   1.427   1.554  0.00  0.00    +0.147 HD
ATOM     17  H   UNL     1      -3.952   0.235   2.230  0.00  0.00    +0.147 HD
BRANCH  13  18
ATOM     18  O   UNL     1      -2.212  -0.995   1.393  0.00  0.00    -0.290 OA
ATOM     19  H   UNL     1      -1.464  -1.573   1.173  0.00  0.00    +0.242 HD
ENDBRANCH  13  18
ENDBRANCH   1  13
TORSDOF 3
