REMARK  Name = 2551
REMARK  4 active torsions:
REMARK  status: ('A' for Active; 'I' for Inactive)
REMARK    1  A    between atoms: O_1  and  C_4
REMARK    2  A    between atoms: O_1  and  C_7
REMARK    3  A    between atoms: C_7  and  C_8
REMARK    4  A    between atoms: C_8  and  N_9
REMARK                            x       y       z     vdW  Elec       q    Type
REMARK                         _______ _______ _______ _____ _____    ______ ____
ROOT
ATOM      1  O   UNL     1       1.493  -0.650   0.008  0.00  0.00    -0.437 OA
ENDROOT
BRANCH   1   4
ATOM      2  O   UNL     1       2.729   1.293  -0.003  0.00  0.00    -0.227 OA
ATOM      3  N   UNL     1       3.747  -0.769  -0.009  0.00  0.00    -0.295 N 
ATOM      4  C   UNL     1       2.659   0.068  -0.001  0.00  0.00    +0.398 C 
ATOM      5  H   UNL     1       3.617  -1.745  -0.007  0.00  0.00    +0.148 HD
ATOM      6  H   UNL     1       4.657  -0.393  -0.016  0.00  0.00    +0.148 HD
ENDBRANCH   1   4
BRANCH   1   7
ATOM      7  C   UNL     1       0.291   0.109   0.017  0.00  0.00    +0.188 C 
BRANCH   7   8
ATOM      8  C   UNL     1      -0.901  -0.828   0.027  0.00  0.00    -0.025 C 
BRANCH   8   9
ATOM      9  N   UNL     1      -2.183  -0.010  -0.003  0.00  0.00    +0.388 N 
ATOM     10  C   UNL     1      -2.200   0.863  -1.249  0.00  0.00    -0.096 C 
ATOM     11  C   UNL     1      -3.382  -0.948  -0.024  0.00  0.00    -0.096 C 
ATOM     12  C   UNL     1      -2.252   0.872   1.236  0.00  0.00    -0.096 C 
ENDBRANCH   8   9
ENDBRANCH   7   8
ENDBRANCH   1   7
TORSDOF 4
