REMARK  Name = 287180
REMARK  4 active torsions:
REMARK  status: ('A' for Active; 'I' for Inactive)
REMARK    1  A    between atoms: N_2  and  C_22
REMARK    2  A    between atoms: C_6  and  C_13
REMARK    3  A    between atoms: C_9  and  C_19
REMARK    4  A    between atoms: C_19  and  O_20
REMARK                            x       y       z     vdW  Elec       q    Type
REMARK                         _______ _______ _______ _____ _____    ______ ____
ROOT
ATOM      1  O   UNL     1      -2.863  -2.320   0.379  0.00  0.00    -0.286 OA
ATOM      2  N   UNL     1      -1.421   1.426  -0.343  0.00  0.00    -0.286 N 
ATOM      3  C   UNL     1      -0.492   0.379  -0.135  0.00  0.00    +0.055 C 
ATOM      4  C   UNL     1      -0.962  -0.931   0.117  0.00  0.00    +0.053 C 
ATOM      5  C   UNL     1       0.902   0.567  -0.165  0.00  0.00    +0.015 C 
ATOM      6  C   UNL     1       1.784  -0.498   0.045  0.00  0.00    +0.001 C 
ATOM      7  C   UNL     1      -2.775   1.151  -0.294  0.00  0.00    +0.075 C 
ATOM      8  C   UNL     1      -2.424  -1.198   0.163  0.00  0.00    +0.204 C 
ATOM      9  C   UNL     1      -3.329  -0.045  -0.064  0.00  0.00    +0.129 C 
ATOM     10  C   UNL     1      -0.077  -1.997   0.329  0.00  0.00    +0.004 C 
ATOM     11  C   UNL     1       1.296  -1.776   0.292  0.00  0.00    +0.000 C 
ENDROOT
BRANCH   6  13
ATOM     12  N   UNL     1       5.971   0.175  -0.072  0.00  0.00    -0.242 NA
ATOM     13  C   UNL     1       3.213  -0.268   0.005  0.00  0.00    +0.003 C 
ATOM     14  C   UNL     1       4.070  -1.281  -0.409  0.00  0.00    +0.021 C 
ATOM     15  C   UNL     1       3.732   0.966   0.380  0.00  0.00    +0.021 C 
ATOM     16  C   UNL     1       5.429  -1.011  -0.429  0.00  0.00    +0.099 C 
ATOM     17  C   UNL     1       5.106   1.135   0.324  0.00  0.00    +0.099 C 
ENDBRANCH   6  13
BRANCH   9  19
ATOM     18  O   UNL     1      -5.542   0.752   0.284  0.00  0.00    -0.245 OA
ATOM     19  C   UNL     1      -4.789  -0.146  -0.050  0.00  0.00    +0.342 C 
BRANCH  19  20
ATOM     20  O   UNL     1      -5.163  -1.377  -0.460  0.00  0.00    -0.477 OA
ATOM     21  H   UNL     1      -4.514  -2.009  -0.699  0.00  0.00    +0.295 HD
ENDBRANCH  19  20
ENDBRANCH   9  19
BRANCH   2  22
ATOM     22  C   UNL     1      -0.919   2.773  -0.601  0.00  0.00    +0.096 C 
ATOM     23  C   UNL     1      -0.746   3.526   0.704  0.00  0.00    +0.024 C 
ENDBRANCH   2  22
TORSDOF 4
