REMARK  Name = 4740
REMARK  5 active torsions:
REMARK  status: ('A' for Active; 'I' for Inactive)
REMARK    1  A    between atoms: N_3  and  C_14
REMARK    2  A    between atoms: C_14  and  C_15
REMARK    3  A    between atoms: C_15  and  C_16
REMARK    4  A    between atoms: C_16  and  C_17
REMARK    5  A    between atoms: C_17  and  C_19
REMARK                            x       y       z     vdW  Elec       q    Type
REMARK                         _______ _______ _______ _____ _____    ______ ____
ROOT
ATOM      1  O   UNL     1       0.638   2.025   0.748  0.00  0.00    -0.272 OA
ATOM      2  O   UNL     1       0.241  -2.641   0.450  0.00  0.00    -0.252 OA
ATOM      3  N   UNL     1       0.415  -0.310   0.607  0.00  0.00    -0.212 N 
ATOM      4  N   UNL     1       2.277  -1.674  -0.129  0.00  0.00    -0.228 N 
ATOM      5  N   UNL     1       3.444   1.628  -0.208  0.00  0.00    -0.239 NA
ATOM      6  N   UNL     1       4.298  -0.379  -0.672  0.00  0.00    -0.240 NA
ATOM      7  C   UNL     1       2.450   0.724   0.034  0.00  0.00    +0.192 C 
ATOM      8  C   UNL     1       1.112   0.922   0.491  0.00  0.00    +0.254 C 
ATOM      9  C   UNL     1       2.998  -0.495  -0.258  0.00  0.00    +0.136 C 
ATOM     10  C   UNL     1       0.932  -1.625   0.316  0.00  0.00    +0.318 C 
ATOM     11  C   UNL     1       4.537   0.916  -0.631  0.00  0.00    +0.203 C 
ATOM     12  C   UNL     1       2.905  -2.949  -0.452  0.00  0.00    +0.123 C 
ATOM     13  C   UNL     1       3.385   3.062  -0.057  0.00  0.00    +0.092 C 
ENDROOT
BRANCH   3  14
ATOM     14  C   UNL     1      -0.968  -0.239   1.067  0.00  0.00    +0.103 C 
BRANCH  14  15
ATOM     15  C   UNL     1      -1.957  -0.087  -0.084  0.00  0.00    +0.022 C 
BRANCH  15  16
ATOM     16  C   UNL     1      -3.409   0.017   0.399  0.00  0.00    +0.010 C 
BRANCH  16  17
ATOM     17  C   UNL     1      -4.397   0.160  -0.757  0.00  0.00    +0.065 C 
BRANCH  17  19
ATOM     18  O   UNL     1      -6.193   0.206   0.863  0.00  0.00    -0.296 OA
ATOM     19  C   UNL     1      -5.848   0.262  -0.316  0.00  0.00    +0.151 C 
ATOM     20  C   UNL     1      -6.860   0.477  -1.411  0.00  0.00    +0.072 C 
ENDBRANCH  17  19
ENDBRANCH  16  17
ENDBRANCH  15  16
ENDBRANCH  14  15
ENDBRANCH   3  14
TORSDOF 5
