REMARK  Name = 6560168
REMARK  5 active torsions:
REMARK  status: ('A' for Active; 'I' for Inactive)
REMARK    1  A    between atoms: N_2  and  CA_9
REMARK    2  A    between atoms: C_3  and  CA_18
REMARK    3  A    between atoms: CA_11  and  C_17
REMARK    4  A    between atoms: CA_18  and  C_19
REMARK    5  A    between atoms: CA_18  and  N_25
REMARK                            x       y       z     vdW  Elec       q    Type
REMARK                         _______ _______ _______ _____ _____    ______ ____
ROOT
ATOM      1  O   UNL     1       2.130  -0.753   1.560  0.00  0.00    -0.277 OA
ATOM      2  N   UNL     1       0.399  -0.889   0.021  0.00  0.00    -0.298 N 
ATOM      3  C   UNL     1       1.741  -0.818   0.396  0.00  0.00    +0.206 C 
ATOM      4  H   UNL     1       0.180  -0.938  -0.938  0.00  0.00    +0.150 HD
ENDROOT
BRANCH   2   9
ATOM      5  S   UNL     1      -0.991   1.841   0.230  0.00  0.00    -0.114 S 
ATOM      6  O   UNL     1      -2.388  -2.591   0.057  0.00  0.00    -0.273 OA
ATOM      7  N   UNL     1      -2.575  -0.275   0.446  0.00  0.00    -0.242 N 
ATOM      8  C   UNL     1      -1.522   0.398   1.180  0.00  0.00    +0.155 C 
ATOM      9  CA  UNL     1      -0.697  -0.895   0.989  0.00  0.00    +0.178 C 
ATOM     10  C   UNL     1      -2.017  -1.504   0.432  0.00  0.00    +0.251 C 
ATOM     11  CA  UNL     1      -3.701   0.331  -0.008  0.00  0.00    +0.128 C 
ATOM     12  C   UNL     1      -2.642   2.620   0.282  0.00  0.00    +0.083 C 
ATOM     13  C   UNL     1      -3.795   1.680  -0.060  0.00  0.00    -0.013 C 
ATOM     14  C   UNL     1      -5.014   2.441  -0.527  0.00  0.00    +0.029 C 
BRANCH  11  17
ATOM     15  O   UNL     1      -4.790  -0.854  -1.717  0.00  0.00    -0.239 OA
ATOM     16  OXT UNL     1      -5.699  -0.837   0.383  0.00  0.00    -0.239 OA
ATOM     17  C   UNL     1      -4.849  -0.544  -0.498  0.00  0.00    +0.401 C 
ENDBRANCH  11  17
ENDBRANCH   2   9
BRANCH   3  18
ATOM     18  CA  UNL     1       2.691  -0.816  -0.791  0.00  0.00    +0.036 C 
BRANCH  18  19
ATOM     19  C   UNL     1       3.967  -0.067  -0.476  0.00  0.00    -0.034 C 
ATOM     20  C   UNL     1       4.036   1.291  -0.735  0.00  0.00    -0.006 C 
ATOM     21  C   UNL     1       5.040  -0.756   0.064  0.00  0.00    -0.006 C 
ATOM     22  C   UNL     1       5.213   1.981  -0.444  0.00  0.00    -0.000 C 
ATOM     23  C   UNL     1       6.216  -0.066   0.355  0.00  0.00    -0.000 C 
ATOM     24  C   UNL     1       6.303   1.303   0.101  0.00  0.00    -0.000 C 
ENDBRANCH  18  19
BRANCH  18  25
ATOM     25  N   UNL     1       2.940  -2.223  -1.238  0.00  0.00    +0.390 N 
ATOM     26  H1  UNL     1       2.050  -2.679  -1.436  0.00  0.00    -0.088 HD
ATOM     27  H2  UNL     1       3.426  -2.733  -0.500  0.00  0.00    -0.088 HD
ATOM     28  H3  UNL     1       3.514  -2.216  -2.081  0.00  0.00    -0.088 HD
ENDBRANCH  18  25
ENDBRANCH   3  18
TORSDOF 5
