REMARK  Name = 3291
REMARK  1 active torsions:
REMARK  status: ('A' for Active; 'I' for Inactive)
REMARK    1  A    between atoms: C_4  and  C_10
REMARK                            x       y       z     vdW  Elec       q    Type
REMARK                         _______ _______ _______ _____ _____    ______ ____
ROOT
ATOM      1  O   UNL     1      -0.204   2.336  -0.255  0.00  0.00    -0.275 OA
ATOM      2  O   UNL     1       2.748  -1.185  -0.075  0.00  0.00    -0.275 OA
ATOM      3  N   UNL     1       1.519   0.784  -0.182  0.00  0.00    -0.255 N 
ATOM      4  C   UNL     1      -0.641  -0.022   0.204  0.00  0.00    +0.078 C 
ATOM      5  C   UNL     1       0.331  -1.203   0.030  0.00  0.00    +0.094 C 
ATOM      6  C   UNL     1       0.211   1.194  -0.116  0.00  0.00    +0.228 C 
ATOM      7  C   UNL     1      -1.127   0.084   1.652  0.00  0.00    +0.010 C 
ATOM      8  C   UNL     1       1.691  -0.571  -0.067  0.00  0.00    +0.229 C 
ATOM      9  H   UNL     1       2.270   1.410  -0.303  0.00  0.00    +0.158 HD
ENDROOT
BRANCH   4  10
ATOM     10  C   UNL     1      -1.824  -0.114  -0.758  0.00  0.00    +0.009 C 
ATOM     11  C   UNL     1      -2.703  -1.304  -0.433  0.00  0.00    +0.001 C 
ENDBRANCH   4  10
TORSDOF 1
