REMARK  Name = 14677
REMARK  2 active torsions:
REMARK  status: ('A' for Active; 'I' for Inactive)
REMARK    1  A    between atoms: N_2  and  C_15
REMARK    2  A    between atoms: C_15  and  C_17
REMARK                            x       y       z     vdW  Elec       q    Type
REMARK                         _______ _______ _______ _____ _____    ______ ____
ROOT
ATOM      1  S   UNL     1       2.471   0.314   1.554  0.00  0.00    -0.084 S 
ATOM      2  N   UNL     1       0.336   0.004  -0.684  0.00  0.00    -0.286 N 
ATOM      3  C   UNL     1       1.129  -1.144  -0.427  0.00  0.00    +0.058 C 
ATOM      4  C   UNL     1       0.702   1.336  -0.363  0.00  0.00    +0.058 C 
ATOM      5  C   UNL     1       2.146  -1.120   0.548  0.00  0.00    +0.043 C 
ATOM      6  C   UNL     1       1.676   1.605   0.618  0.00  0.00    +0.043 C 
ATOM      7  C   UNL     1       0.964  -2.344  -1.152  0.00  0.00    +0.015 C 
ATOM      8  C   UNL     1       0.139   2.446  -1.029  0.00  0.00    +0.015 C 
ATOM      9  C   UNL     1       2.934  -2.258   0.794  0.00  0.00    +0.008 C 
ATOM     10  C   UNL     1       2.040   2.927   0.928  0.00  0.00    +0.008 C 
ATOM     11  C   UNL     1       1.754  -3.471  -0.907  0.00  0.00    +0.001 C 
ATOM     12  C   UNL     1       0.508   3.759  -0.722  0.00  0.00    +0.001 C 
ATOM     13  C   UNL     1       2.738  -3.429   0.069  0.00  0.00    +0.001 C 
ATOM     14  C   UNL     1       1.458   3.999   0.260  0.00  0.00    +0.001 C 
ENDROOT
BRANCH   2  15
ATOM     15  C   UNL     1      -0.931  -0.196  -1.399  0.00  0.00    +0.093 C 
BRANCH  15  17
ATOM     16  N   UNL     1      -3.667  -0.349   1.066  0.00  0.00    +0.386 N 
ATOM     17  C   UNL     1      -2.121   0.226  -0.554  0.00  0.00    -0.003 C 
ATOM     18  C   UNL     1      -3.467   0.041  -1.258  0.00  0.00    -0.023 C 
ATOM     19  C   UNL     1      -2.263  -0.586   0.729  0.00  0.00    -0.076 C 
ATOM     20  C   UNL     1      -4.401  -0.525  -0.190  0.00  0.00    -0.077 C 
ATOM     21  C   UNL     1      -4.145  -1.234   2.118  0.00  0.00    -0.101 C 
ATOM     22  H   UNL     1      -3.805   0.586   1.449  0.00  0.00    -0.080 HD
ENDBRANCH  15  17
ENDBRANCH   2  15
TORSDOF 2
