REMARK  Name = 1990
REMARK  1 active torsions:
REMARK  status: ('A' for Active; 'I' for Inactive)
REMARK    1  A    between atoms: N_2  and  O_6
REMARK                            x       y       z     vdW  Elec       q    Type
REMARK                         _______ _______ _______ _____ _____    ______ ____
ROOT
ATOM      1  O   UNL     1      -0.424   1.328   0.000  0.00  0.00    -0.273 OA
ATOM      2  N   UNL     1       0.674  -0.707  -0.003  0.00  0.00    -0.197 N 
ATOM      3  C   UNL     1      -0.434   0.098  -0.004  0.00  0.00    +0.245 C 
ATOM      4  C   UNL     1      -1.725  -0.676   0.003  0.00  0.00    +0.097 C 
ATOM      5  H   UNL     1       0.608  -1.689  -0.006  0.00  0.00    +0.182 HD
ENDROOT
BRANCH   2   6
ATOM      6  O   UNL     1       1.909  -0.043   0.003  0.00  0.00    -0.295 OA
ATOM      7  H   UNL     1       2.627  -0.696   0.003  0.00  0.00    +0.241 HD
ENDBRANCH   2   6
TORSDOF 1
