REMARK  Name = 3229
REMARK  3 active torsions:
REMARK  status: ('A' for Active; 'I' for Inactive)
REMARK    1  A    between atoms: N_3  and  C_25
REMARK    2  A    between atoms: C_12  and  C_22
REMARK    3  A    between atoms: C_22  and  O_23
REMARK                            x       y       z     vdW  Elec       q    Type
REMARK                         _______ _______ _______ _____ _____    ______ ____
ROOT
ATOM      1  F   UNL     1      -2.115   2.650  -0.462  0.00  0.00    -0.200 F 
ATOM      2  O   UNL     1       2.925   2.261  -0.353  0.00  0.00    -0.290 OA
ATOM      3  N   UNL     1       1.485  -1.479   0.331  0.00  0.00    -0.264 N 
ATOM      4  N   UNL     1      -0.790  -0.674   0.165  0.00  0.00    -0.373 NA
ATOM      5  C   UNL     1      -1.638   0.361  -0.034  0.00  0.00    +0.212 C 
ATOM      6  C   UNL     1       0.548  -0.433   0.130  0.00  0.00    +0.177 C 
ATOM      7  C   UNL     1       1.029   0.866  -0.107  0.00  0.00    +0.153 C 
ATOM      8  C   UNL     1      -1.234   1.660  -0.272  0.00  0.00    +0.180 C 
ATOM      9  C   UNL     1       0.128   1.915  -0.309  0.00  0.00    +0.023 C 
ATOM     10  C   UNL     1       2.489   1.136  -0.146  0.00  0.00    +0.192 C 
ATOM     11  C   UNL     1       2.839  -1.216   0.292  0.00  0.00    +0.076 C 
ATOM     12  C   UNL     1       3.396  -0.019   0.074  0.00  0.00    +0.126 C 
ATOM     13  N   UNL     1      -3.015   0.112   0.001  0.00  0.00    -0.286 N 
ATOM     14  N   UNL     1      -5.776  -0.568   0.256  0.00  0.00    +0.386 N 
ATOM     15  C   UNL     1      -3.488  -1.216  -0.416  0.00  0.00    +0.070 C 
ATOM     16  C   UNL     1      -3.855   0.807   0.982  0.00  0.00    +0.070 C 
ATOM     17  C   UNL     1      -4.964  -1.159  -0.807  0.00  0.00    -0.060 C 
ATOM     18  C   UNL     1      -5.319   0.790   0.542  0.00  0.00    -0.060 C 
ATOM     19  H   UNL     1      -5.692  -1.136   1.099  0.00  0.00    -0.084 HD
ATOM     20  H   UNL     1      -6.749  -0.537  -0.046  0.00  0.00    -0.084 HD
ENDROOT
BRANCH  12  22
ATOM     21  O   UNL     1       5.609  -0.813  -0.271  0.00  0.00    -0.245 OA
ATOM     22  C   UNL     1       4.855   0.083   0.067  0.00  0.00    +0.342 C 
BRANCH  22  23
ATOM     23  O   UNL     1       5.227   1.310   0.488  0.00  0.00    -0.477 OA
ATOM     24  H   UNL     1       4.576   1.940   0.730  0.00  0.00    +0.295 HD
ENDBRANCH  22  23
ENDBRANCH  12  22
BRANCH   3  25
ATOM     25  C   UNL     1       0.932  -2.806   0.572  0.00  0.00    +0.098 C 
ATOM     26  C   UNL     1       0.732  -3.567  -0.722  0.00  0.00    +0.024 C 
ENDBRANCH   3  25
TORSDOF 3
