REMARK  Name = 60815
REMARK  9 active torsions:
REMARK  status: ('A' for Active; 'I' for Inactive)
REMARK    1  A    between atoms: N_1  and  C_23
REMARK    2  A    between atoms: C_2  and  N_9
REMARK    3  A    between atoms: C_2  and  C_20
REMARK    4  A    between atoms: N_9  and  C_11
REMARK    5  A    between atoms: C_10  and  C_17
REMARK    6  A    between atoms: C_20  and  O_21
REMARK    7  A    between atoms: C_23  and  C_24
REMARK    8  A    between atoms: C_24  and  C_26
REMARK    9  A    between atoms: C_26  and  O_27
REMARK                            x       y       z     vdW  Elec       q    Type
REMARK                         _______ _______ _______ _____ _____    ______ ____
ROOT
ATOM      1  N   UNL     1       2.104   0.345  -0.467  0.00  0.00    +0.387 N 
ATOM      2  C   UNL     1      -0.775   0.607   0.053  0.00  0.00    +0.149 C 
ATOM      3  C   UNL     1       0.072  -0.518   0.655  0.00  0.00    +0.007 C 
ATOM      4  C   UNL     1      -0.109   1.178  -1.202  0.00  0.00    +0.007 C 
ATOM      5  C   UNL     1       1.543  -0.118   0.809  0.00  0.00    -0.075 C 
ATOM      6  C   UNL     1       1.369   1.511  -0.974  0.00  0.00    -0.075 C 
ATOM      7  H   UNL     1       2.008  -0.410  -1.147  0.00  0.00    -0.080 HD
ENDROOT
BRANCH   2   9
ATOM      8  O   UNL     1      -3.003   2.184  -1.048  0.00  0.00    -0.275 OA
ATOM      9  N   UNL     1      -2.111   0.142  -0.241  0.00  0.00    -0.252 N 
ATOM     10  C   UNL     1      -3.128   0.987  -0.776  0.00  0.00    +0.230 C 
BRANCH   9  11
ATOM     11  C   UNL     1      -2.435  -1.258   0.022  0.00  0.00    +0.054 C 
ATOM     12  C   UNL     1      -2.242  -2.217  -0.972  0.00  0.00    +0.015 C 
ATOM     13  C   UNL     1      -2.937  -1.635   1.268  0.00  0.00    +0.015 C 
ATOM     14  C   UNL     1      -2.551  -3.554  -0.721  0.00  0.00    +0.001 C 
ATOM     15  C   UNL     1      -3.246  -2.972   1.519  0.00  0.00    +0.001 C 
ATOM     16  C   UNL     1      -3.053  -3.931   0.524  0.00  0.00    +0.000 C 
ENDBRANCH   9  11
BRANCH  10  17
ATOM     17  C   UNL     1      -4.486   0.318  -0.972  0.00  0.00    +0.086 C 
ATOM     18  C   UNL     1      -5.528   1.258  -1.558  0.00  0.00    +0.010 C 
ENDBRANCH  10  17
ENDBRANCH   2   9
BRANCH   2  20
ATOM     19  O   UNL     1      -1.559   1.495   2.155  0.00  0.00    -0.248 OA
ATOM     20  C   UNL     1      -1.035   1.688   1.066  0.00  0.00    +0.333 C 
BRANCH  20  21
ATOM     21  O   UNL     1      -0.601   2.885   0.578  0.00  0.00    -0.443 OA
ATOM     22  C   UNL     1      -0.789   4.008   1.444  0.00  0.00    +0.256 C 
ENDBRANCH  20  21
ENDBRANCH   2  20
BRANCH   1  23
ATOM     23  C   UNL     1       3.524   0.662  -0.316  0.00  0.00    -0.066 C 
BRANCH  23  24
ATOM     24  C   UNL     1       4.356  -0.617  -0.317  0.00  0.00    +0.087 C 
BRANCH  24  26
ATOM     25  O   UNL     1       6.331   0.788  -0.115  0.00  0.00    -0.250 OA
ATOM     26  C   UNL     1       5.834  -0.327  -0.190  0.00  0.00    +0.315 C 
BRANCH  26  27
ATOM     27  O   UNL     1       6.517  -1.510  -0.172  0.00  0.00    -0.444 OA
ATOM     28  C   UNL     1       7.939  -1.400  -0.054  0.00  0.00    +0.256 C 
ENDBRANCH  26  27
ENDBRANCH  24  26
ENDBRANCH  23  24
ENDBRANCH   1  23
TORSDOF 9
