REMARK  Name = 4474
REMARK  11 active torsions:
REMARK  status: ('A' for Active; 'I' for Inactive)
REMARK    1  A    between atoms: C_2  and  C_10
REMARK    2  A    between atoms: C_3  and  C_20
REMARK    3  A    between atoms: C_4  and  C_35
REMARK    4  A    between atoms: C_13  and  N_18
REMARK    5  A    between atoms: C_20  and  O_21
REMARK    6  A    between atoms: O_21  and  C_22
REMARK    7  A    between atoms: C_22  and  C_23
REMARK    8  A    between atoms: C_23  and  N_24
REMARK    9  A    between atoms: N_24  and  C_27
REMARK   10  A    between atoms: C_27  and  C_28
REMARK   11  A    between atoms: C_35  and  O_36
REMARK                            x       y       z     vdW  Elec       q    Type
REMARK                         _______ _______ _______ _____ _____    ______ ____
ROOT
ATOM      1  N   UNL     1      -1.436   2.681  -0.826  0.00  0.00    -0.334 N 
ATOM      2  C   UNL     1      -2.210   0.475   0.775  0.00  0.00    +0.011 C 
ATOM      3  C   UNL     1      -0.975   1.336   1.066  0.00  0.00    +0.071 C 
ATOM      4  C   UNL     1      -3.067   1.028  -0.368  0.00  0.00    +0.085 C 
ATOM      5  C   UNL     1      -0.638   2.371   0.264  0.00  0.00    +0.098 C 
ATOM      6  C   UNL     1      -2.642   2.067  -1.123  0.00  0.00    +0.028 C 
ATOM      7  C   UNL     1       0.570   3.252   0.438  0.00  0.00    +0.026 C 
ATOM      8  C   UNL     1      -3.379   2.652  -2.297  0.00  0.00    +0.047 C 
ATOM      9  H   UNL     1      -1.122   3.389  -1.434  0.00  0.00    +0.147 HD
ENDROOT
BRANCH   2  10
ATOM     10  C   UNL     1      -1.790  -0.933   0.465  0.00  0.00    +0.002 C 
ATOM     11  C   UNL     1      -0.990  -1.194  -0.647  0.00  0.00    +0.024 C 
ATOM     12  C   UNL     1      -2.201  -1.981   1.289  0.00  0.00    +0.000 C 
ATOM     13  C   UNL     1      -0.600  -2.502  -0.934  0.00  0.00    +0.143 C 
ATOM     14  C   UNL     1      -1.812  -3.289   1.002  0.00  0.00    +0.002 C 
ATOM     15  C   UNL     1      -1.011  -3.550  -0.110  0.00  0.00    +0.024 C 
BRANCH  13  18
ATOM     16  O   UNL     1       0.555  -3.953  -2.306  0.00  0.00    -0.126 OA
ATOM     17  O   UNL     1       0.575  -1.813  -2.795  0.00  0.00    -0.126 OA
ATOM     18  N   UNL     1       0.216  -2.769  -2.066  0.00  0.00    +0.058 N 
ENDBRANCH  13  18
ENDBRANCH   2  10
BRANCH   3  20
ATOM     19  O   UNL     1      -0.723   1.011   3.400  0.00  0.00    -0.245 OA
ATOM     20  C   UNL     1      -0.223   1.016   2.290  0.00  0.00    +0.339 C 
BRANCH  20  21
ATOM     21  O   UNL     1       1.059   0.745   1.947  0.00  0.00    -0.448 OA
BRANCH  21  22
ATOM     22  C   UNL     1       1.923   0.412   3.038  0.00  0.00    +0.186 C 
BRANCH  22  23
ATOM     23  C   UNL     1       3.315   0.138   2.494  0.00  0.00    -0.029 C 
BRANCH  23  24
ATOM     24  N   UNL     1       3.292  -0.981   1.562  0.00  0.00    +0.391 N 
ATOM     25  C   UNL     1       3.236  -2.254   2.284  0.00  0.00    -0.100 C 
ATOM     26  H   UNL     1       2.452  -0.895   0.989  0.00  0.00    -0.079 HD
BRANCH  24  27
ATOM     27  C   UNL     1       4.463  -0.948   0.683  0.00  0.00    -0.050 C 
BRANCH  27  28
ATOM     28  C   UNL     1       4.318   0.081  -0.406  0.00  0.00    -0.043 C 
ATOM     29  C   UNL     1       5.449   0.710  -0.926  0.00  0.00    -0.006 C 
ATOM     30  C   UNL     1       3.052   0.406  -0.895  0.00  0.00    -0.006 C 
ATOM     31  C   UNL     1       5.315   1.664  -1.935  0.00  0.00    -0.000 C 
ATOM     32  C   UNL     1       2.918   1.360  -1.904  0.00  0.00    -0.000 C 
ATOM     33  C   UNL     1       4.050   1.988  -2.425  0.00  0.00    -0.000 C 
ENDBRANCH  27  28
ENDBRANCH  24  27
ENDBRANCH  23  24
ENDBRANCH  22  23
ENDBRANCH  21  22
ENDBRANCH  20  21
ENDBRANCH   3  20
BRANCH   4  35
ATOM     34  O   UNL     1      -4.731  -0.116  -1.609  0.00  0.00    -0.245 OA
ATOM     35  C   UNL     1      -4.386   0.405  -0.564  0.00  0.00    +0.342 C 
BRANCH  35  36
ATOM     36  O   UNL     1      -5.090   0.524   0.587  0.00  0.00    -0.441 OA
ATOM     37  C   UNL     1      -6.405  -0.039   0.555  0.00  0.00    +0.256 C 
ENDBRANCH  35  36
ENDBRANCH   4  35
TORSDOF 11
