REMARK  Name = 6322
REMARK  8 active torsions:
REMARK  status: ('A' for Active; 'I' for Inactive)
REMARK    1  A    between atoms: CB_1  and  CG_2
REMARK    2  A    between atoms: CB_1  and  CA_12
REMARK    3  A    between atoms: CG_2  and  CD_3
REMARK    4  A    between atoms: CD_3  and  NE_4
REMARK    5  A    between atoms: NE_4  and  CZ_7
REMARK    6  A    between atoms: CA_12  and  N_13
REMARK    7  A    between atoms: CA_12  and  C_18
REMARK    8  A    between atoms: C_18  and  O_19
REMARK                            x       y       z     vdW  Elec       q    Type
REMARK                         _______ _______ _______ _____ _____    ______ ____
ROOT
ATOM      1  CB  ARG A   1      -0.770   0.493  -0.870  0.00  0.00    -0.009 C 
ENDROOT
BRANCH   1   2
ATOM      2  CG  ARG A   1      -0.171   0.875   0.492  0.00  0.00    +0.025 C 
BRANCH   2   3
ATOM      3  CD  ARG A   1       1.345   1.033   0.437  0.00  0.00    +0.129 C 
BRANCH   3   4
ATOM      4  NE  ARG A   1       1.964  -0.236   0.050  0.00  0.00    -0.240 NA
BRANCH   4   7
ATOM      5  NH1 ARG A   1       3.918  -1.417  -0.350  0.00  0.00    -0.370 N 
ATOM      6  NH2 ARG A   1       4.137   0.763   0.281  0.00  0.00    -0.370 N 
ATOM      7  CZ  ARG A   1       3.260  -0.263   0.006  0.00  0.00    +0.189 C 
ATOM      8 HH11 ARG A   1       3.406  -2.227  -0.572  0.00  0.00    +0.159 HD
ATOM      9 HH12 ARG A   1       4.902  -1.432  -0.382  0.00  0.00    +0.159 HD
ATOM     10 HH21 ARG A   1       3.793   1.646   0.548  0.00  0.00    +0.159 HD
ATOM     11 HH22 ARG A   1       5.107   0.613   0.210  0.00  0.00    +0.159 HD
ENDBRANCH   4   7
ENDBRANCH   3   4
ENDBRANCH   2   3
ENDBRANCH   1   2
BRANCH   1  12
ATOM     12  CA  ARG A   1      -2.299   0.356  -0.813  0.00  0.00    +0.036 C 
BRANCH  12  13
ATOM     13  N   ARG A   1      -2.892   1.602  -0.334  0.00  0.00    +0.389 N 
ATOM     14  H1  ARG A   1      -2.623   2.367  -0.953  0.00  0.00    -0.088 HD
ATOM     15  H2  ARG A   1      -2.558   1.796   0.610  0.00  0.00    -0.088 HD
ATOM     16  H3  ARG A   1      -3.908   1.513  -0.324  0.00  0.00    -0.088 HD
ENDBRANCH  12  13
BRANCH  12  18
ATOM     17  OXT ARG A   1      -3.444  -0.531   1.147  0.00  0.00    -0.253 OA
ATOM     18  C   ARG A   1      -2.746  -0.721   0.159  0.00  0.00    +0.293 C 
BRANCH  18  19
ATOM     19  O   ARG A   1      -2.303  -1.954  -0.204  0.00  0.00    -0.482 OA
ATOM     20  H   ARG A   1      -1.770  -2.054  -0.968  0.00  0.00    +0.295 HD
ENDBRANCH  18  19
ENDBRANCH  12  18
ENDBRANCH   1  12
TORSDOF 8
