REMARK  Name = 35370
REMARK  3 active torsions:
REMARK  status: ('A' for Active; 'I' for Inactive)
REMARK    1  A    between atoms: N_3  and  C_13
REMARK    2  A    between atoms: C_15  and  C_16
REMARK    3  A    between atoms: C_16  and  O_17
REMARK                            x       y       z     vdW  Elec       q    Type
REMARK                         _______ _______ _______ _____ _____    ______ ____
ROOT
ATOM      1  O   UNL     1      -1.399  -2.837   0.445  0.00  0.00    -0.252 OA
ATOM      2  O   UNL     1      -5.000  -0.073  -0.295  0.00  0.00    -0.270 OA
ATOM      3  N   UNL     1      -0.990  -0.551   0.203  0.00  0.00    -0.219 N 
ATOM      4  N   UNL     1      -3.186  -1.447   0.075  0.00  0.00    -0.236 N 
ATOM      5  C   UNL     1      -1.548   0.705  -0.016  0.00  0.00    +0.071 C 
ATOM      6  C   UNL     1      -1.821  -1.694   0.255  0.00  0.00    +0.315 C 
ATOM      7  C   UNL     1      -2.855   0.938  -0.188  0.00  0.00    +0.047 C 
ATOM      8  C   UNL     1      -3.790  -0.218  -0.145  0.00  0.00    +0.250 C 
ATOM      9  C   UNL     1      -3.430   2.298  -0.422  0.00  0.00    +0.037 C 
ATOM     10  H   UNL     1      -3.782  -2.230   0.108  0.00  0.00    +0.159 HD
ENDROOT
BRANCH   3  13
ATOM     11  O   UNL     1       0.918   0.531   1.016  0.00  0.00    -0.337 OA
ATOM     12  C   UNL     1       2.491  -0.113  -0.649  0.00  0.00    +0.037 C 
ATOM     13  C   UNL     1       0.429  -0.652   0.371  0.00  0.00    +0.199 C 
ATOM     14  C   UNL     1       1.168  -0.778  -0.949  0.00  0.00    +0.054 C 
ATOM     15  C   UNL     1       2.108   0.980   0.341  0.00  0.00    +0.146 C 
BRANCH  15  16
ATOM     16  C   UNL     1       1.788   2.304  -0.343  0.00  0.00    +0.167 C 
BRANCH  16  17
ATOM     17  O   UNL     1       1.434   3.252   0.648  0.00  0.00    -0.379 OA
ATOM     18  H   UNL     1       1.228   4.100   0.226  0.00  0.00    +0.211 HD
ENDBRANCH  16  17
ENDBRANCH  15  16
ENDBRANCH   3  13
TORSDOF 3
REMARK  Name = 35370
REMARK  3 active torsions:
REMARK  status: ('A' for Active; 'I' for Inactive)
REMARK    1  A    between atoms: N_3  and  C_13
REMARK    2  A    between atoms: C_15  and  C_16
REMARK    3  A    between atoms: C_16  and  O_17
REMARK                            x       y       z     vdW  Elec       q    Type
REMARK                         _______ _______ _______ _____ _____    ______ ____
ROOT
ATOM      1  N   UNL     1       4.594  -0.873  -0.122  0.00  0.00    +0.000 NA
ATOM      2  N   UNL     1       5.714  -0.697  -0.246  0.00  0.00    +0.000 NA
ENDROOT
TORSDOF 0
