REMARK  Name = 5732
REMARK  3 active torsions:
REMARK  status: ('A' for Active; 'I' for Inactive)
REMARK    1  A    between atoms: C_3  and  C_18
REMARK    2  A    between atoms: C_4  and  C_11
REMARK    3  A    between atoms: C_18  and  C_21
REMARK                            x       y       z     vdW  Elec       q    Type
REMARK                         _______ _______ _______ _____ _____    ______ ____
ROOT
ATOM      1  N   UNL     1      -1.866   0.531   0.203  0.00  0.00    -0.256 N 
ATOM      2  N   UNL     1      -0.500   2.201  -0.385  0.00  0.00    -0.389 NA
ATOM      3  C   UNL     1      -0.587   0.065   0.372  0.00  0.00    +0.141 C 
ATOM      4  C   UNL     1       0.231   1.108   0.005  0.00  0.00    +0.129 C 
ATOM      5  C   UNL     1      -1.760   1.839  -0.260  0.00  0.00    +0.187 C 
ATOM      6  C   UNL     1      -3.079  -0.113   0.427  0.00  0.00    +0.063 C 
ATOM      7  C   UNL     1      -4.230   0.544   0.191  0.00  0.00    -0.007 C 
ATOM      8  C   UNL     1      -2.977   2.536  -0.510  0.00  0.00    +0.048 C 
ATOM      9  C   UNL     1      -4.156   1.921  -0.296  0.00  0.00    +0.001 C 
ATOM     10  C   UNL     1      -5.586  -0.051   0.398  0.00  0.00    +0.032 C 
ENDROOT
BRANCH   4  11
ATOM     11  C   UNL     1       1.661   1.078   0.018  0.00  0.00    +0.027 C 
ATOM     12  C   UNL     1       2.365   0.661  -1.115  0.00  0.00    +0.002 C 
ATOM     13  C   UNL     1       2.362   1.466   1.163  0.00  0.00    +0.002 C 
ATOM     14  C   UNL     1       4.455   1.020   0.042  0.00  0.00    -0.022 C 
ATOM     15  C   UNL     1       3.760   0.632  -1.103  0.00  0.00    -0.004 C 
ATOM     16  C   UNL     1       3.756   1.437   1.175  0.00  0.00    -0.004 C 
ATOM     17  C   UNL     1       5.946   0.989   0.055  0.00  0.00    +0.031 C 
ENDBRANCH   4  11
BRANCH   3  18
ATOM     18  C   UNL     1      -0.276  -1.296   0.855  0.00  0.00    +0.113 C 
BRANCH  18  21
ATOM     19  O   UNL     1      -0.355  -1.944  -1.458  0.00  0.00    -0.275 OA
ATOM     20  N   UNL     1       0.198  -3.617   0.047  0.00  0.00    -0.276 N 
ATOM     21  C   UNL     1      -0.151  -2.305  -0.296  0.00  0.00    +0.228 C 
ATOM     22  C   UNL     1       0.350  -4.674  -0.951  0.00  0.00    +0.115 C 
ATOM     23  C   UNL     1       0.437  -4.029   1.425  0.00  0.00    +0.115 C 
ENDBRANCH  18  21
ENDBRANCH   3  18
TORSDOF 3
