REMARK  Name = 150610
REMARK  10 active torsions:
REMARK  status: ('A' for Active; 'I' for Inactive)
REMARK    1  A    between atoms: C_2  and  S_22
REMARK    2  A    between atoms: C_5  and  C_10
REMARK    3  A    between atoms: N_9  and  C_12
REMARK    4  A    between atoms: C_15  and  C_19
REMARK    5  A    between atoms: C_19  and  O_20
REMARK    6  A    between atoms: S_22  and  C_29
REMARK    7  A    between atoms: C_26  and  C_36
REMARK    8  A    between atoms: C_30  and  C_33
REMARK    9  A    between atoms: C_33  and  O_34
REMARK   10  A    between atoms: C_36  and  O_38
REMARK                            x       y       z     vdW  Elec       q    Type
REMARK                         _______ _______ _______ _____ _____    ______ ____
ROOT
ATOM      1  N   UNL     1      -0.998  -1.452  -0.127  0.00  0.00    +0.391 N 
ATOM      2  C   UNL     1       0.638  -0.849   1.431  0.00  0.00    +0.029 C 
ATOM      3  C   UNL     1      -0.686  -0.857   2.189  0.00  0.00    -0.003 C 
ATOM      4  C   UNL     1       0.221  -0.636  -0.012  0.00  0.00    -0.070 C 
ATOM      5  C   UNL     1      -1.719  -1.268   1.141  0.00  0.00    +0.018 C 
ATOM      6  H   UNL     1      -0.757  -2.434  -0.260  0.00  0.00    -0.084 HD
ATOM      7  H   UNL     1      -1.565  -1.172  -0.927  0.00  0.00    -0.084 HD
ENDROOT
BRANCH   5  10
ATOM      8  O   UNL     1      -2.473   0.980   1.114  0.00  0.00    -0.277 OA
ATOM      9  N   UNL     1      -3.936  -0.740   0.454  0.00  0.00    -0.286 N 
ATOM     10  C   UNL     1      -2.739  -0.199   0.906  0.00  0.00    +0.206 C 
ATOM     11  H   UNL     1      -3.960  -1.719   0.350  0.00  0.00    +0.155 HD
BRANCH   9  12
ATOM     12  C   UNL     1      -5.125  -0.047   0.126  0.00  0.00    +0.050 C 
ATOM     13  C   UNL     1      -6.229  -0.762  -0.310  0.00  0.00    +0.021 C 
ATOM     14  C   UNL     1      -5.161   1.332   0.249  0.00  0.00    +0.015 C 
ATOM     15  C   UNL     1      -7.401  -0.077  -0.632  0.00  0.00    +0.077 C 
ATOM     16  C   UNL     1      -6.333   2.016  -0.073  0.00  0.00    +0.001 C 
ATOM     17  C   UNL     1      -7.453   1.311  -0.514  0.00  0.00    +0.007 C 
BRANCH  15  19
ATOM     18  O   UNL     1      -8.635  -2.037  -1.234  0.00  0.00    -0.245 OA
ATOM     19  C   UNL     1      -8.569  -0.811  -1.093  0.00  0.00    +0.338 C 
BRANCH  19  20
ATOM     20  O   UNL     1      -9.624   0.005  -1.363  0.00  0.00    -0.477 OA
ATOM     21  H   UNL     1      -9.542   0.931  -1.245  0.00  0.00    +0.295 HD
ENDBRANCH  19  20
ENDBRANCH  15  19
ENDBRANCH   9  12
ENDBRANCH   5  10
BRANCH   2  22
ATOM     22  S   UNL     1       1.788   0.425   2.014  0.00  0.00    -0.120 S 
BRANCH  22  29
ATOM     23  O   UNL     1       6.516   1.912  -0.668  0.00  0.00    -0.274 OA
ATOM     24  N   UNL     1       4.622   0.507  -0.667  0.00  0.00    -0.254 N 
ATOM     25  C   UNL     1       4.801  -0.922  -0.340  0.00  0.00    +0.095 C 
ATOM     26  C   UNL     1       6.332  -0.613  -0.320  0.00  0.00    +0.123 C 
ATOM     27  C   UNL     1       3.853  -1.151   0.856  0.00  0.00    +0.049 C 
ATOM     28  C   UNL     1       5.938   0.851  -0.614  0.00  0.00    +0.233 C 
ATOM     29  C   UNL     1       3.099   0.166   0.934  0.00  0.00    +0.024 C 
ATOM     30  C   UNL     1       3.611   1.052   0.070  0.00  0.00    +0.132 C 
ATOM     31  C   UNL     1       4.554  -1.548   2.144  0.00  0.00    +0.007 C 
BRANCH  30  33
ATOM     32  O   UNL     1       2.803   3.175   0.767  0.00  0.00    -0.244 OA
ATOM     33  C   UNL     1       3.237   2.450  -0.114  0.00  0.00    +0.352 C 
BRANCH  33  34
ATOM     34  O   UNL     1       3.442   2.815  -1.399  0.00  0.00    -0.476 OA
ATOM     35  H   UNL     1       3.780   2.193  -2.014  0.00  0.00    +0.295 HD
ENDBRANCH  33  34
ENDBRANCH  30  33
BRANCH  26  36
ATOM     36  C   UNL     1       7.294  -1.212  -1.314  0.00  0.00    +0.121 C 
ATOM     37  C   UNL     1       7.603  -2.668  -0.978  0.00  0.00    +0.032 C 
BRANCH  36  38
ATOM     38  O   UNL     1       6.729  -1.149  -2.624  0.00  0.00    -0.384 OA
ATOM     39  H   UNL     1       6.530  -0.226  -2.846  0.00  0.00    +0.210 HD
ENDBRANCH  36  38
ENDBRANCH  26  36
ENDBRANCH  22  29
ENDBRANCH   2  22
TORSDOF 10
