REMARK  Name = 124087
REMARK  0 active torsions:
REMARK  status: ('A' for Active; 'I' for Inactive)
REMARK                            x       y       z     vdW  Elec       q    Type
REMARK                         _______ _______ _______ _____ _____    ______ ____
ROOT
ATOM      1 CL   UNL     1       5.694   0.339  -0.223  0.00  0.00    -0.082 Cl
ATOM      2  N   UNL     1      -2.007  -3.860   0.698  0.00  0.00    +0.384 N 
ATOM      3  N   UNL     1      -2.101   0.997  -1.441  0.00  0.00    -0.244 NA
ATOM      4  C   UNL     1      -0.847  -1.431  -0.359  0.00  0.00    -0.047 C 
ATOM      5  C   UNL     1      -0.312  -0.202  -0.354  0.00  0.00    +0.009 C 
ATOM      6  C   UNL     1      -2.330  -1.677  -0.454  0.00  0.00    -0.001 C 
ATOM      7  C   UNL     1      -0.021  -2.683  -0.231  0.00  0.00    -0.001 C 
ATOM      8  C   UNL     1      -2.785  -2.615   0.667  0.00  0.00    -0.077 C 
ATOM      9  C   UNL     1      -0.578  -3.577   0.879  0.00  0.00    -0.077 C 
ATOM     10  C   UNL     1       1.164  -0.038  -0.257  0.00  0.00    -0.003 C 
ATOM     11  C   UNL     1      -1.275   0.917  -0.367  0.00  0.00    +0.077 C 
ATOM     12  C   UNL     1       1.082   1.935   1.456  0.00  0.00    +0.031 C 
ATOM     13  C   UNL     1       1.786   0.929   0.564  0.00  0.00    -0.021 C 
ATOM     14  C   UNL     1      -0.369   1.678   1.859  0.00  0.00    +0.033 C 
ATOM     15  C   UNL     1      -1.306   1.821   0.694  0.00  0.00    -0.004 C 
ATOM     16  C   UNL     1       1.980  -0.854  -1.073  0.00  0.00    +0.001 C 
ATOM     17  C   UNL     1       3.196   1.028   0.545  0.00  0.00    +0.007 C 
ATOM     18  C   UNL     1      -2.240   2.858   0.633  0.00  0.00    -0.001 C 
ATOM     19  C   UNL     1       3.371  -0.743  -1.066  0.00  0.00    +0.011 C 
ATOM     20  C   UNL     1       3.981   0.199  -0.253  0.00  0.00    +0.057 C 
ATOM     21  C   UNL     1      -3.096   2.963  -0.458  0.00  0.00    +0.020 C 
ATOM     22  C   UNL     1      -2.987   2.016  -1.459  0.00  0.00    +0.099 C 
ATOM     23  H   UNL     1      -2.140  -4.358  -0.182  0.00  0.00    -0.084 HD
ATOM     24  H   UNL     1      -2.330  -4.428   1.480  0.00  0.00    -0.084 HD
ENDROOT
TORSDOF 0
