5280360
  -OEChem-10051719253D

 57 57  0     1  0  0  0  0  0999 V2000
    4.0191   -2.6709   -0.5130 O   0  0  0  0  0  0  0  0  0  0  0  0
    4.1470    1.8261    0.8402 O   0  0  0  0  0  0  0  0  0  0  0  0
   -0.7521   -4.5658   -0.7371 O   0  0  0  0  0  0  0  0  0  0  0  0
   -3.0274    1.3856   -2.4518 O   0  0  0  0  0  0  0  0  0  0  0  0
   -0.7944    1.0297   -2.2638 O   0  0  0  0  0  0  0  0  0  0  0  0
    2.2990   -1.1145    0.1831 C   0  0  2  0  0  0  0  0  0  0  0  0
    2.2351    0.4108    0.3557 C   0  0  2  0  0  0  0  0  0  0  0  0
    3.5621   -1.3359   -0.6598 C   0  0  1  0  0  0  0  0  0  0  0  0
    4.5821   -0.3549   -0.0861 C   0  0  0  0  0  0  0  0  0  0  0  0
    3.7077    0.7602    0.4264 C   0  0  0  0  0  0  0  0  0  0  0  0
    1.4737    0.8455    1.5957 C   0  0  0  0  0  0  0  0  0  0  0  0
    1.0678   -1.6733   -0.4551 C   0  0  0  0  0  0  0  0  0  0  0  0
    0.2893   -2.6053    0.1139 C   0  0  0  0  0  0  0  0  0  0  0  0
    1.4303    2.3219    1.8873 C   0  0  0  0  0  0  0  0  0  0  0  0
   -0.9469   -3.1652   -0.5321 C   0  0  2  0  0  0  0  0  0  0  0  0
   -2.2022   -2.9973    0.3349 C   0  0  0  0  0  0  0  0  0  0  0  0
   -2.7616   -1.5717    0.3180 C   0  0  0  0  0  0  0  0  0  0  0  0
    0.5427    3.2126    1.4193 C   0  0  0  0  0  0  0  0  0  0  0  0
   -3.9674   -1.3814    1.2439 C   0  0  0  0  0  0  0  0  0  0  0  0
   -0.5862    2.8553    0.4969 C   0  0  0  0  0  0  0  0  0  0  0  0
   -4.5721    0.0215    1.1766 C   0  0  0  0  0  0  0  0  0  0  0  0
   -0.5354    3.5864   -0.8518 C   0  0  0  0  0  0  0  0  0  0  0  0
   -1.6960    3.2416   -1.7901 C   0  0  0  0  0  0  0  0  0  0  0  0
   -5.7570    0.1601    2.1208 C   0  0  0  0  0  0  0  0  0  0  0  0
   -1.7572    1.7787   -2.1722 C   0  0  0  0  0  0  0  0  0  0  0  0
    2.4501   -1.5941    1.1620 H   0  0  0  0  0  0  0  0  0  0  0  0
    1.8299    0.8924   -0.5439 H   0  0  0  0  0  0  0  0  0  0  0  0
    3.3807   -1.1349   -1.7230 H   0  0  0  0  0  0  0  0  0  0  0  0
    5.1525   -0.7873    0.7412 H   0  0  0  0  0  0  0  0  0  0  0  0
    5.2615    0.0090   -0.8608 H   0  0  0  0  0  0  0  0  0  0  0  0
    0.4546    0.4422    1.5680 H   0  0  0  0  0  0  0  0  0  0  0  0
    1.9270    0.3732    2.4791 H   0  0  0  0  0  0  0  0  0  0  0  0
    0.8013   -1.2912   -1.4378 H   0  0  0  0  0  0  0  0  0  0  0  0
    0.5542   -2.9962    1.0935 H   0  0  0  0  0  0  0  0  0  0  0  0
    4.8600   -2.7449   -0.9959 H   0  0  0  0  0  0  0  0  0  0  0  0
    2.2072    2.6969    2.5511 H   0  0  0  0  0  0  0  0  0  0  0  0
   -1.1221   -2.7201   -1.5186 H   0  0  0  0  0  0  0  0  0  0  0  0
   -1.9894   -3.3058    1.3671 H   0  0  0  0  0  0  0  0  0  0  0  0
   -2.9797   -3.6862   -0.0212 H   0  0  0  0  0  0  0  0  0  0  0  0
   -3.0503   -1.3134   -0.7082 H   0  0  0  0  0  0  0  0  0  0  0  0
   -1.9785   -0.8629    0.6134 H   0  0  0  0  0  0  0  0  0  0  0  0
    0.6332    4.2526    1.7215 H   0  0  0  0  0  0  0  0  0  0  0  0
   -3.6622   -1.5968    2.2755 H   0  0  0  0  0  0  0  0  0  0  0  0
   -4.7380   -2.1172    0.9821 H   0  0  0  0  0  0  0  0  0  0  0  0
   -0.6407    1.7783    0.3196 H   0  0  0  0  0  0  0  0  0  0  0  0
   -1.5230    3.1206    1.0038 H   0  0  0  0  0  0  0  0  0  0  0  0
    0.0166   -4.6742   -1.3233 H   0  0  0  0  0  0  0  0  0  0  0  0
   -3.8112    0.7660    1.4381 H   0  0  0  0  0  0  0  0  0  0  0  0
   -4.8977    0.2364    0.1523 H   0  0  0  0  0  0  0  0  0  0  0  0
   -0.5368    4.6699   -0.6788 H   0  0  0  0  0  0  0  0  0  0  0  0
    0.4129    3.3489   -1.3512 H   0  0  0  0  0  0  0  0  0  0  0  0
   -2.6374    3.5141   -1.2986 H   0  0  0  0  0  0  0  0  0  0  0  0
   -1.6143    3.8236   -2.7143 H   0  0  0  0  0  0  0  0  0  0  0  0
   -6.5480   -0.5519    1.8649 H   0  0  0  0  0  0  0  0  0  0  0  0
   -5.4552   -0.0186    3.1578 H   0  0  0  0  0  0  0  0  0  0  0  0
   -6.1750    1.1696    2.0577 H   0  0  0  0  0  0  0  0  0  0  0  0
   -3.0679    0.4414   -2.7148 H   0  0  0  0  0  0  0  0  0  0  0  0
  1  8  1  0  0  0  0
  1 35  1  0  0  0  0
  2 10  2  0  0  0  0
  3 15  1  0  0  0  0
  3 47  1  0  0  0  0
  4 25  1  0  0  0  0
  4 57  1  0  0  0  0
  5 25  2  0  0  0  0
  6  7  1  0  0  0  0
  6  8  1  0  0  0  0
  6 12  1  0  0  0  0
  6 26  1  0  0  0  0
  7 10  1  0  0  0  0
  7 11  1  0  0  0  0
  7 27  1  0  0  0  0
  8  9  1  0  0  0  0
  8 28  1  0  0  0  0
  9 10  1  0  0  0  0
  9 29  1  0  0  0  0
  9 30  1  0  0  0  0
 11 14  1  0  0  0  0
 11 31  1  0  0  0  0
 11 32  1  0  0  0  0
 12 13  2  0  0  0  0
 12 33  1  0  0  0  0
 13 15  1  0  0  0  0
 13 34  1  0  0  0  0
 14 18  2  0  0  0  0
 14 36  1  0  0  0  0
 15 16  1  0  0  0  0
 15 37  1  0  0  0  0
 16 17  1  0  0  0  0
 16 38  1  0  0  0  0
 16 39  1  0  0  0  0
 17 19  1  0  0  0  0
 17 40  1  0  0  0  0
 17 41  1  0  0  0  0
 18 20  1  0  0  0  0
 18 42  1  0  0  0  0
 19 21  1  0  0  0  0
 19 43  1  0  0  0  0
 19 44  1  0  0  0  0
 20 22  1  0  0  0  0
 20 45  1  0  0  0  0
 20 46  1  0  0  0  0
 21 24  1  0  0  0  0
 21 48  1  0  0  0  0
 21 49  1  0  0  0  0
 22 23  1  0  0  0  0
 22 50  1  0  0  0  0
 22 51  1  0  0  0  0
 23 25  1  0  0  0  0
 23 52  1  0  0  0  0
 23 53  1  0  0  0  0
 24 54  1  0  0  0  0
 24 55  1  0  0  0  0
 24 56  1  0  0  0  0
M  END
> <DATABASE_ID>
DB00917

> <DATABASE_NAME>
drugbank

> <ORIGINAL_SOURCE>
PUBCHEM

> <ORIGINAL_SOURCE_URL>
https://pubchem.ncbi.nlm.nih.gov/rest/pug/compound/inchikey/XEYBRNLFEZDVAW-ARSRFYASSA-N/SDF?record_type=3d

> <SMILES>
CCCCC[C@H](O)\C=C\[C@H]1[C@H](O)CC(=O)[C@@H]1C\C=C/CCCC(O)=O

> <INCHI_IDENTIFIER>
InChI=1S/C20H32O5/c1-2-3-6-9-15(21)12-13-17-16(18(22)14-19(17)23)10-7-4-5-8-11-20(24)25/h4,7,12-13,15-17,19,21,23H,2-3,5-6,8-11,14H2,1H3,(H,24,25)/b7-4-,13-12+/t15-,16+,17+,19+/m0/s1

> <INCHI_KEY>
XEYBRNLFEZDVAW-ARSRFYASSA-N

> <FORMULA>
C20H32O5

> <MOLECULAR_WEIGHT>
352.4651

> <EXACT_MASS>
352.224974134

> <JCHEM_ACCEPTOR_COUNT>
5

> <JCHEM_AVERAGE_POLARIZABILITY>
40.99510239904402

> <JCHEM_BIOAVAILABILITY>
1

> <JCHEM_DONOR_COUNT>
3

> <JCHEM_FORMAL_CHARGE>
0

> <JCHEM_GHOSE_FILTER>
1

> <JCHEM_IUPAC>
(5Z)-7-[(1R,2R,3R)-3-hydroxy-2-[(1E,3S)-3-hydroxyoct-1-en-1-yl]-5-oxocyclopentyl]hept-5-enoic acid

> <ALOGPS_LOGP>
3.31

> <JCHEM_LOGP>
3.2252701369999994

> <ALOGPS_LOGS>
-3.90

> <JCHEM_MDDR_LIKE_RULE>
0

> <JCHEM_NUMBER_OF_RINGS>
1

> <JCHEM_PHYSIOLOGICAL_CHARGE>
-1

> <JCHEM_PKA>
14.678908140463108

> <JCHEM_PKA_STRONGEST_ACIDIC>
4.303359525644919

> <JCHEM_PKA_STRONGEST_BASIC>
-1.6263175986188916

> <JCHEM_POLAR_SURFACE_AREA>
94.83000000000001

> <JCHEM_REFRACTIVITY>
99.43509999999999

> <JCHEM_ROTATABLE_BOND_COUNT>
12

> <JCHEM_RULE_OF_FIVE>
1

> <ALOGPS_SOLUBILITY>
4.40e-02 g/l

> <JCHEM_TRADITIONAL_IUPAC>
dinoprostone

> <JCHEM_VEBER_RULE>
0

> <DRUGBANK_ID>
DB00917

> <SECONDARY_ACCESSION_NUMBERS>
APRD00927

> <DRUG_GROUPS>
approved

> <GENERIC_NAME>
Dinoprostone

> <SYNONYMS>
(15S)-prostaglandin E2; (5Z,11Î±,13E,15S)-11,15-dihydroxy-9-oxoprosta-5,13-dien-1-oic acid; (5Z,13E)-(15S)-11alpha,15-Dihydroxy-9-oxoprost-13-enoate; (5Z,13E)-(15S)-11alpha,15-Dihydroxy-9-oxoprosta-5,13-dienoate; (E,Z)-(1R,2R,3R)-7-(3-Hydroxy-2-((3S)-(3-hydroxy-1-octenyl))-5-oxocyclopentyl)-5-heptenoic acid; (Z)-7-((1R,2R,3R)-3-hydroxy-2-((S,E)-3-hydroxyoct-1-enyl)-5-oxocyclopentyl)hept-5-enoic acid; Dinoproston; Dinoprostona; Dinoprostone; Dinoprostone Prostaglandin E2; Dinoprostonum; PGE2; Prostaglandin E2

> <PRODUCTS>
Cervidil; Dinoprostone; Prepidil; Prepidil Gel; Prostin E2; Prostin E2 Tablets; Prostin E2 Vaginal Gel

> <INTERNATIONAL_BRANDS>
Propess; Prostarmon E; PROSTIN

$$$$
