REMARK  Name = 34040
REMARK  5 active torsions:
REMARK  status: ('A' for Active; 'I' for Inactive)
REMARK    1  A    between atoms: C_3  and  O_20
REMARK    2  A    between atoms: C_6  and  C_22
REMARK    3  A    between atoms: C_22  and  O_23
REMARK    4  A    between atoms: O_23  and  C_25
REMARK    5  A    between atoms: C_25  and  C_28
REMARK                            x       y       z     vdW  Elec       q    Type
REMARK                         _______ _______ _______ _____ _____    ______ ____
ROOT
ATOM      1  N   UNL     1       1.581   3.039  -0.587  0.00  0.00    +0.389 N 
ATOM      2  N   UNL     1       5.560  -1.378   0.367  0.00  0.00    -0.284 N 
ATOM      3  C   UNL     1       1.363   0.535  -0.319  0.00  0.00    +0.095 C 
ATOM      4  C   UNL     1       2.269   1.825  -0.077  0.00  0.00    -0.024 C 
ATOM      5  C   UNL     1      -0.023   0.737   0.315  0.00  0.00    +0.031 C 
ATOM      6  C   UNL     1      -0.665   2.048  -0.153  0.00  0.00    +0.026 C 
ATOM      7  C   UNL     1       3.720   1.660  -0.678  0.00  0.00    +0.010 C 
ATOM      8  C   UNL     1       2.075  -0.713   0.180  0.00  0.00    +0.001 C 
ATOM      9  C   UNL     1       0.283   3.229   0.084  0.00  0.00    -0.073 C 
ATOM     10  C   UNL     1       3.476  -0.696   0.150  0.00  0.00    +0.009 C 
ATOM     11  C   UNL     1       4.318   0.365  -0.240  0.00  0.00    -0.008 C 
ATOM     12  C   UNL     1       4.251  -1.776   0.531  0.00  0.00    +0.051 C 
ATOM     13  C   UNL     1       2.381   4.258  -0.428  0.00  0.00    -0.100 C 
ATOM     14  C   UNL     1       1.484  -1.910   0.606  0.00  0.00    -0.002 C 
ATOM     15  C   UNL     1       5.611  -0.081  -0.102  0.00  0.00    +0.061 C 
ATOM     16  C   UNL     1       3.671  -2.965   0.971  0.00  0.00    +0.015 C 
ATOM     17  C   UNL     1       2.268  -3.007   0.998  0.00  0.00    +0.001 C 
ATOM     18  C   UNL     1       6.724  -2.192   0.643  0.00  0.00    +0.117 C 
ATOM     19  H   UNL     1       1.441   2.882  -1.585  0.00  0.00    -0.080 HD
ENDROOT
BRANCH   3  20
ATOM     20  O   UNL     1       1.200   0.376  -1.736  0.00  0.00    -0.354 OA
ATOM     21  C   UNL     1       0.431  -0.776  -2.034  0.00  0.00    +0.174 C 
ENDBRANCH   3  20
BRANCH   6  22
ATOM     22  C   UNL     1      -1.998   2.275   0.560  0.00  0.00    +0.207 C 
BRANCH  22  23
ATOM     23  O   UNL     1      -2.861   1.199   0.247  0.00  0.00    -0.445 OA
BRANCH  23  25
ATOM     24  O   UNL     1      -4.529   2.118   1.541  0.00  0.00    -0.245 OA
ATOM     25  C   UNL     1      -4.106   1.240   0.805  0.00  0.00    +0.343 C 
BRANCH  25  28
ATOM     26 BR   UNL     1      -4.467  -3.323  -1.929  0.00  0.00    -0.047 Br
ATOM     27  N   UNL     1      -6.978  -1.131   0.532  0.00  0.00    -0.242 NA
ATOM     28  C   UNL     1      -4.909   0.058   0.402  0.00  0.00    +0.095 C 
ATOM     29  C   UNL     1      -4.365  -0.890  -0.430  0.00  0.00    +0.016 C 
ATOM     30  C   UNL     1      -6.192  -0.082   0.861  0.00  0.00    +0.105 C 
ATOM     31  C   UNL     1      -5.143  -1.984  -0.791  0.00  0.00    +0.054 C 
ATOM     32  C   UNL     1      -6.432  -2.058  -0.288  0.00  0.00    +0.106 C 
ENDBRANCH  25  28
ENDBRANCH  23  25
ENDBRANCH  22  23
ENDBRANCH   6  22
TORSDOF 5
