REMARK  Name = 2883
REMARK  3 active torsions:
REMARK  status: ('A' for Active; 'I' for Inactive)
REMARK    1  A    between atoms: N_2  and  C_4
REMARK    2  A    between atoms: N_2  and  C_14
REMARK    3  A    between atoms: C_3  and  C_11
REMARK                            x       y       z     vdW  Elec       q    Type
REMARK                         _______ _______ _______ _____ _____    ______ ____
ROOT
ATOM      1  O   UNL     1      -2.602  -1.308  -0.435  0.00  0.00    -0.270 OA
ATOM      2  N   UNL     1      -0.292  -1.104  -0.055  0.00  0.00    -0.255 N 
ATOM      3  C   UNL     1      -1.604  -0.619  -0.227  0.00  0.00    +0.253 C 
ENDROOT
BRANCH   2   4
ATOM      4  C   UNL     1       0.835  -0.201   0.100  0.00  0.00    +0.050 C 
ATOM      5  C   UNL     1       1.506   0.217  -1.016  0.00  0.00    -0.008 C 
ATOM      6  C   UNL     1       1.159   0.179   1.375  0.00  0.00    +0.015 C 
ATOM      7  C   UNL     1       2.585   1.083  -0.845  0.00  0.00    -0.003 C 
ATOM      8  C   UNL     1       1.136  -0.211  -2.399  0.00  0.00    +0.032 C 
ATOM      9  C   UNL     1       2.238   1.046   1.545  0.00  0.00    +0.001 C 
ATOM     10  C   UNL     1       2.951   1.498   0.435  0.00  0.00    -0.000 C 
ENDBRANCH   2   4
BRANCH   3  11
ATOM     11  C   UNL     1      -1.754   0.866  -0.158  0.00  0.00    +0.054 C 
ATOM     12  C   UNL     1      -2.914   1.407   0.237  0.00  0.00    -0.021 C 
ATOM     13  C   UNL     1      -3.153   2.880   0.303  0.00  0.00    +0.031 C 
ENDBRANCH   3  11
BRANCH   2  14
ATOM     14  C   UNL     1       0.008  -2.545  -0.114  0.00  0.00    +0.099 C 
ATOM     15  C   UNL     1      -0.098  -3.189   1.253  0.00  0.00    +0.024 C 
ENDBRANCH   2  14
TORSDOF 3
