REMARK  Name = 3516
REMARK  7 active torsions:
REMARK  status: ('A' for Active; 'I' for Inactive)
REMARK    1  A    between atoms: O_1  and  C_2
REMARK    2  A    between atoms: O_1  and  C_10
REMARK    3  A    between atoms: C_3  and  O_8
REMARK    4  A    between atoms: C_10  and  C_11
REMARK    5  A    between atoms: C_11  and  O_12
REMARK    6  A    between atoms: C_11  and  C_14
REMARK    7  A    between atoms: C_14  and  O_15
REMARK                            x       y       z     vdW  Elec       q    Type
REMARK                         _______ _______ _______ _____ _____    ______ ____
ROOT
ATOM      1  O   UNL     1      -0.603  -0.242  -0.473  0.00  0.00    -0.470 OA
ENDROOT
BRANCH   1   2
ATOM      2  C   UNL     1       0.735  -0.432  -0.252  0.00  0.00    +0.172 C 
ATOM      3  C   UNL     1       1.582   0.661  -0.095  0.00  0.00    +0.172 C 
ATOM      4  C   UNL     1       1.235  -1.728  -0.186  0.00  0.00    +0.040 C 
ATOM      5  C   UNL     1       2.943   0.455   0.130  0.00  0.00    +0.040 C 
ATOM      6  C   UNL     1       2.596  -1.934   0.038  0.00  0.00    +0.003 C 
ATOM      7  C   UNL     1       3.450  -0.843   0.197  0.00  0.00    +0.003 C 
BRANCH   3   8
ATOM      8  O   UNL     1       1.098   1.933  -0.160  0.00  0.00    -0.468 OA
ATOM      9  C   UNL     1       2.037   2.993   0.012  0.00  0.00    +0.253 C 
ENDBRANCH   3   8
ENDBRANCH   1   2
BRANCH   1  10
ATOM     10  C   UNL     1      -1.481  -1.253   0.010  0.00  0.00    +0.237 C 
BRANCH  10  11
ATOM     11  C   UNL     1      -2.812  -0.631   0.419  0.00  0.00    +0.183 C 
BRANCH  11  12
ATOM     12  O   UNL     1      -2.568   0.345   1.435  0.00  0.00    -0.378 OA
ATOM     13  H   UNL     1      -2.140  -0.079   2.195  0.00  0.00    +0.211 HD
ENDBRANCH  11  12
BRANCH  11  14
ATOM     14  C   UNL     1      -3.483   0.070  -0.755  0.00  0.00    +0.170 C 
BRANCH  14  15
ATOM     15  O   UNL     1      -4.729   0.606  -0.322  0.00  0.00    -0.379 OA
ATOM     16  H   UNL     1      -5.163   1.055  -1.064  0.00  0.00    +0.211 HD
ENDBRANCH  14  15
ENDBRANCH  11  14
ENDBRANCH  10  11
ENDBRANCH   1  10
TORSDOF 7
