REMARK  Name = 5284569
REMARK  1 active torsions:
REMARK  status: ('A' for Active; 'I' for Inactive)
REMARK    1  A    between atoms: C_19  and  O_22
REMARK                            x       y       z     vdW  Elec       q    Type
REMARK                         _______ _______ _______ _____ _____    ______ ____
ROOT
ATOM      1  O   UNL     1      -1.560  -1.040   1.244  0.00  0.00    -0.469 OA
ATOM      2  O   UNL     1      -1.602  -3.246  -0.337  0.00  0.00    -0.292 OA
ATOM      3  N   UNL     1       3.212   0.912   0.487  0.00  0.00    +0.387 N 
ATOM      4  C   UNL     1       0.751  -0.623   0.666  0.00  0.00    +0.061 C 
ATOM      5  C   UNL     1       1.868  -0.953  -0.332  0.00  0.00    -0.011 C 
ATOM      6  C   UNL     1       2.537   0.399  -0.730  0.00  0.00    -0.053 C 
ATOM      7  C   UNL     1      -0.287  -1.709   0.986  0.00  0.00    +0.226 C 
ATOM      8  C   UNL     1       1.392  -0.015   1.932  0.00  0.00    -0.015 C 
ATOM      9  C   UNL     1      -0.191   0.357   0.062  0.00  0.00    +0.014 C 
ATOM     10  C   UNL     1       1.369  -1.787  -1.519  0.00  0.00    +0.006 C 
ATOM     11  C   UNL     1       1.529   1.400  -1.397  0.00  0.00    +0.005 C 
ATOM     12  C   UNL     1       2.308   1.180   1.611  0.00  0.00    -0.077 C 
ATOM     13  C   UNL     1       0.129   1.349  -0.844  0.00  0.00    -0.025 C 
ATOM     14  C   UNL     1       0.681  -3.051  -1.018  0.00  0.00    +0.068 C 
ATOM     15  C   UNL     1      -0.513  -2.700  -0.159  0.00  0.00    +0.191 C 
ATOM     16  C   UNL     1      -1.480   0.104   0.484  0.00  0.00    +0.168 C 
ATOM     17  C   UNL     1       4.095   2.044   0.230  0.00  0.00    -0.101 C 
ATOM     18  C   UNL     1      -0.911   2.180  -1.259  0.00  0.00    -0.001 C 
ATOM     19  C   UNL     1      -2.519   0.919   0.098  0.00  0.00    +0.172 C 
ATOM     20  C   UNL     1      -2.222   1.976  -0.775  0.00  0.00    +0.040 C 
ATOM     21  H   UNL     1       3.803   0.134   0.780  0.00  0.00    -0.080 HD
ENDROOT
BRANCH  19  22
ATOM     22  O   UNL     1      -3.790   0.699   0.514  0.00  0.00    -0.468 OA
ATOM     23  C   UNL     1      -4.796   1.604   0.056  0.00  0.00    +0.253 C 
ENDBRANCH  19  22
TORSDOF 1
