REMARK  Name = 4086
REMARK  7 active torsions:
REMARK  status: ('A' for Active; 'I' for Inactive)
REMARK    1  A    between atoms: C_1  and  C_2
REMARK    2  A    between atoms: C_1  and  O_12
REMARK    3  A    between atoms: C_1  and  C_14
REMARK    4  A    between atoms: C_5  and  O_8
REMARK    5  A    between atoms: C_6  and  O_10
REMARK    6  A    between atoms: C_14  and  N_15
REMARK    7  A    between atoms: N_15  and  C_18
REMARK                            x       y       z     vdW  Elec       q    Type
REMARK                         _______ _______ _______ _____ _____    ______ ____
ROOT
ATOM      1  C   UNL     1      -0.581   0.850  -0.639  0.00  0.00    +0.112 C 
ENDROOT
BRANCH   1   2
ATOM      2  C   UNL     1       0.817   0.391  -0.286  0.00  0.00    +0.008 C 
ATOM      3  C   UNL     1       1.758   1.328   0.102  0.00  0.00    +0.035 C 
ATOM      4  C   UNL     1       1.124  -0.957  -0.360  0.00  0.00    +0.035 C 
ATOM      5  C   UNL     1       2.413  -1.380  -0.035  0.00  0.00    +0.136 C 
ATOM      6  C   UNL     1       3.047   0.905   0.427  0.00  0.00    +0.136 C 
ATOM      7  C   UNL     1       3.374  -0.450   0.358  0.00  0.00    +0.073 C 
BRANCH   5   8
ATOM      8  O   UNL     1       2.732  -2.702  -0.102  0.00  0.00    -0.505 OA
ATOM      9  H   UNL     1       2.087  -3.327  -0.367  0.00  0.00    +0.292 HD
ENDBRANCH   5   8
BRANCH   6  10
ATOM     10  O   UNL     1       3.985   1.813   0.813  0.00  0.00    -0.505 OA
ATOM     11  H   UNL     1       3.765   2.723   0.859  0.00  0.00    +0.292 HD
ENDBRANCH   6  10
ENDBRANCH   1   2
BRANCH   1  12
ATOM     12  O   UNL     1      -0.813   0.557  -2.016  0.00  0.00    -0.382 OA
ATOM     13  H   UNL     1      -1.706   0.845  -2.262  0.00  0.00    +0.211 HD
ENDBRANCH   1  12
BRANCH   1  14
ATOM     14  C   UNL     1      -1.636   0.161   0.236  0.00  0.00    -0.047 C 
BRANCH  14  15
ATOM     15  N   UNL     1      -2.974   0.612  -0.114  0.00  0.00    +0.387 N 
ATOM     16  H   UNL     1      -3.155   0.393  -1.094  0.00  0.00    -0.084 HD
ATOM     17  H   UNL     1      -3.030   1.619   0.040  0.00  0.00    -0.084 HD
BRANCH  15  18
ATOM     18  C   UNL     1      -3.978  -0.048   0.719  0.00  0.00    -0.062 C 
ATOM     19  C   UNL     1      -3.906  -1.561   0.534  0.00  0.00    -0.023 C 
ATOM     20  C   UNL     1      -5.362   0.483   0.362  0.00  0.00    -0.023 C 
ENDBRANCH  15  18
ENDBRANCH  14  15
ENDBRANCH   1  14
TORSDOF 7
