REMARK  Name = 3117
REMARK  9 active torsions:
REMARK  status: ('A' for Active; 'I' for Inactive)
REMARK    1  A    between atoms: S_1  and  C_3
REMARK    2  A    between atoms: S_1  and  S_9
REMARK    3  A    between atoms: C_3  and  N_4
REMARK    4  A    between atoms: N_4  and  C_5
REMARK    5  A    between atoms: N_4  and  C_7
REMARK    6  A    between atoms: S_9  and  C_11
REMARK    7  A    between atoms: C_11  and  N_12
REMARK    8  A    between atoms: N_12  and  C_13
REMARK    9  A    between atoms: N_12  and  C_15
REMARK                            x       y       z     vdW  Elec       q    Type
REMARK                         _______ _______ _______ _____ _____    ______ ____
ROOT
ATOM      1  S   UNL     1       0.437   1.214   1.288  0.00  0.00    -0.027 S 
ENDROOT
BRANCH   1   3
ATOM      2  S   UNL     1       2.563   2.531  -0.325  0.00  0.00    -0.027 S 
ATOM      3  C   UNL     1       1.946   1.111   0.356  0.00  0.00    +0.121 C 
BRANCH   3   4
ATOM      4  N   UNL     1       2.543  -0.163   0.270  0.00  0.00    -0.297 N 
BRANCH   4   5
ATOM      5  C   UNL     1       3.801  -0.438  -0.431  0.00  0.00    +0.092 C 
ATOM      6  C   UNL     1       3.558  -0.837  -1.872  0.00  0.00    +0.023 C 
ENDBRANCH   4   5
BRANCH   4   7
ATOM      7  C   UNL     1       1.937  -1.354   0.870  0.00  0.00    +0.092 C 
ATOM      8  C   UNL     1       2.436  -1.580   2.282  0.00  0.00    +0.023 C 
ENDBRANCH   4   7
ENDBRANCH   3   4
ENDBRANCH   1   3
BRANCH   1   9
ATOM      9  S   UNL     1      -0.885   1.894  -0.141  0.00  0.00    -0.027 S 
BRANCH   9  11
ATOM     10  S   UNL     1      -0.649  -0.323  -2.112  0.00  0.00    -0.027 S 
ATOM     11  C   UNL     1      -1.492   0.367  -0.819  0.00  0.00    +0.121 C 
BRANCH  11  12
ATOM     12  N   UNL     1      -2.636  -0.181  -0.203  0.00  0.00    -0.297 N 
BRANCH  12  13
ATOM     13  C   UNL     1      -3.227  -1.448  -0.639  0.00  0.00    +0.092 C 
ATOM     14  C   UNL     1      -2.601  -2.628   0.076  0.00  0.00    +0.023 C 
ENDBRANCH  12  13
BRANCH  12  15
ATOM     15  C   UNL     1      -3.335   0.430   0.932  0.00  0.00    +0.092 C 
ATOM     16  C   UNL     1      -4.396   1.406   0.469  0.00  0.00    +0.023 C 
ENDBRANCH  12  15
ENDBRANCH  11  12
ENDBRANCH   9  11
ENDBRANCH   1   9
TORSDOF 9
