REMARK  Name = 4633
REMARK  12 active torsions:
REMARK  status: ('A' for Active; 'I' for Inactive)
REMARK    1  A    between atoms: C_1  and  O_21
REMARK    2  A    between atoms: C_2  and  C_11
REMARK    3  A    between atoms: C_4  and  N_7
REMARK    4  A    between atoms: C_11  and  O_12
REMARK    5  A    between atoms: O_12  and  C_13
REMARK    6  A    between atoms: C_13  and  C_14
REMARK    7  A    between atoms: C_14  and  N_15
REMARK    8  A    between atoms: N_15  and  C_17
REMARK    9  A    between atoms: N_15  and  C_19
REMARK   10  A    between atoms: O_21  and  C_22
REMARK   11  A    between atoms: C_22  and  C_23
REMARK   12  A    between atoms: C_23  and  C_24
REMARK                            x       y       z     vdW  Elec       q    Type
REMARK                         _______ _______ _______ _____ _____    ______ ____
ROOT
ATOM      1  C   UNL     1       2.681   0.734   0.427  0.00  0.00    +0.151 C 
ATOM      2  C   UNL     1       0.693   2.020  -0.052  0.00  0.00    +0.079 C 
ATOM      3  C   UNL     1       1.291   0.855   0.428  0.00  0.00    +0.045 C 
ATOM      4  C   UNL     1       3.472   1.778  -0.053  0.00  0.00    +0.076 C 
ATOM      5  C   UNL     1       1.483   3.063  -0.533  0.00  0.00    +0.008 C 
ATOM      6  C   UNL     1       2.873   2.942  -0.533  0.00  0.00    +0.017 C 
ENDROOT
BRANCH   4   7
ATOM      7  N   UNL     1       4.880   1.668  -0.061  0.00  0.00    -0.355 N 
ATOM      8  H   UNL     1       5.311   0.850   0.276  0.00  0.00    +0.142 HD
ATOM      9  H   UNL     1       5.429   2.410  -0.402  0.00  0.00    +0.142 HD
ENDBRANCH   4   7
BRANCH   2  11
ATOM     10  O   UNL     1      -1.366   3.217   0.065  0.00  0.00    -0.245 OA
ATOM     11  C   UNL     1      -0.756   2.146  -0.052  0.00  0.00    +0.341 C 
BRANCH  11  12
ATOM     12  O   UNL     1      -1.367   0.931  -0.199  0.00  0.00    -0.448 OA
BRANCH  12  13
ATOM     13  C   UNL     1      -2.799   0.924  -0.215  0.00  0.00    +0.186 C 
BRANCH  13  14
ATOM     14  C   UNL     1      -3.279  -0.508  -0.385  0.00  0.00    -0.029 C 
BRANCH  14  15
ATOM     15  N   UNL     1      -4.733  -0.566  -0.390  0.00  0.00    +0.389 N 
ATOM     16  H   UNL     1      -5.078   0.228  -0.929  0.00  0.00    -0.080 HD
BRANCH  15  17
ATOM     17  C   UNL     1      -5.201  -1.800  -1.025  0.00  0.00    -0.077 C 
ATOM     18  C   UNL     1      -4.744  -3.024  -0.250  0.00  0.00    -0.025 C 
ENDBRANCH  15  17
BRANCH  15  19
ATOM     19  C   UNL     1      -5.260  -0.468   0.974  0.00  0.00    -0.077 C 
ATOM     20  C   UNL     1      -6.779  -0.458   0.976  0.00  0.00    -0.025 C 
ENDBRANCH  15  19
ENDBRANCH  14  15
ENDBRANCH  13  14
ENDBRANCH  12  13
ENDBRANCH  11  12
ENDBRANCH   2  11
BRANCH   1  21
ATOM     21  O   UNL     1       3.250  -0.419   0.903  0.00  0.00    -0.474 OA
BRANCH  21  22
ATOM     22  C   UNL     1       2.901  -1.627   0.240  0.00  0.00    +0.205 C 
BRANCH  22  23
ATOM     23  C   UNL     1       4.062  -2.604   0.356  0.00  0.00    +0.047 C 
BRANCH  23  24
ATOM     24  C   UNL     1       3.761  -3.923  -0.350  0.00  0.00    +0.004 C 
ATOM     25  C   UNL     1       4.939  -4.880  -0.269  0.00  0.00    +0.000 C 
ENDBRANCH  23  24
ENDBRANCH  22  23
ENDBRANCH  21  22
ENDBRANCH   1  21
TORSDOF 12
