REMARK  Name = 441335
REMARK  4 active torsions:
REMARK  status: ('A' for Active; 'I' for Inactive)
REMARK    1  A    between atoms: C_7  and  O_23
REMARK    2  A    between atoms: C_7  and  C_28
REMARK    3  A    between atoms: C_11  and  O_25
REMARK    4  A    between atoms: C_28  and  C_30
REMARK                            x       y       z     vdW  Elec       q    Type
REMARK                         _______ _______ _______ _____ _____    ______ ____
ROOT
ATOM      1 CL   UNL     1       1.433  -0.089  -1.856  0.00  0.00    -0.113 Cl
ATOM      2  O   UNL     1       6.358  -0.135  -1.412  0.00  0.00    -0.287 OA
ATOM      3  C   UNL     1      -1.815  -0.148   0.284  0.00  0.00    +0.031 C 
ATOM      4  C   UNL     1      -0.915   1.075  -0.005  0.00  0.00    +0.004 C 
ATOM      5  C   UNL     1       0.505   0.934   0.570  0.00  0.00    +0.017 C 
ATOM      6  C   UNL     1       1.228  -0.340  -0.023  0.00  0.00    +0.098 C 
ATOM      7  C   UNL     1      -3.132   0.351  -0.382  0.00  0.00    +0.140 C 
ATOM      8  C   UNL     1      -1.774   2.264   0.426  0.00  0.00    +0.003 C 
ATOM      9  C   UNL     1      -1.153  -1.387  -0.360  0.00  0.00    +0.033 C 
ATOM     10  C   UNL     1      -3.224   1.844   0.063  0.00  0.00    +0.031 C 
ATOM     11  C   UNL     1       0.312  -1.609   0.101  0.00  0.00    +0.125 C 
ATOM     12  C   UNL     1       2.696  -0.482   0.592  0.00  0.00    +0.049 C 
ATOM     13  C   UNL     1       1.329   2.221   0.374  0.00  0.00    +0.006 C 
ATOM     14  C   UNL     1      -2.055  -0.393   1.802  0.00  0.00    +0.003 C 
ATOM     15  C   UNL     1       2.750   2.083   0.916  0.00  0.00    +0.022 C 
ATOM     16  C   UNL     1       3.434   0.849   0.380  0.00  0.00    -0.037 C 
ATOM     17  C   UNL     1      -3.850   2.782  -0.966  0.00  0.00    +0.003 C 
ATOM     18  C   UNL     1       2.725  -0.772   2.115  0.00  0.00    +0.010 C 
ATOM     19  C   UNL     1       3.449  -1.645  -0.043  0.00  0.00    -0.018 C 
ATOM     20  C   UNL     1       4.607   0.951  -0.266  0.00  0.00    +0.034 C 
ATOM     21  C   UNL     1       4.617  -1.545  -0.685  0.00  0.00    +0.038 C 
ATOM     22  C   UNL     1       5.281  -0.236  -0.832  0.00  0.00    +0.195 C 
ENDROOT
BRANCH   7  23
ATOM     23  O   UNL     1      -3.124   0.194  -1.796  0.00  0.00    -0.380 OA
ATOM     24  H   UNL     1      -2.362   0.665  -2.169  0.00  0.00    +0.211 HD
ENDBRANCH   7  23
BRANCH  11  25
ATOM     25  O   UNL     1       0.300  -2.111   1.432  0.00  0.00    -0.383 OA
ATOM     26  H   UNL     1       1.212  -2.254   1.731  0.00  0.00    +0.210 HD
ENDBRANCH  11  25
BRANCH   7  28
ATOM     27  O   UNL     1      -5.276   0.118   0.608  0.00  0.00    -0.292 OA
ATOM     28  C   UNL     1      -4.352  -0.427   0.007  0.00  0.00    +0.191 C 
BRANCH  28  30
ATOM     29 CL   UNL     1      -6.003  -2.461  -0.660  0.00  0.00    -0.105 Cl
ATOM     30  C   UNL     1      -4.351  -1.887  -0.384  0.00  0.00    +0.161 C 
ENDBRANCH  28  30
ENDBRANCH   7  28
TORSDOF 4
