REMARK  Name = 54841
REMARK  6 active torsions:
REMARK  status: ('A' for Active; 'I' for Inactive)
REMARK    1  A    between atoms: C_1  and  C_2
REMARK    2  A    between atoms: C_1  and  O_8
REMARK    3  A    between atoms: C_1  and  C_16
REMARK    4  A    between atoms: O_8  and  C_9
REMARK    5  A    between atoms: C_16  and  C_17
REMARK    6  A    between atoms: C_17  and  N_18
REMARK                            x       y       z     vdW  Elec       q    Type
REMARK                         _______ _______ _______ _____ _____    ______ ____
ROOT
ATOM      1  C   UNL     1       0.334   0.298   0.019  0.00  0.00    +0.186 C 
ENDROOT
BRANCH   1   2
ATOM      2  C   UNL     1       1.308  -0.854  -0.060  0.00  0.00    +0.017 C 
ATOM      3  C   UNL     1       1.412  -1.573  -1.240  0.00  0.00    -0.001 C 
ATOM      4  C   UNL     1       2.077  -1.169   1.048  0.00  0.00    -0.001 C 
ATOM      5  C   UNL     1       2.312  -2.637  -1.313  0.00  0.00    -0.000 C 
ATOM      6  C   UNL     1       2.976  -2.233   0.974  0.00  0.00    -0.000 C 
ATOM      7  C   UNL     1       3.093  -2.967  -0.206  0.00  0.00    -0.000 C 
ENDBRANCH   1   2
BRANCH   1   8
ATOM      8  O   UNL     1      -0.773  -0.001  -0.834  0.00  0.00    -0.475 OA
BRANCH   8   9
ATOM      9  C   UNL     1      -1.995  -0.113  -0.232  0.00  0.00    +0.135 C 
ATOM     10  C   UNL     1      -3.044   0.728  -0.594  0.00  0.00    +0.012 C 
ATOM     11  C   UNL     1      -2.179  -1.082   0.752  0.00  0.00    +0.037 C 
ATOM     12  C   UNL     1      -4.285   0.599   0.031  0.00  0.00    -0.001 C 
ATOM     13  C   UNL     1      -2.862   1.771  -1.647  0.00  0.00    +0.034 C 
ATOM     14  C   UNL     1      -3.419  -1.211   1.377  0.00  0.00    +0.003 C 
ATOM     15  C   UNL     1      -4.472  -0.370   1.016  0.00  0.00    -0.000 C 
ENDBRANCH   8   9
ENDBRANCH   1   8
BRANCH   1  16
ATOM     16  C   UNL     1       0.935   1.652  -0.395  0.00  0.00    +0.025 C 
BRANCH  16  17
ATOM     17  C   UNL     1       2.144   2.052   0.451  0.00  0.00    -0.078 C 
BRANCH  17  18
ATOM     18  N   UNL     1       2.656   3.347   0.016  0.00  0.00    +0.382 N 
ATOM     19  C   UNL     1       3.783   3.761   0.838  0.00  0.00    -0.106 C 
ATOM     20  H   UNL     1       1.913   4.042   0.092  0.00  0.00    -0.085 HD
ATOM     21  H   UNL     1       2.969   3.266  -0.951  0.00  0.00    -0.085 HD
ENDBRANCH  17  18
ENDBRANCH  16  17
ENDBRANCH   1  16
TORSDOF 6
