REMARK  Name = 9568614
REMARK  5 active torsions:
REMARK  status: ('A' for Active; 'I' for Inactive)
REMARK    1  A    between atoms: S_1  and  C_5
REMARK    2  A    between atoms: S_1  and  C_16
REMARK    3  A    between atoms: C_10  and  O_14
REMARK    4  A    between atoms: C_16  and  C_18
REMARK    5  A    between atoms: C_20  and  O_25
REMARK                            x       y       z     vdW  Elec       q    Type
REMARK                         _______ _______ _______ _____ _____    ______ ____
ROOT
ATOM      1  S   UNL     1       0.280   0.753  -0.851  0.00  0.00    +0.085 S 
ATOM      2  O   UNL     1       0.408   2.256  -0.693  0.00  0.00    -0.252 OA
ENDROOT
BRANCH   1   5
ATOM      3  N   UNL     1      -2.502   1.009  -0.784  0.00  0.00    -0.307 N 
ATOM      4  N   UNL     1      -1.713  -0.826   0.191  0.00  0.00    -0.307 N 
ATOM      5  C   UNL     1      -1.397   0.275  -0.455  0.00  0.00    +0.226 C 
ATOM      6  C   UNL     1      -3.604   0.337  -0.321  0.00  0.00    +0.063 C 
ATOM      7  C   UNL     1      -3.085  -0.804   0.283  0.00  0.00    +0.060 C 
ATOM      8  C   UNL     1      -4.969   0.622  -0.378  0.00  0.00    +0.052 C 
ATOM      9  C   UNL     1      -3.966  -1.728   0.872  0.00  0.00    +0.019 C 
ATOM     10  C   UNL     1      -5.831  -0.309   0.213  0.00  0.00    +0.140 C 
ATOM     11  C   UNL     1      -5.340  -1.463   0.827  0.00  0.00    +0.038 C 
ATOM     12  H   UNL     1      -2.506   1.866  -1.268  0.00  0.00    +0.149 HD
ATOM     13  H   UNL     1      -1.100  -1.516   0.533  0.00  0.00    +0.149 HD
BRANCH  10  14
ATOM     14  O   UNL     1      -7.176  -0.082   0.188  0.00  0.00    -0.471 OA
ATOM     15  C   UNL     1      -7.618   1.113  -0.452  0.00  0.00    +0.252 C 
ENDBRANCH  10  14
ENDBRANCH   1   5
BRANCH   1  16
ATOM     16  C   UNL     1       1.169  -0.005   0.539  0.00  0.00    +0.140 C 
BRANCH  16  18
ATOM     17  N   UNL     1       3.076   1.369   1.072  0.00  0.00    -0.248 NA
ATOM     18  C   UNL     1       2.647   0.248   0.457  0.00  0.00    +0.072 C 
ATOM     19  C   UNL     1       3.465  -0.639  -0.216  0.00  0.00    +0.026 C 
ATOM     20  C   UNL     1       4.825  -0.356  -0.262  0.00  0.00    +0.133 C 
ATOM     21  C   UNL     1       5.312   0.789   0.359  0.00  0.00    +0.031 C 
ATOM     22  C   UNL     1       2.918  -1.861  -0.874  0.00  0.00    +0.035 C 
ATOM     23  C   UNL     1       4.404   1.612   1.007  0.00  0.00    +0.097 C 
ATOM     24  C   UNL     1       6.760   1.137   0.338  0.00  0.00    +0.036 C 
BRANCH  20  25
ATOM     25  O   UNL     1       5.679  -1.196  -0.912  0.00  0.00    -0.472 OA
ATOM     26  C   UNL     1       6.258  -2.250  -0.147  0.00  0.00    +0.252 C 
ENDBRANCH  20  25
ENDBRANCH  16  18
ENDBRANCH   1  16
TORSDOF 5
