REMARK  Name = 5906
REMARK  5 active torsions:
REMARK  status: ('A' for Active; 'I' for Inactive)
REMARK    1  A    between atoms: C_1  and  C_2
REMARK    2  A    between atoms: C_1  and  O_10
REMARK    3  A    between atoms: C_1  and  C_12
REMARK    4  A    between atoms: C_5  and  O_8
REMARK    5  A    between atoms: C_12  and  N_14
REMARK                            x       y       z     vdW  Elec       q    Type
REMARK                         _______ _______ _______ _____ _____    ______ ____
ROOT
ATOM      1  C   UNL     1      -1.358   0.356  -0.675  0.00  0.00    +0.113 C 
ENDROOT
BRANCH   1   2
ATOM      2  C   UNL     1       0.069  -0.019  -0.334  0.00  0.00    +0.005 C 
ATOM      3  C   UNL     1       1.026   0.976  -0.246  0.00  0.00    +0.035 C 
ATOM      4  C   UNL     1       0.383  -1.349  -0.118  0.00  0.00    -0.002 C 
ATOM      5  C   UNL     1       2.340   0.631   0.069  0.00  0.00    +0.133 C 
ATOM      6  C   UNL     1       1.697  -1.695   0.197  0.00  0.00    +0.003 C 
ATOM      7  C   UNL     1       2.676  -0.705   0.290  0.00  0.00    +0.037 C 
BRANCH   5   8
ATOM      8  O   UNL     1       3.295   1.596   0.160  0.00  0.00    -0.506 OA
ATOM      9  H   UNL     1       3.069   2.493   0.012  0.00  0.00    +0.292 HD
ENDBRANCH   5   8
ENDBRANCH   1   2
BRANCH   1  10
ATOM     10  O   UNL     1      -1.887  -0.710  -1.468  0.00  0.00    -0.382 OA
ATOM     11  H   UNL     1      -2.804  -0.509  -1.710  0.00  0.00    +0.211 HD
ENDBRANCH   1  10
BRANCH   1  12
ATOM     12  C   UNL     1      -2.252   0.588   0.564  0.00  0.00    -0.034 C 
ATOM     13  C   UNL     1      -2.394  -0.665   1.429  0.00  0.00    -0.021 C 
BRANCH  12  14
ATOM     14  N   UNL     1      -3.595   0.996   0.132  0.00  0.00    +0.384 N 
ATOM     15  H   UNL     1      -3.526   1.832  -0.448  0.00  0.00    -0.089 HD
ATOM     16  H   UNL     1      -4.169   1.196   0.951  0.00  0.00    -0.089 HD
ATOM     17  H   UNL     1      -4.022   0.243  -0.407  0.00  0.00    -0.089 HD
ENDBRANCH  12  14
ENDBRANCH   1  12
TORSDOF 5
