REMARK  Name = 2803
REMARK  1 active torsions:
REMARK  status: ('A' for Active; 'I' for Inactive)
REMARK    1  A    between atoms: N_2  and  C_11
REMARK                            x       y       z     vdW  Elec       q    Type
REMARK                         _______ _______ _______ _____ _____    ______ ____
ROOT
ATOM      1  N   UNL     1       2.833   0.001  -0.927  0.00  0.00    -0.284 N 
ATOM      2  N   UNL     1       0.507   0.002  -0.926  0.00  0.00    -0.285 N 
ATOM      3  N   UNL     1       1.793   0.002   1.091  0.00  0.00    -0.214 NA
ATOM      4  C   UNL     1       3.961  -0.003  -0.045  0.00  0.00    +0.085 C 
ATOM      5  C   UNL     1       3.269   0.002   1.324  0.00  0.00    +0.117 C 
ATOM      6  C   UNL     1       1.670   0.002  -0.215  0.00  0.00    +0.190 C 
ATOM      7  H   UNL     1       2.889   0.001  -1.909  0.00  0.00    +0.155 HD
ATOM      8  H   UNL     1       0.593   0.003  -1.907  0.00  0.00    +0.155 HD
ENDROOT
BRANCH   2  11
ATOM      9 CL   UNL     1      -0.694  -2.729  -0.453  0.00  0.00    -0.081 Cl
ATOM     10 CL   UNL     1      -0.701   2.730  -0.453  0.00  0.00    -0.081 Cl
ATOM     11  C   UNL     1      -0.795   0.000  -0.415  0.00  0.00    +0.072 C 
ATOM     12  C   UNL     1      -1.458  -1.208  -0.153  0.00  0.00    +0.072 C 
ATOM     13  C   UNL     1      -1.461   1.208  -0.153  0.00  0.00    +0.072 C 
ATOM     14  C   UNL     1      -2.757  -1.210   0.357  0.00  0.00    +0.013 C 
ATOM     15  C   UNL     1      -2.760   1.206   0.357  0.00  0.00    +0.013 C 
ATOM     16  C   UNL     1      -3.407  -0.003   0.612  0.00  0.00    +0.002 C 
ENDBRANCH   2  11
TORSDOF 1
