REMARK  Name = 4946
REMARK  7 active torsions:
REMARK  status: ('A' for Active; 'I' for Inactive)
REMARK    1  A    between atoms: O_1  and  C_2
REMARK    2  A    between atoms: O_1  and  C_12
REMARK    3  A    between atoms: C_12  and  C_13
REMARK    4  A    between atoms: C_13  and  O_14
REMARK    5  A    between atoms: C_13  and  C_16
REMARK    6  A    between atoms: C_16  and  N_17
REMARK    7  A    between atoms: N_17  and  C_20
REMARK                            x       y       z     vdW  Elec       q    Type
REMARK                         _______ _______ _______ _____ _____    ______ ____
ROOT
ATOM      1  O   UNL     1       0.358   1.456   0.693  0.00  0.00    -0.473 OA
ENDROOT
BRANCH   1   2
ATOM      2  C   UNL     1      -0.785   1.188  -0.006  0.00  0.00    +0.139 C 
ATOM      3  C   UNL     1      -1.614   0.107   0.336  0.00  0.00    +0.034 C 
ATOM      4  C   UNL     1      -2.787  -0.130  -0.419  0.00  0.00    +0.003 C 
ATOM      5  C   UNL     1      -1.108   2.023  -1.076  0.00  0.00    +0.037 C 
ATOM      6  C   UNL     1      -1.304  -0.744   1.409  0.00  0.00    +0.003 C 
ATOM      7  C   UNL     1      -3.097   0.721  -1.493  0.00  0.00    +0.000 C 
ATOM      8  C   UNL     1      -2.262   1.790  -1.818  0.00  0.00    +0.003 C 
ATOM      9  C   UNL     1      -3.616  -1.211  -0.078  0.00  0.00    +0.000 C 
ATOM     10  C   UNL     1      -2.139  -1.813   1.734  0.00  0.00    +0.000 C 
ATOM     11  C   UNL     1      -3.293  -2.046   0.991  0.00  0.00    +0.000 C 
ENDBRANCH   1   2
BRANCH   1  12
ATOM     12  C   UNL     1       1.426   2.065  -0.026  0.00  0.00    +0.232 C 
BRANCH  12  13
ATOM     13  C   UNL     1       2.751   1.641   0.603  0.00  0.00    +0.133 C 
BRANCH  13  14
ATOM     14  O   UNL     1       2.784   2.103   1.956  0.00  0.00    -0.383 OA
ATOM     15  H   UNL     1       3.622   1.839   2.367  0.00  0.00    +0.210 HD
ENDBRANCH  13  14
BRANCH  13  16
ATOM     16  C   UNL     1       2.958   0.124   0.611  0.00  0.00    -0.048 C 
BRANCH  16  17
ATOM     17  N   UNL     1       3.001  -0.429  -0.736  0.00  0.00    +0.387 N 
ATOM     18  H   UNL     1       3.745   0.029  -1.262  0.00  0.00    -0.084 HD
ATOM     19  H   UNL     1       2.098  -0.270  -1.182  0.00  0.00    -0.084 HD
BRANCH  17  20
ATOM     20  C   UNL     1       3.256  -1.863  -0.702  0.00  0.00    -0.062 C 
ATOM     21  C   UNL     1       3.287  -2.429  -2.119  0.00  0.00    -0.023 C 
ATOM     22  C   UNL     1       2.184  -2.550   0.139  0.00  0.00    -0.023 C 
ENDBRANCH  17  20
ENDBRANCH  16  17
ENDBRANCH  13  16
ENDBRANCH  12  13
ENDBRANCH   1  12
TORSDOF 7
