REMARK  Name = 5905
REMARK  4 active torsions:
REMARK  status: ('A' for Active; 'I' for Inactive)
REMARK    1  A    between atoms: N_4  and  C1*_13
REMARK    2  A    between atoms: C3*_12  and  O3*_16
REMARK    3  A    between atoms: C4*_15  and  C5*_18
REMARK    4  A    between atoms: C5*_18  and  O5*_19
REMARK                            x       y       z     vdW  Elec       q    Type
REMARK                         _______ _______ _______ _____ _____    ______ ____
ROOT
ATOM      1  I   UNL     1      -2.631  -3.021   0.353  0.00  0.00    -0.036 I 
ATOM      2  O   UNL     1      -1.088   2.880  -0.355  0.00  0.00    -0.252 OA
ATOM      3  O   UNL     1      -4.366  -0.287   0.211  0.00  0.00    -0.269 OA
ATOM      4  N   UNL     1      -0.427   0.648  -0.184  0.00  0.00    -0.218 N 
ATOM      5  N   UNL     1      -2.708   1.282  -0.073  0.00  0.00    -0.235 N 
ATOM      6  C   UNL     1      -1.378   1.690  -0.215  0.00  0.00    +0.315 C 
ATOM      7  C   UNL     1      -0.834  -0.671  -0.021  0.00  0.00    +0.081 C 
ATOM      8  C   UNL     1      -2.110  -1.055   0.115  0.00  0.00    +0.099 C 
ATOM      9  C   UNL     1      -3.175  -0.015   0.092  0.00  0.00    +0.259 C 
ATOM     10  H   UNL     1      -3.389   1.993  -0.093  0.00  0.00    +0.159 HD
ENDROOT
BRANCH   4  13
ATOM     11  O4* UNL     1       1.607  -0.176  -0.998  0.00  0.00    -0.335 OA
ATOM     12  C3* UNL     1       3.054   0.536   0.740  0.00  0.00    +0.144 C 
ATOM     13  C1* UNL     1       0.975   0.918  -0.318  0.00  0.00    +0.202 C 
ATOM     14  C2* UNL     1       1.674   1.084   1.021  0.00  0.00    +0.083 C 
ATOM     15  C4* UNL     1       2.786  -0.571  -0.271  0.00  0.00    +0.173 C 
BRANCH  12  16
ATOM     16  O3* UNL     1       3.861   1.550   0.145  0.00  0.00    -0.382 OA
ATOM     17  H3* UNL     1       4.028   2.252   0.794  0.00  0.00    +0.210 HD
ENDBRANCH  12  16
BRANCH  15  18
ATOM     18  C5* UNL     1       2.504  -1.916   0.385  0.00  0.00    +0.169 C 
BRANCH  18  19
ATOM     19  O5* UNL     1       2.256  -2.877  -0.628  0.00  0.00    -0.379 OA
ATOM     20  H5* UNL     1       2.075  -3.738  -0.220  0.00  0.00    +0.211 HD
ENDBRANCH  18  19
ENDBRANCH  15  18
ENDBRANCH   4  13
TORSDOF 4
