REMARK  Name = 29327
REMARK  7 active torsions:
REMARK  status: ('A' for Active; 'I' for Inactive)
REMARK    1  A    between atoms: C_2  and  O_15
REMARK    2  A    between atoms: C_3  and  N_8
REMARK    3  A    between atoms: C_4  and  O_17
REMARK    4  A    between atoms: C_5  and  C_21
REMARK    5  A    between atoms: C_6  and  O_19
REMARK    6  A    between atoms: N_9  and  N_14
REMARK    7  A    between atoms: C_21  and  O_22
REMARK                            x       y       z     vdW  Elec       q    Type
REMARK                         _______ _______ _______ _____ _____    ______ ____
ROOT
ATOM      1  O   UNL     1       2.151  -1.275   0.158  0.00  0.00    -0.327 OA
ATOM      2  C   UNL     1       0.907   1.320   0.013  0.00  0.00    +0.163 C 
ATOM      3  C   UNL     1       0.128   0.048   0.357  0.00  0.00    +0.159 C 
ATOM      4  C   UNL     1       2.391   1.147   0.352  0.00  0.00    +0.169 C 
ATOM      5  C   UNL     1       2.949  -0.154  -0.237  0.00  0.00    +0.176 C 
ATOM      6  C   UNL     1       0.790  -1.184  -0.268  0.00  0.00    +0.253 C 
ENDROOT
BRANCH   3   8
ATOM      7  O   UNL     1      -2.058  -1.140   1.679  0.00  0.00    -0.251 OA
ATOM      8  N   UNL     1      -1.256   0.156  -0.042  0.00  0.00    -0.282 N 
ATOM      9  N   UNL     1      -3.575  -0.267   0.160  0.00  0.00    -0.162 N 
ATOM     10  C   UNL     1      -2.281  -0.465   0.669  0.00  0.00    +0.320 C 
ATOM     11  C   UNL     1      -4.742  -0.855   0.804  0.00  0.00    +0.140 C 
ATOM     12  H   UNL     1      -1.483   0.684  -0.841  0.00  0.00    +0.151 HD
BRANCH   9  14
ATOM     13  O   UNL     1      -4.963   0.658  -1.403  0.00  0.00    -0.078 OA
ATOM     14  N   UNL     1      -3.780   0.564  -1.061  0.00  0.00    +0.054 NA
ENDBRANCH   9  14
ENDBRANCH   3   8
BRANCH   2  15
ATOM     15  O   UNL     1       0.383   2.401   0.786  0.00  0.00    -0.380 OA
ATOM     16  H   UNL     1      -0.557   2.521   0.580  0.00  0.00    +0.211 HD
ENDBRANCH   2  15
BRANCH   4  17
ATOM     17  O   UNL     1       3.096   2.270  -0.171  0.00  0.00    -0.379 OA
ATOM     18  H   UNL     1       2.734   3.085   0.209  0.00  0.00    +0.211 HD
ENDBRANCH   4  17
BRANCH   6  19
ATOM     19  O   UNL     1       0.678  -1.142  -1.690  0.00  0.00    -0.359 OA
ATOM     20  H   UNL     1       1.101  -1.928  -2.071  0.00  0.00    +0.213 HD
ENDBRANCH   6  19
BRANCH   5  21
ATOM     21  C   UNL     1       4.374  -0.431   0.235  0.00  0.00    +0.169 C 
BRANCH  21  22
ATOM     22  O   UNL     1       4.809  -1.649  -0.342  0.00  0.00    -0.379 OA
ATOM     23  H   UNL     1       5.715  -1.839  -0.051  0.00  0.00    +0.211 HD
ENDBRANCH  21  22
ENDBRANCH   5  21
TORSDOF 7
