156391
  -OEChem-10051719233D

 31 32  0     1  0  0  0  0  0999 V2000
   -4.6881   -0.1815   -0.2526 O   0  0  0  0  0  0  0  0  0  0  0  0
    5.0783    0.7631   -0.4703 O   0  0  0  0  0  0  0  0  0  0  0  0
    3.0804    1.2333   -1.4314 O   0  0  0  0  0  0  0  0  0  0  0  0
    3.1415   -0.3998    0.3840 C   0  0  2  0  0  0  0  0  0  0  0  0
    1.6726   -0.5832    0.2040 C   0  0  0  0  0  0  0  0  0  0  0  0
   -0.5809    0.3324    0.2498 C   0  0  0  0  0  0  0  0  0  0  0  0
   -1.0939   -0.9290   -0.1355 C   0  0  0  0  0  0  0  0  0  0  0  0
    0.8050    0.4888    0.4154 C   0  0  0  0  0  0  0  0  0  0  0  0
    1.1681   -1.8237   -0.1750 C   0  0  0  0  0  0  0  0  0  0  0  0
   -0.2060   -1.9969   -0.3440 C   0  0  0  0  0  0  0  0  0  0  0  0
    3.5460   -0.0026    1.8183 C   0  0  0  0  0  0  0  0  0  0  0  0
   -1.4687    1.4004    0.4582 C   0  0  0  0  0  0  0  0  0  0  0  0
   -2.4796   -1.0854   -0.3012 C   0  0  0  0  0  0  0  0  0  0  0  0
   -3.3472   -0.0133   -0.0899 C   0  0  0  0  0  0  0  0  0  0  0  0
    3.7333    0.6153   -0.6004 C   0  0  0  0  0  0  0  0  0  0  0  0
   -2.8427    1.2271    0.2891 C   0  0  0  0  0  0  0  0  0  0  0  0
   -5.5181    0.9551   -0.0185 C   0  0  0  0  0  0  0  0  0  0  0  0
    3.6438   -1.3498    0.1536 H   0  0  0  0  0  0  0  0  0  0  0  0
    1.2016    1.4581    0.7128 H   0  0  0  0  0  0  0  0  0  0  0  0
    1.8297   -2.6692   -0.3436 H   0  0  0  0  0  0  0  0  0  0  0  0
   -0.5782   -2.9753   -0.6407 H   0  0  0  0  0  0  0  0  0  0  0  0
    4.6340   -0.0263    1.9433 H   0  0  0  0  0  0  0  0  0  0  0  0
    3.2107    1.0106    2.0662 H   0  0  0  0  0  0  0  0  0  0  0  0
    3.1108   -0.6925    2.5497 H   0  0  0  0  0  0  0  0  0  0  0  0
   -1.0955    2.3786    0.7549 H   0  0  0  0  0  0  0  0  0  0  0  0
   -2.8904   -2.0491   -0.5970 H   0  0  0  0  0  0  0  0  0  0  0  0
   -3.4593    2.1010    0.4696 H   0  0  0  0  0  0  0  0  0  0  0  0
    5.4377    1.4135   -1.1108 H   0  0  0  0  0  0  0  0  0  0  0  0
   -6.5525    0.6414   -0.1934 H   0  0  0  0  0  0  0  0  0  0  0  0
   -5.3049    1.7622   -0.7276 H   0  0  0  0  0  0  0  0  0  0  0  0
   -5.4576    1.2902    1.0226 H   0  0  0  0  0  0  0  0  0  0  0  0
  1 14  1  0  0  0  0
  1 17  1  0  0  0  0
  2 15  1  0  0  0  0
  2 28  1  0  0  0  0
  3 15  2  0  0  0  0
  4  5  1  0  0  0  0
  4 11  1  0  0  0  0
  4 15  1  0  0  0  0
  4 18  1  0  0  0  0
  5  8  2  0  0  0  0
  5  9  1  0  0  0  0
  6  7  2  0  0  0  0
  6  8  1  0  0  0  0
  6 12  1  0  0  0  0
  7 10  1  0  0  0  0
  7 13  1  0  0  0  0
  8 19  1  0  0  0  0
  9 10  2  0  0  0  0
  9 20  1  0  0  0  0
 10 21  1  0  0  0  0
 11 22  1  0  0  0  0
 11 23  1  0  0  0  0
 11 24  1  0  0  0  0
 12 16  2  0  0  0  0
 12 25  1  0  0  0  0
 13 14  2  0  0  0  0
 13 26  1  0  0  0  0
 14 16  1  0  0  0  0
 16 27  1  0  0  0  0
 17 29  1  0  0  0  0
 17 30  1  0  0  0  0
 17 31  1  0  0  0  0
M  END
> <DATABASE_ID>
DB00788

> <DATABASE_NAME>
drugbank

> <ORIGINAL_SOURCE>
PUBCHEM

> <ORIGINAL_SOURCE_URL>
https://pubchem.ncbi.nlm.nih.gov/rest/pug/compound/inchikey/CMWTZPSULFXXJA-VIFPVBQESA-N/SDF?record_type=3d

> <SMILES>
COC1=CC2=C(C=C1)C=C(C=C2)[C@H](C)C(O)=O

> <INCHI_IDENTIFIER>
InChI=1S/C14H14O3/c1-9(14(15)16)10-3-4-12-8-13(17-2)6-5-11(12)7-10/h3-9H,1-2H3,(H,15,16)/t9-/m0/s1

> <INCHI_KEY>
CMWTZPSULFXXJA-VIFPVBQESA-N

> <FORMULA>
C14H14O3

> <MOLECULAR_WEIGHT>
230.2592

> <EXACT_MASS>
230.094294314

> <JCHEM_ACCEPTOR_COUNT>
3

> <JCHEM_AVERAGE_POLARIZABILITY>
24.811789677981285

> <JCHEM_BIOAVAILABILITY>
1

> <JCHEM_DONOR_COUNT>
1

> <JCHEM_FORMAL_CHARGE>
0

> <JCHEM_GHOSE_FILTER>
1

> <JCHEM_IUPAC>
(2S)-2-(6-methoxynaphthalen-2-yl)propanoic acid

> <ALOGPS_LOGP>
3.29

> <JCHEM_LOGP>
2.985785874666666

> <ALOGPS_LOGS>
-3.65

> <JCHEM_MDDR_LIKE_RULE>
0

> <JCHEM_NUMBER_OF_RINGS>
2

> <JCHEM_PHYSIOLOGICAL_CHARGE>
-1

> <JCHEM_PKA_STRONGEST_ACIDIC>
4.190353313973414

> <JCHEM_PKA_STRONGEST_BASIC>
-4.828411505428834

> <JCHEM_POLAR_SURFACE_AREA>
46.53

> <JCHEM_REFRACTIVITY>
64.85350000000001

> <JCHEM_ROTATABLE_BOND_COUNT>
3

> <JCHEM_RULE_OF_FIVE>
1

> <ALOGPS_SOLUBILITY>
5.11e-02 g/l

> <JCHEM_TRADITIONAL_IUPAC>
naproxen

> <JCHEM_VEBER_RULE>
0

> <DRUGBANK_ID>
DB00788

> <SECONDARY_ACCESSION_NUMBERS>
APRD01135; DB08298

> <DRUG_GROUPS>
approved; vet_approved

> <GENERIC_NAME>
Naproxen

> <SYNONYMS>
(+)-(S)-6-Methoxy-α-methyl-2-naphthaleneacetic acid; (+)-(S)-Naproxen; (+)-2-(6-Methoxy-2-naphthyl)propionic acid; (+)-2-(Methoxy-2-naphthyl)-propionic acid; (+)-2-(Methoxy-2-naphthyl)-propionsäure; (+)-Naproxen; (S)-(+)-2-(6-Methoxy-2-naphthyl)propionic acid; (S)-(+)-Naproxen; (S)-2-(6-Methoxy-2-naphthyl)propanoic acid; (S)-2-(6-Methoxy-2-naphthyl)propionic acid; (S)-6-Methoxy-alpha-methyl-2-naphthaleneacetic acid; (S)-Naproxen; Naprolag; Naproxen; Naproxène; Naproxeno; Naproxenum

> <PRODUCTS>
7 Select Naproxen Sodium; Aleve; Aleve Back and Body Pain; Aleve Back and Muscle Pain; Aleve Caplets; Aleve Caplets - Easy Open Arthritis Cap; Aleve Easy Open Arthritis Cap; Aleve Gelcaps; Aleve Liquid Gels; Aleve Nighttime; Aleve PM; Aleve-D Sinus and Cold; Aleve-D Sinus and Headache; All Day Pain Relief; All Day Pain Relief Naproxen Sodium; All Day Relief; All Day Sinus and Cold D; All Night Pain Relief PM; Ana-Dent Toothache Relief; AnaDent; Anaprox; Anaprox DS; Anaprox DS Tab 550mg; Apo Naproxen Tab 125mg; Apo-napro-NA; Apo-napro-NA DS; Apo-naproxen; Apo-naproxen EC; Apo-naproxen EC Tablets; Apo-naproxen SR Tablets 750mg; Ava-naproxen EC; Back and Muscle Pain; Basic Care Naproxen Sodium; Bayer Aleve; Being Well all day pain relief; Berkley and Jensen Naproxen Sodium; CAREALL Naproxen; Calmadol Pain Reliever; Care One All Day Pain Relief; Care One Naproxen Sodium; CareOne Naproxen Sodium; Careone Naproxen Sodium; Clear Choice Naproxen Sodium; Cold FAid; Comfort Pac with Naproxen; DG Health Naproxen Sodium; Dg Health All Day Pain Relief; Dg Health Naproxen Sodium; EC-Naprosyn; EC-naproxen; Equaline All Day Pain Relief; Equaline Naproxen Sodium; Equate All Day Pain Relief; Equate Naproxen Sodium; Equipto - Naproxen External Cream Compounding Kit; Exchange Select Naproxen Sodium; Family Wellness Naproxen Sodium; Flanax; Flanax Naproxen; Flanax Pain Relief Kit; Flanax Pain Reliever; Flanax Pain and Fever Reliever; Formucare Naproxen Sodium Pain Reliever Fever Reducer; Fulton Street Market Naproxen Sodium; Good Neighbor Pharmacy Naproxen Sodium; Good Neighbor Pharmacy Pain Relief All Day; Good Neighbor Pharmacy Sinus and Cold D; Good Neighbor Pharmacy naproxen sodium; Good Sense All Day Pain Relief; Good Sense Naproxen Sodium; Health Mart Naproxen Sodium; Health Mart Sinus and Cold D; Healthy Accents All Day Pain Relief; Healthy Accents Naproxen Sodium; Humana Pharmacy All Day Pain Relief; Kirkland Signature Naproxen Sodium; Leader All Day; Leader All Day Pain Relief; Leader Naproxen Sodium; Leader Sinus and Cold D; Leader Sinus and Cold-D; Lil Drug Store Pain Relief All Day; Maxidol Liquid Gels; Medique Mediproxen; Members Mark Naproxen Sodium; Menstridol; Menstrual Pain Reliever; Midol Extended Relief; Motrimax 12 Hour; Motrimax 12 Hour Tablets; Mylan-naproxen EC; Mylan-naproxen/esomeprazole Mr; Naprelan; NaproPax; Napropak; Napropak Cool; Naprosyn; Naprosyn 250mg; Naprosyn 250mg Tablets; Naprosyn 375mg; Naprosyn 375mg Tablets; Naprosyn 500 Mg Suppositories; Naprosyn 500 Mg Tablets; Naprosyn E 250mg Tablets - Ect; Naprosyn E Tab 250mg; Naprosyn E Tab 375mg; Naprosyn E Tab 500mg; Naprosyn Sup 500mg; Naprosyn Sus 25mg/ml; Naprosyn-SR Tab 750mg; Naproxen; Naproxen 125 Tab 125mg; Naproxen 250; Naproxen 500; Naproxen All day relief for pain; Naproxen Back and Muscle Pain; Naproxen Caplets; Naproxen Caplets All day relief for pain; Naproxen Capsules 200 mg; Naproxen Delayed Release; Naproxen Delayed-release; Naproxen EC; Naproxen Kit; Naproxen Liquid Gels; Naproxen Menstrual Pain Relief; Naproxen PM; Naproxen Pain Relief; Naproxen Sodium; Naproxen Sodium (NSAID) Fever Reducer/ Pain Reliever; Naproxen Sodium 220mg; Naproxen Sodium All Day Pain Relief; Naproxen Sodium Caplets; Naproxen Sodium Capsules; Naproxen Sodium DS; Naproxen Sodium PM; Naproxen Sodium Tablets; Naproxen Sodium and Diphenhydramine HCl; Naproxen Tablets; Naproxen delayed release; Naproxen sodium; Naproxen-375; Naproxen-NA; Naproxen-NA DF; NaproxenPax; Novo-naprox Tab 125mg; Ntp-naproxen; Ntp-naproxen EC; Ntp-naproxen Sodium; Ntp-naproxen Sodium DS; Nu-napro-NA; Nu-napro-NA DS; Nu-naprox EC; Nu-naprox Tab 125mg; Nu-naprox Tab 250mg; Nu-naprox Tab 375mg; Nu-naprox Tab 500mg; Nx 12 Hour; PMS-naproxen; PMS-naproxen EC; PREVACID NapraPAC 250; PREVACID NapraPAC 375; PREVACID NapraPAC 500; Pain Relief; Pain Relief All Day; Pain Reliever; Pain Zero; Pediapharm Naproxen Suspension; Preferred Plus Sinus and Cold D; Prevacid Naprapac; Pro-naproxen EC; Pro-naproxen EC - 375; Rapidol Naproxen; Ratio-naproxen; Ratio-naproxen E; Rexall All Day Pain Relief; Rhodiaprox - 500mg/sup; Riva-naproxen; Riva-naproxen Sodium; Riva-naproxen Sodium DS; Rugby All Day Relief; Rx Act All Day Pain Relief; Rx Act Naproxen Sodium; Rx Act all day pain relief; SALLUS Pain Relief Collection with Naproxen; Sab-naproxen; ShopRite Naproxen Sodium; Signature Care Naproxen Sodium; Signature Care Naproxen Sodium PM; Signature Care Pain Relief; Simply Right Naproxen Sodium; Sinus and Cold D; Smart Sense Naproxen Sodium; Smart Sense naproxen sodium; Sound Body Naproxen Sodium; Sudafed 12 Hour Pressure And Pain; Sudafed Sinus 12 Hour Pressure plus Pain; Sudafed Sinus and Pain 12 Hour; Sumatriptan Succinate and Naproxen Sodium; Sumatriptan and Naproxen Sodium; Sunmark All Day Relief; Sunmark Naproxen Sodium; Sunmark Sinus and Cold D; Synflex DS Tab 550mg; Synflex Tab 275mg; Teva-naproxen; Teva-naproxen EC; Teva-naproxen SR; Teva-naproxen Sodium; Teva-naproxen Sodium DS; Theraproxen; Theraproxen-500; Theraproxen-90; TopCare All Day Pain Relief; Topcare All Day Pain Relief; Topcare All Night Pain Relief PM; Topcare Back and Muscle Pain; Topcare Naproxen Sodium; Topcare Sinus and Cold D; Trepoxen-250; Treximet; Up and Up Naproxen Sodium; Up and Up Naproxen sodium; Up and Up Sinus and Cold D; Vicks Sinex D Severe Sinus and Cold; Vimovo; Waymade-naproxen; Waymade-naproxen Sodium; Waymade-naproxen Sodium DS

> <INTERNATIONAL_BRANDS>
Alidase; Alpoxen; Alpron; Apain; Apranax; Apronax; Bonyl; Bruproxen; Bumaflex N; Congex; Debril; Deproxen; Dysmenalgit; Emox; Emoxen; Eurogesic; Fabralgina; Feminax Ultra; Flogotone; Gerinap; Honlow; Improstan; Inflamax; Inza; Iraxen; Jinkangpuli; Lexinax; Melgar; Messelxen; Mobilat; Naprometin; Naprosyn CR; Naprosyn EC; Naprosyn Entero; Naprosyn SR; Naprosyne; Naproval; Naprux; Neuralprona; Noflam; Nopain; Prexan; Priaxen; Princeps; Pronaxen; Proxen; Proxen S; Proxen SR; Releve; Repro; Reuxen; Riproxen; Sanaprox; Seladin; Servinaprox; Tarproxen; Ticoflex; Tundra; Xenar; Xenar-CR

> <SALTS>
Naproxen sodium

$$$$
