REMARK  Name = 9444
REMARK  5 active torsions:
REMARK  status: ('A' for Active; 'I' for Inactive)
REMARK    1  A    between atoms: C2*_2  and  O2*_16
REMARK    2  A    between atoms: C3*_3  and  O3*_18
REMARK    3  A    between atoms: C4*_4  and  C5*_20
REMARK    4  A    between atoms: C1*_5  and  N_7
REMARK    5  A    between atoms: C5*_20  and  O5*_21
REMARK                            x       y       z     vdW  Elec       q    Type
REMARK                         _______ _______ _______ _____ _____    ______ ____
ROOT
ATOM      1  O4* UNL     1      -1.361  -0.544   1.020  0.00  0.00    -0.332 OA
ATOM      2  C2* UNL     1      -1.358   0.976  -0.798  0.00  0.00    +0.187 C 
ATOM      3  C3* UNL     1      -2.789   0.588  -0.494  0.00  0.00    +0.171 C 
ATOM      4  C4* UNL     1      -2.608  -0.695   0.307  0.00  0.00    +0.175 C 
ATOM      5  C1* UNL     1      -0.645   0.580   0.483  0.00  0.00    +0.234 C 
ENDROOT
BRANCH   5   7
ATOM      6  O   UNL     1       1.540   2.299   0.708  0.00  0.00    -0.192 OA
ATOM      7  N   UNL     1       0.720   0.198   0.256  0.00  0.00    -0.177 N 
ATOM      8  N   UNL     1       3.046   0.684   0.155  0.00  0.00    -0.252 NA
ATOM      9  N   UNL     1       2.263  -1.489  -0.318  0.00  0.00    -0.174 NA
ATOM     10  N   UNL     1       4.562  -0.980  -0.410  0.00  0.00    -0.293 N 
ATOM     11  C   UNL     1       1.761   1.129   0.391  0.00  0.00    +0.282 C 
ATOM     12  C   UNL     1       1.058  -1.089  -0.101  0.00  0.00    +0.245 C 
ATOM     13  C   UNL     1       3.274  -0.559  -0.180  0.00  0.00    +0.151 C 
ATOM     14  H   UNL     1       5.310  -0.346  -0.322  0.00  0.00    +0.155 HD
ATOM     15  H   UNL     1       4.737  -1.915  -0.662  0.00  0.00    +0.155 HD
ENDBRANCH   5   7
BRANCH   2  16
ATOM     16  O2* UNL     1      -1.226   2.352  -1.091  0.00  0.00    -0.378 OA
ATOM     17  H2* UNL     1      -1.696   2.554  -1.914  0.00  0.00    +0.211 HD
ENDBRANCH   2  16
BRANCH   3  18
ATOM     18  O3* UNL     1      -3.395   1.558   0.360  0.00  0.00    -0.379 OA
ATOM     19  H3* UNL     1      -3.520   2.386  -0.130  0.00  0.00    +0.211 HD
ENDBRANCH   3  18
BRANCH   4  20
ATOM     20  C5* UNL     1      -2.510  -1.940  -0.564  0.00  0.00    +0.169 C 
BRANCH  20  21
ATOM     21  O5* UNL     1      -2.333  -3.068   0.275  0.00  0.00    -0.379 OA
ATOM     22  H5* UNL     1      -2.269  -3.868  -0.269  0.00  0.00    +0.211 HD
ENDBRANCH  20  21
ENDBRANCH   4  20
TORSDOF 5
