REMARK  Name = 1775
REMARK  2 active torsions:
REMARK  status: ('A' for Active; 'I' for Inactive)
REMARK    1  A    between atoms: C_5  and  C_10
REMARK    2  A    between atoms: C_5  and  C_16
REMARK                            x       y       z     vdW  Elec       q    Type
REMARK                         _______ _______ _______ _____ _____    ______ ____
ROOT
ATOM      1  O   UNL     1      -0.123   1.045   2.389  0.00  0.00    -0.272 OA
ATOM      2  O   UNL     1       0.090   3.814  -1.244  0.00  0.00    -0.252 OA
ATOM      3  N   UNL     1       0.050   1.487  -1.051  0.00  0.00    -0.278 N 
ATOM      4  N   UNL     1       0.000   2.713   0.798  0.00  0.00    -0.238 N 
ATOM      5  C   UNL     1       0.004   0.465  -0.005  0.00  0.00    +0.166 C 
ATOM      6  C   UNL     1      -0.045   1.407   1.221  0.00  0.00    +0.253 C 
ATOM      7  C   UNL     1       0.052   2.794  -0.570  0.00  0.00    +0.307 C 
ATOM      8  H   UNL     1       0.077   1.270  -2.011  0.00  0.00    +0.152 HD
ATOM      9  H   UNL     1      -0.005   3.491   1.400  0.00  0.00    +0.159 HD
ENDROOT
BRANCH   5  10
ATOM     10  C   UNL     1      -1.280  -0.374  -0.030  0.00  0.00    +0.006 C 
ATOM     11  C   UNL     1      -1.501  -1.340   0.952  0.00  0.00    -0.002 C 
ATOM     12  C   UNL     1      -2.226  -0.173  -1.035  0.00  0.00    -0.002 C 
ATOM     13  C   UNL     1      -2.668  -2.103   0.930  0.00  0.00    -0.000 C 
ATOM     14  C   UNL     1      -3.393  -0.936  -1.058  0.00  0.00    -0.000 C 
ATOM     15  C   UNL     1      -3.614  -1.901  -0.075  0.00  0.00    -0.000 C 
ENDBRANCH   5  10
BRANCH   5  16
ATOM     16  C   UNL     1       1.278  -0.379  -0.109  0.00  0.00    +0.006 C 
ATOM     17  C   UNL     1       1.496  -1.188  -1.227  0.00  0.00    -0.002 C 
ATOM     18  C   UNL     1       2.230  -0.344   0.914  0.00  0.00    -0.002 C 
ATOM     19  C   UNL     1       2.657  -1.956  -1.322  0.00  0.00    -0.000 C 
ATOM     20  C   UNL     1       3.390  -1.112   0.819  0.00  0.00    -0.000 C 
ATOM     21  C   UNL     1       3.604  -1.918  -0.299  0.00  0.00    -0.000 C 
ENDBRANCH   5  16
TORSDOF 2
