REMARK  Name = 60648
REMARK  7 active torsions:
REMARK  status: ('A' for Active; 'I' for Inactive)
REMARK    1  A    between atoms: C_1  and  C_15
REMARK    2  A    between atoms: C_2  and  C_4
REMARK    3  A    between atoms: C_2  and  C_10
REMARK    4  A    between atoms: C_15  and  C_16
REMARK    5  A    between atoms: C_16  and  N_17
REMARK    6  A    between atoms: C_18  and  C_25
REMARK    7  A    between atoms: C_25  and  O_26
REMARK                            x       y       z     vdW  Elec       q    Type
REMARK                         _______ _______ _______ _____ _____    ______ ____
ROOT
ATOM      1  C   UNL     1       1.205   0.549   0.865  0.00  0.00    -0.027 C 
ATOM      2  C   UNL     1       2.330   0.135   0.238  0.00  0.00    +0.007 C 
ENDROOT
BRANCH   2   4
ATOM      3  S   UNL     1       4.620   0.732   1.528  0.00  0.00    -0.087 S 
ATOM      4  C   UNL     1       3.510   0.956   0.259  0.00  0.00    +0.026 C 
ATOM      5  C   UNL     1       3.880   1.924  -0.625  0.00  0.00    -0.015 C 
ATOM      6  C   UNL     1       5.124   2.512  -0.255  0.00  0.00    +0.003 C 
ATOM      7  C   UNL     1       3.112   2.337  -1.825  0.00  0.00    +0.032 C 
ATOM      8  C   UNL     1       5.637   1.956   0.897  0.00  0.00    +0.035 C 
ENDBRANCH   2   4
BRANCH   2  10
ATOM      9  S   UNL     1       1.813  -1.159  -2.068  0.00  0.00    -0.087 S 
ATOM     10  C   UNL     1       2.289  -1.138  -0.438  0.00  0.00    +0.026 C 
ATOM     11  C   UNL     1       2.587  -2.365   0.064  0.00  0.00    -0.015 C 
ATOM     12  C   UNL     1       2.423  -3.378  -0.924  0.00  0.00    +0.003 C 
ATOM     13  C   UNL     1       3.029  -2.650   1.452  0.00  0.00    +0.032 C 
ATOM     14  C   UNL     1       2.005  -2.860  -2.131  0.00  0.00    +0.035 C 
ENDBRANCH   2  10
BRANCH   1  15
ATOM     15  C   UNL     1      -0.124  -0.157   0.959  0.00  0.00    +0.003 C 
BRANCH  15  16
ATOM     16  C   UNL     1      -1.239   0.691   0.349  0.00  0.00    -0.073 C 
BRANCH  16  17
ATOM     17  N   UNL     1      -2.516  -0.017   0.431  0.00  0.00    +0.388 N 
ATOM     18  C   UNL     1      -4.902  -0.016  -0.229  0.00  0.00    +0.078 C 
ATOM     19  C   UNL     1      -3.569   0.740  -0.260  0.00  0.00    -0.066 C 
ATOM     20  C   UNL     1      -5.317  -0.346   1.204  0.00  0.00    +0.007 C 
ATOM     21  C   UNL     1      -4.183  -1.056   1.935  0.00  0.00    -0.022 C 
ATOM     22  C   UNL     1      -2.876  -0.268   1.833  0.00  0.00    -0.077 C 
ATOM     23  H   UNL     1      -2.420  -0.919  -0.035  0.00  0.00    -0.080 HD
BRANCH  18  25
ATOM     24  O   UNL     1      -5.992   2.037  -0.889  0.00  0.00    -0.250 OA
ATOM     25  C   UNL     1      -5.960   0.815  -0.887  0.00  0.00    +0.311 C 
BRANCH  25  26
ATOM     26  O   UNL     1      -6.886   0.027  -1.484  0.00  0.00    -0.480 OA
ATOM     27  H   UNL     1      -6.803  -0.906  -1.446  0.00  0.00    +0.295 HD
ENDBRANCH  25  26
ENDBRANCH  18  25
ENDBRANCH  16  17
ENDBRANCH  15  16
ENDBRANCH   1  15
TORSDOF 7
