REMARK  Name = 5503
REMARK  3 active torsions:
REMARK  status: ('A' for Active; 'I' for Inactive)
REMARK    1  A    between atoms: N_2  and  N_7
REMARK    2  A    between atoms: N_3  and  S_14
REMARK    3  A    between atoms: S_14  and  C_17
REMARK                            x       y       z     vdW  Elec       q    Type
REMARK                         _______ _______ _______ _____ _____    ______ ____
ROOT
ATOM      1  O   UNL     1       0.625  -0.599  -1.208  0.00  0.00    -0.250 OA
ATOM      2  N   UNL     1       1.716  -0.744   0.827  0.00  0.00    -0.230 N 
ATOM      3  N   UNL     1      -0.444  -1.590   0.616  0.00  0.00    -0.168 N 
ATOM      4  C   UNL     1       0.655  -0.936  -0.028  0.00  0.00    +0.333 C 
ATOM      5  H   UNL     1       1.662  -1.044   1.763  0.00  0.00    +0.171 HD
ATOM      6  H   UNL     1      -0.349  -1.796   1.574  0.00  0.00    +0.178 HD
ENDROOT
BRANCH   2   7
ATOM      7  N   UNL     1       2.859  -0.125   0.354  0.00  0.00    -0.205 NA
ATOM      8  C   UNL     1       5.151   1.969  -0.269  0.00  0.00    +0.002 C 
ATOM      9  C   UNL     1       5.445   0.617  -0.915  0.00  0.00    +0.002 C 
ATOM     10  C   UNL     1       3.707   2.178   0.181  0.00  0.00    +0.019 C 
ATOM     11  C   UNL     1       5.368  -0.529   0.089  0.00  0.00    +0.019 C 
ATOM     12  C   UNL     1       3.135   1.099   1.104  0.00  0.00    +0.092 C 
ATOM     13  C   UNL     1       3.960  -1.088   0.317  0.00  0.00    +0.092 C 
ENDBRANCH   2   7
BRANCH   3  14
ATOM     14  S   UNL     1      -1.909  -2.043  -0.141  0.00  0.00    +0.077 S 
ATOM     15  O   UNL     1      -1.657  -2.322  -1.541  0.00  0.00    -0.150 OA
ATOM     16  O   UNL     1      -2.600  -3.010   0.689  0.00  0.00    -0.150 OA
BRANCH  14  17
ATOM     17  C   UNL     1      -2.807  -0.522  -0.076  0.00  0.00    +0.125 C 
ATOM     18  C   UNL     1      -2.694   0.375  -1.125  0.00  0.00    +0.020 C 
ATOM     19  C   UNL     1      -3.607  -0.255   1.022  0.00  0.00    +0.020 C 
ATOM     20  C   UNL     1      -4.214   1.860   0.025  0.00  0.00    -0.022 C 
ATOM     21  C   UNL     1      -3.402   1.575  -1.073  0.00  0.00    -0.003 C 
ATOM     22  C   UNL     1      -4.316   0.945   1.072  0.00  0.00    -0.003 C 
ATOM     23  C   UNL     1      -4.971   3.144   0.080  0.00  0.00    +0.031 C 
ENDBRANCH  14  17
ENDBRANCH   3  14
TORSDOF 3
