REMARK  Name = 4943
REMARK  3 active torsions:
REMARK  status: ('A' for Active; 'I' for Inactive)
REMARK    1  A    between atoms: C_1  and  C_7
REMARK    2  A    between atoms: C_2  and  C_10
REMARK    3  A    between atoms: C_3  and  O_13
REMARK                            x       y       z     vdW  Elec       q    Type
REMARK                         _______ _______ _______ _____ _____    ______ ____
ROOT
ATOM      1  C   UNL     1      -1.208  -0.083  -0.001  0.00  0.00    +0.011 C 
ATOM      2  C   UNL     1       1.208  -0.083   0.001  0.00  0.00    +0.011 C 
ATOM      3  C   UNL     1       0.000   0.614   0.000  0.00  0.00    +0.126 C 
ATOM      4  C   UNL     1      -1.208  -1.478   0.000  0.00  0.00    -0.001 C 
ATOM      5  C   UNL     1       1.208  -1.478   0.000  0.00  0.00    -0.001 C 
ATOM      6  C   UNL     1       0.000  -2.175   0.000  0.00  0.00    -0.000 C 
ENDROOT
BRANCH   1   7
ATOM      7  C   UNL     1      -2.512   0.645   0.000  0.00  0.00    +0.025 C 
ATOM      8  C   UNL     1      -3.346   0.353   1.261  0.00  0.00    +0.005 C 
ATOM      9  C   UNL     1      -3.347   0.354  -1.260  0.00  0.00    +0.005 C 
ENDBRANCH   1   7
BRANCH   2  10
ATOM     10  C   UNL     1       2.512   0.645   0.000  0.00  0.00    +0.025 C 
ATOM     11  C   UNL     1       3.346   0.354  -1.261  0.00  0.00    +0.005 C 
ATOM     12  C   UNL     1       3.347   0.354   1.260  0.00  0.00    +0.005 C 
ENDBRANCH   2  10
BRANCH   3  13
ATOM     13  O   UNL     1      -0.001   1.978   0.000  0.00  0.00    -0.506 OA
ATOM     14  H   UNL     1      -0.813   2.446   0.000  0.00  0.00    +0.292 HD
ENDBRANCH   3  13
TORSDOF 3
