REMARK  Name = 439260
REMARK  6 active torsions:
REMARK  status: ('A' for Active; 'I' for Inactive)
REMARK    1  A    between atoms: C_1  and  C_11
REMARK    2  A    between atoms: C_4  and  O_7
REMARK    3  A    between atoms: C_6  and  O_9
REMARK    4  A    between atoms: C_11  and  O_12
REMARK    5  A    between atoms: C_11  and  C_14
REMARK    6  A    between atoms: C_14  and  N_15
REMARK                            x       y       z     vdW  Elec       q    Type
REMARK                         _______ _______ _______ _____ _____    ______ ____
ROOT
ATOM      1  C   UNL     1       0.499  -0.396  -0.115  0.00  0.00    +0.005 C 
ATOM      2  C   UNL     1      -0.166   0.830  -0.142  0.00  0.00    +0.038 C 
ATOM      3  C   UNL     1      -0.225  -1.580   0.029  0.00  0.00    +0.001 C 
ATOM      4  C   UNL     1      -1.556   0.872  -0.026  0.00  0.00    +0.167 C 
ATOM      5  C   UNL     1      -1.615  -1.538   0.145  0.00  0.00    +0.040 C 
ATOM      6  C   UNL     1      -2.280  -0.312   0.118  0.00  0.00    +0.167 C 
ENDROOT
BRANCH   4   7
ATOM      7  O   UNL     1      -2.194   2.075  -0.055  0.00  0.00    -0.503 OA
ATOM      8  H   UNL     1      -1.700   2.865  -0.152  0.00  0.00    +0.292 HD
ENDBRANCH   4   7
BRANCH   6   9
ATOM      9  O   UNL     1      -3.637  -0.283   0.231  0.00  0.00    -0.503 OA
ATOM     10  H   UNL     1      -4.091   0.536   0.213  0.00  0.00    +0.292 HD
ENDBRANCH   6   9
BRANCH   1  11
ATOM     11  C   UNL     1       1.984  -0.442  -0.238  0.00  0.00    +0.111 C 
BRANCH  11  12
ATOM     12  O   UNL     1       2.362   0.060  -1.527  0.00  0.00    -0.382 OA
ATOM     13  H   UNL     1       1.920  -0.458  -2.218  0.00  0.00    +0.211 HD
ENDBRANCH  11  12
BRANCH  11  14
ATOM     14  C   UNL     1       2.686   0.383   0.859  0.00  0.00    -0.052 C 
BRANCH  14  15
ATOM     15  N   UNL     1       4.140   0.331   0.723  0.00  0.00    +0.382 N 
ATOM     16  H   UNL     1       4.571   0.885   1.462  0.00  0.00    -0.089 HD
ATOM     17  H   UNL     1       4.410   0.709  -0.186  0.00  0.00    -0.089 HD
ATOM     18  H   UNL     1       4.455  -0.636   0.796  0.00  0.00    -0.089 HD
ENDBRANCH  14  15
ENDBRANCH  11  14
ENDBRANCH   1  11
TORSDOF 6
