REMARK  Name = 5593
REMARK  7 active torsions:
REMARK  status: ('A' for Active; 'I' for Inactive)
REMARK    1  A    between atoms: N_2  and  C_4
REMARK    2  A    between atoms: N_2  and  C_16
REMARK    3  A    between atoms: C_3  and  C_6
REMARK    4  A    between atoms: C_6  and  C_7
REMARK    5  A    between atoms: C_6  and  C_13
REMARK    6  A    between atoms: C_13  and  O_14
REMARK    7  A    between atoms: C_16  and  C_18
REMARK                            x       y       z     vdW  Elec       q    Type
REMARK                         _______ _______ _______ _____ _____    ______ ____
ROOT
ATOM      1  O   UNL     1      -1.468  -2.039  -1.404  0.00  0.00    -0.274 OA
ATOM      2  N   UNL     1       0.433  -1.608  -0.159  0.00  0.00    -0.275 N 
ATOM      3  C   UNL     1      -0.940  -1.520  -0.413  0.00  0.00    +0.232 C 
ENDROOT
BRANCH   2   4
ATOM      4  C   UNL     1       1.274  -2.394  -1.055  0.00  0.00    +0.094 C 
ATOM      5  C   UNL     1       1.374  -3.835  -0.600  0.00  0.00    +0.023 C 
ENDBRANCH   2   4
BRANCH   3   6
ATOM      6  C   UNL     1      -1.811  -0.758   0.603  0.00  0.00    +0.128 C 
BRANCH   6   7
ATOM      7  C   UNL     1      -1.964   0.706   0.224  0.00  0.00    -0.011 C 
ATOM      8  C   UNL     1      -2.131   1.642   1.224  0.00  0.00    -0.004 C 
ATOM      9  C   UNL     1      -1.930   1.058  -1.111  0.00  0.00    -0.004 C 
ATOM     10  C   UNL     1      -2.272   2.986   0.876  0.00  0.00    -0.000 C 
ATOM     11  C   UNL     1      -2.070   2.402  -1.459  0.00  0.00    -0.000 C 
ATOM     12  C   UNL     1      -2.241   3.365  -0.465  0.00  0.00    -0.000 C 
ENDBRANCH   6   7
BRANCH   6  13
ATOM     13  C   UNL     1      -3.207  -1.393   0.734  0.00  0.00    +0.151 C 
BRANCH  13  14
ATOM     14  O   UNL     1      -3.092  -2.775   1.054  0.00  0.00    -0.381 OA
ATOM     15  H   UNL     1      -3.977  -3.164   1.134  0.00  0.00    +0.210 HD
ENDBRANCH  13  14
ENDBRANCH   6  13
ENDBRANCH   3   6
BRANCH   2  16
ATOM     16  C   UNL     1       1.132  -1.025   0.984  0.00  0.00    +0.120 C 
BRANCH  16  18
ATOM     17  N   UNL     1       4.132   1.781  -0.238  0.00  0.00    -0.242 NA
ATOM     18  C   UNL     1       2.186  -0.039   0.555  0.00  0.00    +0.001 C 
ATOM     19  C   UNL     1       1.891   0.893  -0.423  0.00  0.00    +0.018 C 
ATOM     20  C   UNL     1       3.437  -0.077   1.143  0.00  0.00    +0.018 C 
ATOM     21  C   UNL     1       2.895   1.778  -0.783  0.00  0.00    +0.099 C 
ATOM     22  C   UNL     1       4.371   0.851   0.714  0.00  0.00    +0.099 C 
ENDBRANCH  16  18
ENDBRANCH   2  16
TORSDOF 7
