REMARK  Name = 5403
REMARK  7 active torsions:
REMARK  status: ('A' for Active; 'I' for Inactive)
REMARK    1  A    between atoms: C_1  and  C_2
REMARK    2  A    between atoms: C_1  and  O_12
REMARK    3  A    between atoms: C_1  and  C_14
REMARK    4  A    between atoms: C_5  and  O_8
REMARK    5  A    between atoms: C_6  and  O_10
REMARK    6  A    between atoms: C_14  and  N_15
REMARK    7  A    between atoms: N_15  and  C_18
REMARK                            x       y       z     vdW  Elec       q    Type
REMARK                         _______ _______ _______ _____ _____    ______ ____
ROOT
ATOM      1  C   UNL     1      -0.314   0.784  -0.837  0.00  0.00    +0.112 C 
ENDROOT
BRANCH   1   2
ATOM      2  C   UNL     1       1.066   0.361  -0.381  0.00  0.00    +0.008 C 
ATOM      3  C   UNL     1       1.976   1.330   0.006  0.00  0.00    +0.035 C 
ATOM      4  C   UNL     1       1.387  -0.985  -0.360  0.00  0.00    +0.035 C 
ATOM      5  C   UNL     1       2.659  -1.375   0.060  0.00  0.00    +0.136 C 
ATOM      6  C   UNL     1       3.248   0.940   0.426  0.00  0.00    +0.136 C 
ATOM      7  C   UNL     1       3.589  -0.412   0.454  0.00  0.00    +0.073 C 
BRANCH   5   8
ATOM      8  O   UNL     1       2.992  -2.694   0.087  0.00  0.00    -0.505 OA
ATOM      9  H   UNL     1       2.367  -3.341  -0.177  0.00  0.00    +0.292 HD
ENDBRANCH   5   8
BRANCH   6  10
ATOM     10  O   UNL     1       4.155   1.879   0.811  0.00  0.00    -0.505 OA
ATOM     11  H   UNL     1       3.925   2.787   0.793  0.00  0.00    +0.292 HD
ENDBRANCH   6  10
ENDBRANCH   1   2
BRANCH   1  12
ATOM     12  O   UNL     1      -0.464   0.411  -2.207  0.00  0.00    -0.382 OA
ATOM     13  H   UNL     1      -1.344   0.675  -2.518  0.00  0.00    +0.211 HD
ENDBRANCH   1  12
BRANCH   1  14
ATOM     14  C   UNL     1      -1.411   0.134   0.014  0.00  0.00    -0.047 C 
BRANCH  14  15
ATOM     15  N   UNL     1      -2.728   0.550  -0.435  0.00  0.00    +0.388 N 
ATOM     16  H   UNL     1      -2.803   1.564  -0.361  0.00  0.00    -0.084 HD
ATOM     17  H   UNL     1      -2.853   0.256  -1.404  0.00  0.00    -0.084 HD
BRANCH  15  18
ATOM     18  C   UNL     1      -3.773  -0.072   0.385  0.00  0.00    -0.046 C 
ATOM     19  C   UNL     1      -5.140   0.387  -0.133  0.00  0.00    -0.022 C 
ATOM     20  C   UNL     1      -3.648  -1.594   0.263  0.00  0.00    -0.022 C 
ATOM     21  C   UNL     1      -3.593   0.355   1.847  0.00  0.00    -0.022 C 
ENDBRANCH  15  18
ENDBRANCH  14  15
ENDBRANCH   1  14
TORSDOF 7
