REMARK  Name = 3000715
REMARK  4 active torsions:
REMARK  status: ('A' for Active; 'I' for Inactive)
REMARK    1  A    between atoms: C_6  and  C_12
REMARK    2  A    between atoms: C_6  and  C_17
REMARK    3  A    between atoms: C_12  and  C_14
REMARK    4  A    between atoms: C_14  and  C_15
REMARK                            x       y       z     vdW  Elec       q    Type
REMARK                         _______ _______ _______ _____ _____    ______ ____
ROOT
ATOM      1  S   UNL     1      -3.353   2.504  -0.594  0.00  0.00    -0.018 S 
ATOM      2  O   UNL     1      -1.420  -1.997  -1.321  0.00  0.00    -0.274 OA
ATOM      3  O   UNL     1       0.192   0.573   2.274  0.00  0.00    -0.274 OA
ATOM      4  N   UNL     1      -2.175   0.141  -0.970  0.00  0.00    -0.267 N 
ATOM      5  N   UNL     1      -1.369   1.424   0.824  0.00  0.00    -0.267 N 
ATOM      6  C   UNL     1      -0.123  -0.585   0.165  0.00  0.00    +0.138 C 
ATOM      7  C   UNL     1      -1.296  -0.910  -0.756  0.00  0.00    +0.235 C 
ATOM      8  C   UNL     1      -0.416   0.493   1.206  0.00  0.00    +0.235 C 
ATOM      9  C   UNL     1      -2.237   1.310  -0.241  0.00  0.00    +0.143 C 
ATOM     10  H   UNL     1      -2.814   0.044  -1.712  0.00  0.00    +0.157 HD
ATOM     11  H   UNL     1      -1.432   2.245   1.364  0.00  0.00    +0.157 HD
ENDROOT
BRANCH   6  12
ATOM     12  C   UNL     1       1.013  -0.052  -0.726  0.00  0.00    +0.016 C 
ATOM     13  C   UNL     1       1.367  -1.094  -1.790  0.00  0.00    +0.001 C 
BRANCH  12  14
ATOM     14  C   UNL     1       2.273   0.314   0.081  0.00  0.00    +0.001 C 
BRANCH  14  15
ATOM     15  C   UNL     1       3.394   0.909  -0.776  0.00  0.00    +0.000 C 
ATOM     16  C   UNL     1       4.585   1.318   0.077  0.00  0.00    +0.000 C 
ENDBRANCH  14  15
ENDBRANCH  12  14
ENDBRANCH   6  12
BRANCH   6  17
ATOM     17  C   UNL     1       0.344  -1.866   0.872  0.00  0.00    +0.017 C 
ATOM     18  C   UNL     1      -0.780  -2.482   1.673  0.00  0.00    +0.001 C 
ENDBRANCH   6  17
TORSDOF 4
