REMARK  Name = 6869
REMARK  6 active torsions:
REMARK  status: ('A' for Active; 'I' for Inactive)
REMARK    1  A    between atoms: CA_6  and  C_24
REMARK    2  A    between atoms: CA_7  and  N_12
REMARK    3  A    between atoms: C_13  and  C_15
REMARK    4  A    between atoms: C_15  and  O_16
REMARK    5  A    between atoms: O_16  and  C_17
REMARK    6  A    between atoms: C_24  and  O_25
REMARK                            x       y       z     vdW  Elec       q    Type
REMARK                         _______ _______ _______ _____ _____    ______ ____
ROOT
ATOM      1  S   UNL     1      -2.026  -1.293  -1.170  0.00  0.00    -0.118 S 
ATOM      2  O   UNL     1      -2.024   1.957   1.805  0.00  0.00    -0.273 OA
ATOM      3  N   UNL     1      -3.014   0.798   0.003  0.00  0.00    -0.260 N 
ATOM      4  C   UNL     1      -2.177   0.531  -1.170  0.00  0.00    +0.151 C 
ATOM      5  C   UNL     1      -3.719  -1.472  -0.416  0.00  0.00    +0.068 C 
ATOM      6  CA  UNL     1      -3.813  -0.276   0.556  0.00  0.00    +0.184 C 
ATOM      7  CA  UNL     1      -1.059   1.317  -0.470  0.00  0.00    +0.178 C 
ATOM      8  C   UNL     1      -2.064   1.504   0.684  0.00  0.00    +0.247 C 
ATOM      9  C   UNL     1      -4.748  -1.450  -1.554  0.00  0.00    +0.013 C 
ATOM     10  C   UNL     1      -3.793  -2.805   0.331  0.00  0.00    +0.013 C 
ENDROOT
BRANCH   7  12
ATOM     11  O   UNL     1       1.518   1.361  -1.804  0.00  0.00    -0.271 OA
ATOM     12  N   UNL     1       0.155   0.580  -0.091  0.00  0.00    -0.293 N 
ATOM     13  C   UNL     1       1.352   0.670  -0.802  0.00  0.00    +0.267 C 
ATOM     14  H   UNL     1       0.122  -0.004   0.701  0.00  0.00    +0.150 HD
BRANCH  13  15
ATOM     15  C   UNL     1       2.444  -0.188  -0.202  0.00  0.00    +0.289 C 
BRANCH  15  16
ATOM     16  O   UNL     1       3.640  -0.059  -0.940  0.00  0.00    -0.466 OA
BRANCH  16  17
ATOM     17  C   UNL     1       4.822  -0.210  -0.253  0.00  0.00    +0.139 C 
ATOM     18  C   UNL     1       4.866  -1.043   0.856  0.00  0.00    +0.037 C 
ATOM     19  C   UNL     1       5.952   0.474  -0.678  0.00  0.00    +0.037 C 
ATOM     20  C   UNL     1       6.064  -1.195   1.554  0.00  0.00    +0.003 C 
ATOM     21  C   UNL     1       7.150   0.322   0.019  0.00  0.00    +0.003 C 
ATOM     22  C   UNL     1       7.206  -0.513   1.135  0.00  0.00    +0.000 C 
ENDBRANCH  16  17
ENDBRANCH  15  16
ENDBRANCH  13  15
ENDBRANCH   7  12
BRANCH   6  24
ATOM     23  OXT UNL     1      -5.563   1.385   0.458  0.00  0.00    -0.248 OA
ATOM     24  C   UNL     1      -5.191   0.265   0.774  0.00  0.00    +0.333 C 
BRANCH  24  25
ATOM     25  O   UNL     1      -5.979  -0.660   1.375  0.00  0.00    -0.479 OA
ATOM     26  H   UNL     1      -5.630  -1.503   1.592  0.00  0.00    +0.295 HD
ENDBRANCH  24  25
ENDBRANCH   6  24
TORSDOF 6
