REMARK  Name = 20824
REMARK  7 active torsions:
REMARK  status: ('A' for Active; 'I' for Inactive)
REMARK    1  A    between atoms: N_2  and  CA_11
REMARK    2  A    between atoms: C_3  and  C_19
REMARK    3  A    between atoms: CA_10  and  C_16
REMARK    4  A    between atoms: C_16  and  O_17
REMARK    5  A    between atoms: C_19  and  C_20
REMARK    6  A    between atoms: C_19  and  C_27
REMARK    7  A    between atoms: C_27  and  O_28
REMARK                            x       y       z     vdW  Elec       q    Type
REMARK                         _______ _______ _______ _____ _____    ______ ____
ROOT
ATOM      1  O   UNL     1       1.592  -1.099   1.717  0.00  0.00    -0.274 OA
ATOM      2  N   UNL     1       0.292  -1.481  -0.167  0.00  0.00    -0.296 N 
ATOM      3  C   UNL     1       1.478  -1.161   0.494  0.00  0.00    +0.237 C 
ATOM      4  H   UNL     1       0.294  -1.507  -1.151  0.00  0.00    +0.150 HD
ENDROOT
BRANCH   2  11
ATOM      5  S   UNL     1      -1.145   1.076   0.740  0.00  0.00    -0.118 S 
ATOM      6  O   UNL     1      -2.473  -2.563  -1.360  0.00  0.00    -0.273 OA
ATOM      7  N   UNL     1      -2.798  -0.860   0.241  0.00  0.00    -0.260 N 
ATOM      8  C   UNL     1      -1.708  -0.607   1.188  0.00  0.00    +0.151 C 
ATOM      9  C   UNL     1      -2.867   1.552   0.211  0.00  0.00    +0.068 C 
ATOM     10  CA  UNL     1      -3.421   0.262  -0.430  0.00  0.00    +0.184 C 
ATOM     11  CA  UNL     1      -0.960  -1.781   0.541  0.00  0.00    +0.178 C 
ATOM     12  C   UNL     1      -2.188  -1.910  -0.382  0.00  0.00    +0.247 C 
ATOM     13  C   UNL     1      -3.629   2.023   1.457  0.00  0.00    +0.013 C 
ATOM     14  C   UNL     1      -2.777   2.688  -0.809  0.00  0.00    +0.013 C 
BRANCH  10  16
ATOM     15  OXT UNL     1      -5.451  -0.821   0.302  0.00  0.00    -0.248 OA
ATOM     16  C   UNL     1      -4.901   0.077  -0.317  0.00  0.00    +0.333 C 
BRANCH  16  17
ATOM     17  O   UNL     1      -5.558   1.046  -1.001  0.00  0.00    -0.479 OA
ATOM     18  H   UNL     1      -5.075   1.708  -1.456  0.00  0.00    +0.295 HD
ENDBRANCH  16  17
ENDBRANCH  10  16
ENDBRANCH   2  11
BRANCH   3  19
ATOM     19  C   UNL     1       2.646  -0.895  -0.455  0.00  0.00    +0.197 C 
BRANCH  19  20
ATOM     20  C   UNL     1       3.143   0.533  -0.295  0.00  0.00    -0.003 C 
ATOM     21  C   UNL     1       2.586   1.525  -1.077  0.00  0.00    -0.003 C 
ATOM     22  C   UNL     1       4.136   0.796   0.627  0.00  0.00    -0.003 C 
ATOM     23  C   UNL     1       3.042   2.836  -0.930  0.00  0.00    -0.000 C 
ATOM     24  C   UNL     1       4.593   2.106   0.773  0.00  0.00    -0.000 C 
ATOM     25  C   UNL     1       4.046   3.126  -0.006  0.00  0.00    -0.000 C 
ENDBRANCH  19  20
BRANCH  19  27
ATOM     26  O   UNL     1       3.800  -2.833   0.491  0.00  0.00    -0.249 OA
ATOM     27  C   UNL     1       3.769  -1.914  -0.317  0.00  0.00    +0.326 C 
BRANCH  27  28
ATOM     28  O   UNL     1       4.751  -1.720  -1.238  0.00  0.00    -0.480 OA
ATOM     29  H   UNL     1       4.693  -1.005  -1.841  0.00  0.00    +0.295 HD
ENDBRANCH  27  28
ENDBRANCH  19  27
ENDBRANCH   3  19
TORSDOF 7
