REMARK  Name = 190
REMARK  0 active torsions:
REMARK  status: ('A' for Active; 'I' for Inactive)
REMARK                            x       y       z     vdW  Elec       q    Type
REMARK                         _______ _______ _______ _____ _____    ______ ____
ROOT
ATOM      1  N   UNL     1      -1.199  -1.400   0.000  0.00  0.00    -0.270 NA
ATOM      2  N   UNL     1      -2.075   0.650   0.000  0.00  0.00    -0.307 N 
ATOM      3  N   UNL     1       0.034   1.859   0.000  0.00  0.00    -0.232 NA
ATOM      4  N   UNL     1       2.000   0.415   0.000  0.00  0.00    -0.233 NA
ATOM      5  C   UNL     1      -0.136  -0.542   0.000  0.00  0.00    +0.164 C 
ATOM      6  C   UNL     1      -0.706   0.724   0.000  0.00  0.00    +0.125 C 
ATOM      7  C   UNL     1       1.236  -0.700   0.000  0.00  0.00    +0.121 C 
ATOM      8  C   UNL     1      -2.339  -0.639   0.000  0.00  0.00    +0.163 C 
ATOM      9  C   UNL     1       1.361   1.609   0.000  0.00  0.00    +0.252 C 
ATOM     10  H   UNL     1      -1.154  -2.383   0.000  0.00  0.00    +0.126 HD
ATOM     11  H   UNL     1      -2.718   1.395   0.000  0.00  0.00    +0.149 HD
ATOM     12  N   UNL     1       1.824  -1.976   0.000  0.00  0.00    -0.345 N 
ATOM     13  H   UNL     1       2.804  -2.066   0.000  0.00  0.00    +0.143 HD
ATOM     14  H   UNL     1       1.256  -2.780   0.000  0.00  0.00    +0.143 HD
ENDROOT
TORSDOF 0
