REMARK  Name = 9047
REMARK  4 active torsions:
REMARK  status: ('A' for Active; 'I' for Inactive)
REMARK    1  A    between atoms: S_1  and  N_4
REMARK    2  A    between atoms: S_1  and  C_14
REMARK    3  A    between atoms: C_8  and  O_12
REMARK    4  A    between atoms: C_17  and  N_20
REMARK                            x       y       z     vdW  Elec       q    Type
REMARK                         _______ _______ _______ _____ _____    ______ ____
ROOT
ATOM      1  S   UNL     1       0.233  -2.297   0.286  0.00  0.00    +0.075 S 
ATOM      2  O   UNL     1       0.832  -3.093   1.351  0.00  0.00    -0.150 OA
ATOM      3  O   UNL     1      -0.077  -2.942  -0.984  0.00  0.00    -0.150 OA
ENDROOT
BRANCH   1   4
ATOM      4  N   UNL     1      -1.185  -1.546   0.913  0.00  0.00    -0.195 N 
ATOM      5  N   UNL     1      -2.318  -0.814  -1.023  0.00  0.00    -0.222 NA
ATOM      6  N   UNL     1      -2.322   1.825  -0.073  0.00  0.00    -0.206 NA
ATOM      7  C   UNL     1      -1.774  -0.474   0.157  0.00  0.00    +0.201 C 
ATOM      8  C   UNL     1      -1.771   0.814   0.629  0.00  0.00    +0.259 C 
ATOM      9  C   UNL     1      -2.869   0.196  -1.725  0.00  0.00    +0.121 C 
ATOM     10  C   UNL     1      -2.870   1.492  -1.258  0.00  0.00    +0.123 C 
ATOM     11  H   UNL     1      -1.581  -1.842   1.764  0.00  0.00    +0.175 HD
BRANCH   8  12
ATOM     12  O   UNL     1      -1.207   1.130   1.834  0.00  0.00    -0.454 OA
ATOM     13  C   UNL     1      -1.259   2.496   2.230  0.00  0.00    +0.254 C 
ENDBRANCH   8  12
ENDBRANCH   1   4
BRANCH   1  14
ATOM     14  C   UNL     1       1.287  -0.939  -0.020  0.00  0.00    +0.125 C 
ATOM     15  C   UNL     1       2.153  -0.490   0.977  0.00  0.00    +0.021 C 
ATOM     16  C   UNL     1       1.262  -0.302  -1.260  0.00  0.00    +0.021 C 
ATOM     17  C   UNL     1       2.969   1.233  -0.507  0.00  0.00    +0.042 C 
ATOM     18  C   UNL     1       2.994   0.596   0.733  0.00  0.00    +0.015 C 
ATOM     19  C   UNL     1       2.103   0.784  -1.504  0.00  0.00    +0.015 C 
BRANCH  17  20
ATOM     20  N   UNL     1       3.820   2.330  -0.755  0.00  0.00    -0.357 N 
ATOM     21  H   UNL     1       4.432   2.647  -0.052  0.00  0.00    +0.142 HD
ATOM     22  H   UNL     1       3.803   2.778  -1.632  0.00  0.00    +0.142 HD
ENDBRANCH  17  20
ENDBRANCH   1  14
TORSDOF 4
