REMARK  Name = 3007
REMARK  3 active torsions:
REMARK  status: ('A' for Active; 'I' for Inactive)
REMARK    1  A    between atoms: C_1  and  C_2
REMARK    2  A    between atoms: C_1  and  C_8
REMARK    3  A    between atoms: C_8  and  N_10
REMARK                            x       y       z     vdW  Elec       q    Type
REMARK                         _______ _______ _______ _____ _____    ______ ____
ROOT
ATOM      1  C   UNL     1      -1.222  -0.457   0.792  0.00  0.00    +0.004 C 
ENDROOT
BRANCH   1   2
ATOM      2  C   UNL     1       0.212  -0.235   0.402  0.00  0.00    -0.024 C 
ATOM      3  C   UNL     1       0.948  -1.285  -0.132  0.00  0.00    -0.004 C 
ATOM      4  C   UNL     1       0.785   1.018   0.581  0.00  0.00    -0.004 C 
ATOM      5  C   UNL     1       2.280  -1.078  -0.494  0.00  0.00    -0.000 C 
ATOM      6  C   UNL     1       2.116   1.224   0.219  0.00  0.00    -0.000 C 
ATOM      7  C   UNL     1       2.864   0.176  -0.318  0.00  0.00    -0.000 C 
ENDBRANCH   1   2
BRANCH   1   8
ATOM      8  C   UNL     1      -2.224  -0.176  -0.344  0.00  0.00    -0.061 C 
ATOM      9  C   UNL     1      -2.175   1.273  -0.828  0.00  0.00    -0.024 C 
BRANCH   8  10
ATOM     10  N   UNL     1      -3.585  -0.460   0.122  0.00  0.00    +0.382 N 
ATOM     11  H   UNL     1      -3.638  -1.424   0.450  0.00  0.00    -0.089 HD
ATOM     12  H   UNL     1      -4.242  -0.325  -0.647  0.00  0.00    -0.089 HD
ATOM     13  H   UNL     1      -3.822   0.173   0.886  0.00  0.00    -0.089 HD
ENDBRANCH   8  10
ENDBRANCH   1   8
TORSDOF 3
