3675
  -OEChem-10051719233D

 22 22  0     0  0  0  0  0  0999 V2000
    3.3545   -0.0187    0.2822 N   0  0  0  0  0  0  0  0  0  0  0  0
    4.2347    0.0116   -0.8405 N   0  0  0  0  0  0  0  0  0  0  0  0
    0.9643    0.0023    0.9374 C   0  0  0  0  0  0  0  0  0  0  0  0
   -0.4414    0.0008    0.4389 C   0  0  0  0  0  0  0  0  0  0  0  0
    1.9824    0.0068   -0.2131 C   0  0  0  0  0  0  0  0  0  0  0  0
   -1.1008    1.2082    0.2082 C   0  0  0  0  0  0  0  0  0  0  0  0
   -1.0967   -1.2079    0.2030 C   0  0  0  0  0  0  0  0  0  0  0  0
   -2.4153    1.2071   -0.2582 C   0  0  0  0  0  0  0  0  0  0  0  0
   -2.4113   -1.2089   -0.2636 C   0  0  0  0  0  0  0  0  0  0  0  0
   -3.0705   -0.0014   -0.4942 C   0  0  0  0  0  0  0  0  0  0  0  0
    1.1261    0.8745    1.5848 H   0  0  0  0  0  0  0  0  0  0  0  0
    1.1288   -0.8741    1.5786 H   0  0  0  0  0  0  0  0  0  0  0  0
    1.8176    0.8990   -0.8329 H   0  0  0  0  0  0  0  0  0  0  0  0
    1.8034   -0.8683   -0.8523 H   0  0  0  0  0  0  0  0  0  0  0  0
   -0.6007    2.1565    0.3862 H   0  0  0  0  0  0  0  0  0  0  0  0
   -0.5935   -2.1554    0.3768 H   0  0  0  0  0  0  0  0  0  0  0  0
    3.5262    0.7975    0.8681 H   0  0  0  0  0  0  0  0  0  0  0  0
   -2.9286    2.1472   -0.4384 H   0  0  0  0  0  0  0  0  0  0  0  0
   -2.9214   -2.1498   -0.4480 H   0  0  0  0  0  0  0  0  0  0  0  0
   -4.0938   -0.0022   -0.8578 H   0  0  0  0  0  0  0  0  0  0  0  0
    4.1792    0.9244   -1.2917 H   0  0  0  0  0  0  0  0  0  0  0  0
    5.1940   -0.0765   -0.5080 H   0  0  0  0  0  0  0  0  0  0  0  0
  1  2  1  0  0  0  0
  1  5  1  0  0  0  0
  1 17  1  0  0  0  0
  2 21  1  0  0  0  0
  2 22  1  0  0  0  0
  3  4  1  0  0  0  0
  3  5  1  0  0  0  0
  3 11  1  0  0  0  0
  3 12  1  0  0  0  0
  4  6  2  0  0  0  0
  4  7  1  0  0  0  0
  5 13  1  0  0  0  0
  5 14  1  0  0  0  0
  6  8  1  0  0  0  0
  6 15  1  0  0  0  0
  7  9  2  0  0  0  0
  7 16  1  0  0  0  0
  8 10  2  0  0  0  0
  8 18  1  0  0  0  0
  9 10  1  0  0  0  0
  9 19  1  0  0  0  0
 10 20  1  0  0  0  0
M  END
> <DATABASE_ID>
DB00780

> <DATABASE_NAME>
drugbank

> <ORIGINAL_SOURCE>
PUBCHEM

> <ORIGINAL_SOURCE_URL>
https://pubchem.ncbi.nlm.nih.gov/rest/pug/compound/inchikey/RMUCZJUITONUFY-UHFFFAOYSA-N/SDF?record_type=3d

> <SMILES>
NNCCC1=CC=CC=C1

> <INCHI_IDENTIFIER>
InChI=1S/C8H12N2/c9-10-7-6-8-4-2-1-3-5-8/h1-5,10H,6-7,9H2

> <INCHI_KEY>
RMUCZJUITONUFY-UHFFFAOYSA-N

> <FORMULA>
C8H12N2

> <MOLECULAR_WEIGHT>
136.1943

> <EXACT_MASS>
136.100048394

> <JCHEM_ACCEPTOR_COUNT>
2

> <JCHEM_AVERAGE_POLARIZABILITY>
15.80491818632689

> <JCHEM_BIOAVAILABILITY>
1

> <JCHEM_DONOR_COUNT>
2

> <JCHEM_FORMAL_CHARGE>
0

> <JCHEM_GHOSE_FILTER>
0

> <JCHEM_IUPAC>
(2-phenylethyl)hydrazine

> <ALOGPS_LOGP>
1.20

> <JCHEM_LOGP>
1.2030200426666668

> <ALOGPS_LOGS>
-1.09

> <JCHEM_MDDR_LIKE_RULE>
0

> <JCHEM_NUMBER_OF_RINGS>
1

> <JCHEM_PHYSIOLOGICAL_CHARGE>
0

> <JCHEM_PKA_STRONGEST_BASIC>
5.552264894779207

> <JCHEM_POLAR_SURFACE_AREA>
38.05

> <JCHEM_REFRACTIVITY>
54.263300000000015

> <JCHEM_ROTATABLE_BOND_COUNT>
3

> <JCHEM_RULE_OF_FIVE>
1

> <ALOGPS_SOLUBILITY>
1.11e+01 g/l

> <JCHEM_TRADITIONAL_IUPAC>
phenelzine

> <JCHEM_VEBER_RULE>
1

> <DRUGBANK_ID>
DB00780

> <SECONDARY_ACCESSION_NUMBERS>
APRD00099

> <DRUG_GROUPS>
approved

> <GENERIC_NAME>
Phenelzine

> <SYNONYMS>
Fenelzina; Phenelzin; Phenelzine; PhÃ©nelzine; Phenelzinum

> <PRODUCTS>
Nardil; Phenelzine Sulfate

> <INTERNATIONAL_BRANDS>
Margyl; Nardelzine

> <SALTS>
Phenelzine sulfate

$$$$
