REMARK  Name = 6005
REMARK  2 active torsions:
REMARK  status: ('A' for Active; 'I' for Inactive)
REMARK    1  A    between atoms: C_15  and  O_20
REMARK    2  A    between atoms: C_17  and  O_22
REMARK                            x       y       z     vdW  Elec       q    Type
REMARK                         _______ _______ _______ _____ _____    ______ ____
ROOT
ATOM      1  N   UNL     1      -2.728   1.680  -0.077  0.00  0.00    +0.390 N 
ATOM      2  C   UNL     1      -1.374   1.147   0.226  0.00  0.00    -0.031 C 
ATOM      3  C   UNL     1      -1.265  -0.366   0.008  0.00  0.00    -0.045 C 
ATOM      4  C   UNL     1      -0.286   1.851  -0.618  0.00  0.00    +0.010 C 
ATOM      5  C   UNL     1      -2.427  -1.161  -0.012  0.00  0.00    -0.030 C 
ATOM      6  C   UNL     1      -3.747   0.888   0.629  0.00  0.00    -0.072 C 
ATOM      7  C   UNL     1      -3.790  -0.531   0.070  0.00  0.00    +0.003 C 
ATOM      8  C   UNL     1       0.016  -0.963  -0.108  0.00  0.00    -0.003 C 
ATOM      9  C   UNL     1       1.085   1.277  -0.340  0.00  0.00    -0.021 C 
ATOM     10  C   UNL     1       1.224  -0.105  -0.091  0.00  0.00    +0.032 C 
ATOM     11  C   UNL     1      -2.868   3.090   0.305  0.00  0.00    -0.100 C 
ATOM     12  C   UNL     1      -2.322  -2.546  -0.178  0.00  0.00    -0.005 C 
ATOM     13  C   UNL     1       0.082  -2.358  -0.271  0.00  0.00    -0.000 C 
ATOM     14  C   UNL     1       2.210   2.116  -0.374  0.00  0.00    -0.001 C 
ATOM     15  C   UNL     1       2.516  -0.597   0.166  0.00  0.00    +0.167 C 
ATOM     16  C   UNL     1      -1.073  -3.140  -0.303  0.00  0.00    -0.000 C 
ATOM     17  C   UNL     1       3.631   0.246   0.147  0.00  0.00    +0.167 C 
ATOM     18  C   UNL     1       3.479   1.600  -0.129  0.00  0.00    +0.039 C 
ATOM     19  H   UNL     1      -2.858   1.612  -1.087  0.00  0.00    -0.079 HD
ENDROOT
BRANCH  15  20
ATOM     20  O   UNL     1       2.758  -1.889   0.541  0.00  0.00    -0.503 OA
ATOM     21  H   UNL     1       2.054  -2.507   0.574  0.00  0.00    +0.292 HD
ENDBRANCH  15  20
BRANCH  17  22
ATOM     22  O   UNL     1       4.878  -0.239   0.410  0.00  0.00    -0.503 OA
ATOM     23  H   UNL     1       4.996  -1.149   0.597  0.00  0.00    +0.292 HD
ENDBRANCH  17  22
TORSDOF 2
