REMARK  Name = 6789253
REMARK  1 active torsions:
REMARK  status: ('A' for Active; 'I' for Inactive)
REMARK    1  A    between atoms: C_8  and  N_10
REMARK                            x       y       z     vdW  Elec       q    Type
REMARK                         _______ _______ _______ _____ _____    ______ ____
ROOT
ATOM      1  N   UNL     1      -0.987  -0.981  -0.008  0.00  0.00    -0.283 N 
ATOM      2  C   UNL     1       0.186  -0.186   0.060  0.00  0.00    +0.071 C 
ATOM      3  C   UNL     1      -2.232  -0.349  -0.069  0.00  0.00    +0.065 C 
ATOM      4  C   UNL     1      -0.001   1.274   0.061  0.00  0.00    +0.016 C 
ATOM      5  C   UNL     1      -0.919  -2.445  -0.017  0.00  0.00    +0.117 C 
ATOM      6  C   UNL     1      -2.398   0.982  -0.067  0.00  0.00    +0.016 C 
ATOM      7  C   UNL     1      -1.226   1.823   0.001  0.00  0.00    +0.003 C 
ATOM      8  C   UNL     1       1.447  -0.655   0.123  0.00  0.00    +0.113 C 
ENDROOT
BRANCH   8  10
ATOM      9  O   UNL     1       3.659   0.210  -0.269  0.00  0.00    -0.088 OA
ATOM     10  N   UNL     1       2.471   0.327   0.185  0.00  0.00    -0.229 N 
ATOM     11  H   UNL     1       2.243   1.181   0.620  0.00  0.00    +0.197 HD
ENDBRANCH   8  10
TORSDOF 1
