REMARK  Name = 5719
REMARK  4 active torsions:
REMARK  status: ('A' for Active; 'I' for Inactive)
REMARK    1  A    between atoms: C_1  and  C_10
REMARK    2  A    between atoms: C_2  and  N_19
REMARK    3  A    between atoms: C_13  and  C_17
REMARK    4  A    between atoms: N_19  and  C_22
REMARK                            x       y       z     vdW  Elec       q    Type
REMARK                         _______ _______ _______ _____ _____    ______ ____
ROOT
ATOM      1  C   UNL     1      -0.375  -1.099   0.155  0.00  0.00    +0.003 C 
ATOM      2  C   UNL     1      -2.657  -0.347   0.419  0.00  0.00    +0.054 C 
ATOM      3  C   UNL     1      -1.391  -0.191  -0.146  0.00  0.00    +0.013 C 
ATOM      4  C   UNL     1      -0.626  -2.163   1.022  0.00  0.00    -0.002 C 
ATOM      5  C   UNL     1      -2.907  -1.411   1.286  0.00  0.00    +0.015 C 
ATOM      6  C   UNL     1      -1.892  -2.318   1.588  0.00  0.00    +0.001 C 
ENDROOT
BRANCH   1  10
ATOM      7  N   UNL     1       1.969  -0.188   0.191  0.00  0.00    -0.191 N 
ATOM      8  N   UNL     1       1.893   0.491   1.371  0.00  0.00    -0.178 NA
ATOM      9  N   UNL     1       3.553  -0.635  -1.571  0.00  0.00    -0.231 NA
ATOM     10  C   UNL     1       0.962  -0.936  -0.443  0.00  0.00    +0.143 C 
ATOM     11  C   UNL     1       3.238  -0.052  -0.381  0.00  0.00    +0.148 C 
ATOM     12  C   UNL     1       1.232  -1.528  -1.618  0.00  0.00    +0.020 C 
ATOM     13  C   UNL     1       3.974   0.731   0.479  0.00  0.00    +0.189 C 
ATOM     14  C   UNL     1       2.607  -1.319  -2.135  0.00  0.00    +0.098 C 
ATOM     15  C   UNL     1       3.099   1.031   1.530  0.00  0.00    +0.114 C 
BRANCH  13  17
ATOM     16  N   UNL     1       6.439   1.466   0.174  0.00  0.00    -0.195 NA
ATOM     17  C   UNL     1       5.326   1.134   0.312  0.00  0.00    +0.086 C 
ENDBRANCH  13  17
ENDBRANCH   1  10
BRANCH   2  19
ATOM     18  O   UNL     1      -2.312   2.467  -0.170  0.00  0.00    -0.275 OA
ATOM     19  N   UNL     1      -3.673   0.560   0.117  0.00  0.00    -0.259 N 
ATOM     20  C   UNL     1      -3.426   1.940  -0.204  0.00  0.00    +0.230 C 
ATOM     21  C   UNL     1      -4.596   2.790  -0.646  0.00  0.00    +0.095 C 
BRANCH  19  22
ATOM     22  C   UNL     1      -5.078   0.054   0.032  0.00  0.00    +0.098 C 
ATOM     23  C   UNL     1      -5.358  -0.478  -1.360  0.00  0.00    +0.024 C 
ENDBRANCH  19  22
ENDBRANCH   2  19
TORSDOF 4
