REMARK  Name = 51263
REMARK  9 active torsions:
REMARK  status: ('A' for Active; 'I' for Inactive)
REMARK    1  A    between atoms: N_1  and  C_22
REMARK    2  A    between atoms: C_2  and  N_9
REMARK    3  A    between atoms: C_2  and  C_19
REMARK    4  A    between atoms: N_9  and  C_11
REMARK    5  A    between atoms: C_10  and  C_17
REMARK    6  A    between atoms: C_19  and  O_20
REMARK    7  A    between atoms: C_22  and  C_23
REMARK    8  A    between atoms: C_23  and  N_25
REMARK    9  A    between atoms: N_27  and  C_30
REMARK                            x       y       z     vdW  Elec       q    Type
REMARK                         _______ _______ _______ _____ _____    ______ ____
ROOT
ATOM      1  N   UNL     1      -1.028  -0.333  -0.720  0.00  0.00    +0.388 N 
ATOM      2  C   UNL     1       1.804  -0.837  -0.011  0.00  0.00    +0.088 C 
ATOM      3  C   UNL     1       0.992   0.354   0.535  0.00  0.00    -0.002 C 
ATOM      4  C   UNL     1       1.159  -1.318  -1.326  0.00  0.00    -0.002 C 
ATOM      5  C   UNL     1      -0.513   0.076   0.593  0.00  0.00    -0.076 C 
ATOM      6  C   UNL     1      -0.351  -1.541  -1.206  0.00  0.00    -0.076 C 
ATOM      7  H   UNL     1      -0.834   0.421  -1.379  0.00  0.00    -0.080 HD
ENDROOT
BRANCH   2   9
ATOM      8  O   UNL     1       3.988  -2.452  -1.112  0.00  0.00    -0.275 OA
ATOM      9  N   UNL     1       3.166  -0.401  -0.280  0.00  0.00    -0.260 N 
ATOM     10  C   UNL     1       4.157  -1.265  -0.818  0.00  0.00    +0.229 C 
BRANCH   9  11
ATOM     11  C   UNL     1       3.527   0.979   0.013  0.00  0.00    +0.054 C 
ATOM     12  C   UNL     1       3.376   1.963  -0.964  0.00  0.00    +0.015 C 
ATOM     13  C   UNL     1       4.025   1.317   1.272  0.00  0.00    +0.015 C 
ATOM     14  C   UNL     1       3.722   3.285  -0.683  0.00  0.00    +0.001 C 
ATOM     15  C   UNL     1       4.371   2.639   1.553  0.00  0.00    +0.001 C 
ATOM     16  C   UNL     1       4.220   3.623   0.576  0.00  0.00    +0.000 C 
ENDBRANCH   9  11
BRANCH  10  17
ATOM     17  C   UNL     1       5.540  -0.645  -0.991  0.00  0.00    +0.086 C 
ATOM     18  C   UNL     1       6.552  -1.615  -1.583  0.00  0.00    +0.010 C 
ENDBRANCH  10  17
ENDBRANCH   2   9
BRANCH   2  19
ATOM     19  C   UNL     1       1.869  -1.976   1.018  0.00  0.00    +0.160 C 
BRANCH  19  20
ATOM     20  O   UNL     1       2.477  -1.478   2.193  0.00  0.00    -0.349 OA
ATOM     21  C   UNL     1       2.576  -2.477   3.203  0.00  0.00    +0.174 C 
ENDBRANCH  19  20
ENDBRANCH   2  19
BRANCH   1  22
ATOM     22  C   UNL     1      -2.474  -0.543  -0.660  0.00  0.00    -0.050 C 
BRANCH  22  23
ATOM     23  C   UNL     1      -3.204   0.791  -0.683  0.00  0.00    +0.111 C 
BRANCH  23  25
ATOM     24  O   UNL     1      -5.047   0.606   1.660  0.00  0.00    -0.243 OA
ATOM     25  N   UNL     1      -4.630   0.605  -0.654  0.00  0.00    -0.184 N 
ATOM     26  N   UNL     1      -5.430   0.473  -1.755  0.00  0.00    -0.042 NA
ATOM     27  N   UNL     1      -6.680   0.352  -0.012  0.00  0.00    -0.182 N 
ATOM     28  N   UNL     1      -6.633   0.325  -1.378  0.00  0.00    -0.042 NA
ATOM     29  C   UNL     1      -5.402   0.531   0.495  0.00  0.00    +0.365 A 
BRANCH  27  30
ATOM     30  C   UNL     1      -7.918   0.207   0.707  0.00  0.00    +0.134 C 
ATOM     31  C   UNL     1      -8.212  -1.246   1.018  0.00  0.00    +0.029 C 
ENDBRANCH  27  30
ENDBRANCH  23  25
ENDBRANCH  22  23
ENDBRANCH   1  22
TORSDOF 9
