REMARK  Name = 5360696
REMARK  1 active torsions:
REMARK  status: ('A' for Active; 'I' for Inactive)
REMARK    1  A    between atoms: C_17  and  O_20
REMARK                            x       y       z     vdW  Elec       q    Type
REMARK                         _______ _______ _______ _____ _____    ______ ____
ROOT
ATOM      1  N   UNL     1       2.618  -1.587   0.472  0.00  0.00    +0.387 N 
ATOM      2  C   UNL     1       0.844   0.730   0.739  0.00  0.00    +0.015 C 
ATOM      3  C   UNL     1       1.999   0.652  -0.298  0.00  0.00    -0.015 C 
ATOM      4  C   UNL     1       2.189  -0.819  -0.717  0.00  0.00    -0.053 C 
ATOM      5  C   UNL     1       1.267  -0.126   1.964  0.00  0.00    -0.019 C 
ATOM      6  C   UNL     1       0.703   2.213   1.181  0.00  0.00    +0.004 C 
ATOM      7  C   UNL     1       1.796   1.610  -1.489  0.00  0.00    -0.002 C 
ATOM      8  C   UNL     1      -0.449   0.117   0.170  0.00  0.00    -0.024 C 
ATOM      9  C   UNL     1       0.924  -1.338  -1.431  0.00  0.00    +0.005 C 
ATOM     10  C   UNL     1       1.667  -1.560   1.587  0.00  0.00    -0.077 C 
ATOM     11  C   UNL     1       0.490   3.169   0.006  0.00  0.00    +0.000 C 
ATOM     12  C   UNL     1       1.613   3.050  -1.019  0.00  0.00    -0.000 C 
ATOM     13  C   UNL     1      -0.387  -0.871  -0.839  0.00  0.00    -0.028 C 
ATOM     14  C   UNL     1      -1.713   0.462   0.681  0.00  0.00    +0.032 C 
ATOM     15  C   UNL     1       3.035  -2.951   0.163  0.00  0.00    -0.101 C 
ATOM     16  C   UNL     1      -1.571  -1.439  -1.340  0.00  0.00    -0.002 C 
ATOM     17  C   UNL     1      -2.881  -0.115   0.180  0.00  0.00    +0.138 C 
ATOM     18  C   UNL     1      -2.811  -1.061  -0.835  0.00  0.00    +0.037 C 
ATOM     19  H   UNL     1       3.445  -1.085   0.795  0.00  0.00    -0.080 HD
ENDROOT
BRANCH  17  20
ATOM     20  O   UNL     1      -4.090   0.248   0.690  0.00  0.00    -0.471 OA
ATOM     21  C   UNL     1      -5.244  -0.383   0.136  0.00  0.00    +0.252 C 
ENDBRANCH  17  20
TORSDOF 1
