REMARK  Name = 1548887
REMARK  6 active torsions:
REMARK  status: ('A' for Active; 'I' for Inactive)
REMARK    1  A    between atoms: C_2  and  C_22
REMARK    2  A    between atoms: C_5  and  C_7
REMARK    3  A    between atoms: C_7  and  C_13
REMARK    4  A    between atoms: C_16  and  S_19
REMARK    5  A    between atoms: C_22  and  C_24
REMARK    6  A    between atoms: C_24  and  O_25
REMARK                            x       y       z     vdW  Elec       q    Type
REMARK                         _______ _______ _______ _____ _____    ______ ____
ROOT
ATOM      1  F   UNL     1       1.818  -4.263   0.182  0.00  0.00    -0.204 F 
ATOM      2  C   UNL     1       2.913   0.554   0.524  0.00  0.00    -0.030 C 
ATOM      3  C   UNL     1       2.090  -0.660   0.374  0.00  0.00    -0.005 C 
ATOM      4  C   UNL     1       2.088   1.622   0.475  0.00  0.00    +0.037 C 
ATOM      5  C   UNL     1       0.711   1.161   0.294  0.00  0.00    -0.036 C 
ATOM      6  C   UNL     1       0.739  -0.302   0.232  0.00  0.00    -0.008 C 
ATOM      7  C   UNL     1       2.470  -1.994   0.359  0.00  0.00    +0.029 C 
ATOM      8  C   UNL     1      -0.251  -1.258   0.073  0.00  0.00    +0.002 C 
ATOM      9  C   UNL     1       2.439   3.067   0.580  0.00  0.00    +0.009 C 
ATOM     10  C   UNL     1       1.479  -2.966   0.200  0.00  0.00    +0.140 C 
ATOM     11  C   UNL     1       0.130  -2.602   0.058  0.00  0.00    +0.030 C 
ENDROOT
BRANCH   5  12
ATOM     12  C   UNL     1      -0.391   1.913   0.198  0.00  0.00    +0.049 C 
BRANCH  12  13
ATOM     13  C   UNL     1      -1.763   1.411   0.015  0.00  0.00    -0.018 C 
ATOM     14  C   UNL     1      -2.263   1.253  -1.268  0.00  0.00    -0.003 C 
ATOM     15  C   UNL     1      -2.529   1.104   1.129  0.00  0.00    -0.003 C 
ATOM     16  C   UNL     1      -4.345   0.464  -0.330  0.00  0.00    +0.056 C 
ATOM     17  C   UNL     1      -3.563   0.777  -1.442  0.00  0.00    +0.008 C 
ATOM     18  C   UNL     1      -3.828   0.628   0.955  0.00  0.00    +0.008 C 
BRANCH  16  19
ATOM     19  S   UNL     1      -6.016  -0.147  -0.553  0.00  0.00    +0.066 S 
ATOM     20  O   UNL     1      -6.740   0.092   0.742  0.00  0.00    -0.251 OA
ATOM     21  C   UNL     1      -5.616  -1.913  -0.620  0.00  0.00    +0.111 C 
ENDBRANCH  16  19
ENDBRANCH  12  13
ENDBRANCH   5  12
BRANCH   2  22
ATOM     22  C   UNL     1       4.388   0.485   0.693  0.00  0.00    +0.132 C 
BRANCH  22  24
ATOM     23  O   UNL     1       4.539   0.589  -1.744  0.00  0.00    -0.250 OA
ATOM     24  C   UNL     1       5.077   0.522  -0.649  0.00  0.00    +0.318 C 
BRANCH  24  25
ATOM     25  O   UNL     1       6.424   0.462  -0.477  0.00  0.00    -0.480 OA
ATOM     26  H   UNL     1       6.784   0.411   0.387  0.00  0.00    +0.295 HD
ENDBRANCH  24  25
ENDBRANCH  22  24
ENDBRANCH   2  22
TORSDOF 6
