REMARK  Name = 5071
REMARK  2 active torsions:
REMARK  status: ('A' for Active; 'I' for Inactive)
REMARK    1  A    between atoms: C_1  and  C_11
REMARK    2  A    between atoms: C_11  and  N_13
REMARK                            x       y       z     vdW  Elec       q    Type
REMARK                         _______ _______ _______ _____ _____    ______ ____
ROOT
ATOM      1  C   UNL     1       0.745  -0.011  -0.210  0.00  0.00    -0.018 C 
ATOM      2  C   UNL     1      -1.107   0.039   1.519  0.00  0.00    -0.000 C 
ATOM      3  C   UNL     1      -1.405   1.252  -0.670  0.00  0.00    -0.000 C 
ATOM      4  C   UNL     1      -1.419  -1.268  -0.613  0.00  0.00    -0.000 C 
ATOM      5  C   UNL     1       0.416   0.025   1.301  0.00  0.00    -0.002 C 
ATOM      6  C   UNL     1       0.119   1.235  -0.882  0.00  0.00    -0.002 C 
ATOM      7  C   UNL     1       0.105  -1.278  -0.825  0.00  0.00    -0.002 C 
ATOM      8  C   UNL     1      -1.705   1.281   0.838  0.00  0.00    -0.000 C 
ATOM      9  C   UNL     1      -1.720  -1.226   0.895  0.00  0.00    -0.000 C 
ATOM     10  C   UNL     1      -2.015  -0.019  -1.284  0.00  0.00    -0.000 C 
ENDROOT
BRANCH   1  11
ATOM     11  C   UNL     1       2.261  -0.024  -0.424  0.00  0.00    -0.066 C 
ATOM     12  C   UNL     1       2.904   1.222   0.174  0.00  0.00    -0.024 C 
BRANCH  11  13
ATOM     13  N   UNL     1       2.821  -1.229   0.181  0.00  0.00    +0.382 N 
ATOM     14  H   UNL     1       2.380  -2.052  -0.229  0.00  0.00    -0.089 HD
ATOM     15  H   UNL     1       2.648  -1.217   1.187  0.00  0.00    -0.089 HD
ATOM     16  H   UNL     1       3.826  -1.260   0.010  0.00  0.00    -0.089 HD
ENDBRANCH  11  13
ENDBRANCH   1  11
TORSDOF 2
