REMARK  Name = 2216
REMARK  2 active torsions:
REMARK  status: ('A' for Active; 'I' for Inactive)
REMARK    1  A    between atoms: C_3  and  N_10
REMARK    2  A    between atoms: C_6  and  N_17
REMARK                            x       y       z     vdW  Elec       q    Type
REMARK                         _______ _______ _______ _____ _____    ______ ____
ROOT
ATOM      1 CL   UNL     1      -0.346   2.727   0.551  0.00  0.00    -0.081 Cl
ATOM      2 CL   UNL     1      -0.358  -2.732   0.546  0.00  0.00    -0.081 Cl
ATOM      3  C   UNL     1      -0.452  -0.002   0.514  0.00  0.00    +0.072 C 
ATOM      4  C   UNL     1      -1.129   1.207   0.295  0.00  0.00    +0.073 C 
ATOM      5  C   UNL     1      -1.132  -1.209   0.289  0.00  0.00    +0.073 C 
ATOM      6  C   UNL     1      -3.119   0.004  -0.359  0.00  0.00    +0.043 C 
ATOM      7  C   UNL     1      -2.455   1.210  -0.139  0.00  0.00    +0.027 C 
ATOM      8  C   UNL     1      -2.458  -1.206  -0.145  0.00  0.00    +0.027 C 
ENDROOT
BRANCH   3  10
ATOM      9  N   UNL     1       3.199  -0.004   0.822  0.00  0.00    -0.284 N 
ATOM     10  N   UNL     1       0.877  -0.005   0.952  0.00  0.00    -0.285 N 
ATOM     11  N   UNL     1       2.048   0.002  -1.134  0.00  0.00    -0.214 NA
ATOM     12  C   UNL     1       4.276   0.003  -0.121  0.00  0.00    +0.085 C 
ATOM     13  C   UNL     1       3.508   0.003  -1.450  0.00  0.00    +0.117 C 
ATOM     14  C   UNL     1       1.999  -0.003   0.177  0.00  0.00    +0.190 C 
ATOM     15  H   UNL     1       3.311  -0.008   1.800  0.00  0.00    +0.155 HD
ATOM     16  H   UNL     1       1.018  -0.010   1.927  0.00  0.00    +0.155 HD
ENDBRANCH   3  10
BRANCH   6  17
ATOM     17  N   UNL     1      -4.459   0.006  -0.800  0.00  0.00    -0.357 N 
ATOM     18  H   UNL     1      -4.926   0.859  -0.952  0.00  0.00    +0.142 HD
ATOM     19  H   UNL     1      -4.927  -0.846  -0.957  0.00  0.00    +0.142 HD
ENDBRANCH   6  17
TORSDOF 2
