REMARK  Name = 5311027
REMARK  15 active torsions:
REMARK  status: ('A' for Active; 'I' for Inactive)
REMARK    1  A    between atoms: C_1  and  C_23
REMARK    2  A    between atoms: C_2  and  C_10
REMARK    3  A    between atoms: C_3  and  O_6
REMARK    4  A    between atoms: C_4  and  O_8
REMARK    5  A    between atoms: C_11  and  C_12
REMARK    6  A    between atoms: C_12  and  O_13
REMARK    7  A    between atoms: C_12  and  C_15
REMARK    8  A    between atoms: C_15  and  C_16
REMARK    9  A    between atoms: C_16  and  C_17
REMARK   10  A    between atoms: C_23  and  C_24
REMARK   11  A    between atoms: C_25  and  C_26
REMARK   12  A    between atoms: C_26  and  C_27
REMARK   13  A    between atoms: C_27  and  C_28
REMARK   14  A    between atoms: C_28  and  C_31
REMARK   15  A    between atoms: N_30  and  C_33
REMARK                            x       y       z     vdW  Elec       q    Type
REMARK                         _______ _______ _______ _____ _____    ______ ____
ROOT
ATOM      1  C   UNL     1      -3.465   1.145  -0.007  0.00  0.00    +0.038 C 
ATOM      2  C   UNL     1      -3.897  -0.323   0.142  0.00  0.00    +0.051 C 
ATOM      3  C   UNL     1      -4.792   1.846  -0.312  0.00  0.00    +0.114 C 
ATOM      4  C   UNL     1      -5.246  -0.239   0.876  0.00  0.00    +0.117 C 
ATOM      5  C   UNL     1      -5.773   1.189   0.659  0.00  0.00    +0.059 C 
ENDROOT
BRANCH   3   6
ATOM      6  O   UNL     1      -5.219   1.646  -1.654  0.00  0.00    -0.384 OA
ATOM      7  H   UNL     1      -4.589   2.067  -2.260  0.00  0.00    +0.210 HD
ENDBRANCH   3   6
BRANCH   4   8
ATOM      8  O   UNL     1      -6.164  -1.175   0.326  0.00  0.00    -0.384 OA
ATOM      9  H   UNL     1      -5.830  -2.075   0.465  0.00  0.00    +0.210 HD
ENDBRANCH   4   8
BRANCH   2  10
ATOM     10  C   UNL     1      -2.905  -1.167   0.880  0.00  0.00    -0.026 C 
ATOM     11  C   UNL     1      -2.333  -2.267   0.369  0.00  0.00    -0.002 C 
BRANCH  11  12
ATOM     12  C   UNL     1      -1.338  -3.112   1.115  0.00  0.00    +0.132 C 
BRANCH  12  13
ATOM     13  O   UNL     1      -1.881  -4.420   1.277  0.00  0.00    -0.380 OA
ATOM     14  H   UNL     1      -2.716  -4.365   1.768  0.00  0.00    +0.211 HD
ENDBRANCH  12  13
BRANCH  12  15
ATOM     15  C   UNL     1      -0.017  -3.211   0.338  0.00  0.00    +0.038 C 
BRANCH  15  16
ATOM     16  C   UNL     1       0.852  -1.947   0.422  0.00  0.00    +0.029 C 
BRANCH  16  17
ATOM     17  C   UNL     1       2.106  -2.014  -0.413  0.00  0.00    -0.022 C 
ATOM     18  C   UNL     1       3.284  -2.520   0.136  0.00  0.00    -0.004 C 
ATOM     19  C   UNL     1       2.087  -1.571  -1.736  0.00  0.00    -0.004 C 
ATOM     20  C   UNL     1       4.443  -2.582  -0.637  0.00  0.00    -0.000 C 
ATOM     21  C   UNL     1       3.247  -1.633  -2.509  0.00  0.00    -0.000 C 
ATOM     22  C   UNL     1       4.425  -2.139  -1.959  0.00  0.00    -0.000 C 
ENDBRANCH  16  17
ENDBRANCH  15  16
ENDBRANCH  12  15
ENDBRANCH  11  12
ENDBRANCH   2  10
BRANCH   1  23
ATOM     23  C   UNL     1      -2.404   1.359  -1.075  0.00  0.00    +0.028 C 
BRANCH  23  24
ATOM     24  C   UNL     1      -2.061   2.812  -1.222  0.00  0.00    -0.031 C 
ATOM     25  C   UNL     1      -1.067   3.415  -0.552  0.00  0.00    -0.031 C 
BRANCH  25  26
ATOM     26  C   UNL     1      -0.174   2.711   0.427  0.00  0.00    +0.026 C 
BRANCH  26  27
ATOM     27  C   UNL     1       1.294   2.797  -0.002  0.00  0.00    +0.014 C 
BRANCH  27  28
ATOM     28  C   UNL     1       2.219   2.021   0.935  0.00  0.00    +0.085 C 
BRANCH  28  31
ATOM     29  O   UNL     1       4.070   2.576  -0.525  0.00  0.00    -0.275 OA
ATOM     30  N   UNL     1       4.473   1.306   1.378  0.00  0.00    -0.304 N 
ATOM     31  C   UNL     1       3.675   2.022   0.497  0.00  0.00    +0.222 C 
ATOM     32  H   UNL     1       4.050   0.901   2.170  0.00  0.00    +0.149 HD
BRANCH  30  33
ATOM     33  C   UNL     1       5.894   1.127   1.190  0.00  0.00    +0.089 C 
ATOM     34  C   UNL     1       6.671   2.349   1.634  0.00  0.00    +0.023 C 
ENDBRANCH  30  33
ENDBRANCH  28  31
ENDBRANCH  27  28
ENDBRANCH  26  27
ENDBRANCH  25  26
ENDBRANCH  23  24
ENDBRANCH   1  23
TORSDOF 15
