REMARK  Name = 26879
REMARK  1 active torsions:
REMARK  status: ('A' for Active; 'I' for Inactive)
REMARK    1  A    between atoms: C_5  and  C_9
REMARK                            x       y       z     vdW  Elec       q    Type
REMARK                         _______ _______ _______ _____ _____    ______ ____
ROOT
ATOM      1  S   UNL     1      -3.352   1.433  -0.395  0.00  0.00    -0.079 S 
ATOM      2  N   UNL     1      -2.055  -0.720   0.165  0.00  0.00    -0.285 N 
ATOM      3  N   UNL     1      -0.795   0.734  -1.083  0.00  0.00    -0.247 NA
ATOM      4  C   UNL     1      -0.774  -1.347   0.275  0.00  0.00    +0.121 C 
ATOM      5  C   UNL     1       0.025  -0.509  -0.774  0.00  0.00    +0.147 C 
ATOM      6  C   UNL     1      -3.169  -0.845   1.066  0.00  0.00    +0.105 C 
ATOM      7  C   UNL     1      -1.927   0.451  -0.506  0.00  0.00    +0.155 C 
ATOM      8  C   UNL     1      -4.250   0.089   0.497  0.00  0.00    +0.086 C 
ENDROOT
BRANCH   5   9
ATOM      9  C   UNL     1       1.424  -0.182  -0.307  0.00  0.00    +0.002 C 
ATOM     10  C   UNL     1       1.664   0.988   0.415  0.00  0.00    -0.002 C 
ATOM     11  C   UNL     1       2.477  -1.051  -0.595  0.00  0.00    -0.002 C 
ATOM     12  C   UNL     1       2.956   1.289   0.847  0.00  0.00    -0.000 C 
ATOM     13  C   UNL     1       3.769  -0.750  -0.163  0.00  0.00    -0.000 C 
ATOM     14  C   UNL     1       4.008   0.420   0.558  0.00  0.00    -0.000 C 
ENDBRANCH   5   9
TORSDOF 1
