REMARK  Name = 5253
REMARK  7 active torsions:
REMARK  status: ('A' for Active; 'I' for Inactive)
REMARK    1  A    between atoms: C_1  and  C_13
REMARK    2  A    between atoms: C_4  and  N_7
REMARK    3  A    between atoms: N_7  and  S_9
REMARK    4  A    between atoms: C_13  and  O_14
REMARK    5  A    between atoms: C_13  and  C_16
REMARK    6  A    between atoms: C_16  and  N_17
REMARK    7  A    between atoms: N_17  and  C_20
REMARK                            x       y       z     vdW  Elec       q    Type
REMARK                         _______ _______ _______ _____ _____    ______ ____
ROOT
ATOM      1  C   UNL     1      -0.471  -0.983  -0.012  0.00  0.00    +0.002 C 
ATOM      2  C   UNL     1       0.432  -1.417  -0.966  0.00  0.00    -0.001 C 
ATOM      3  C   UNL     1      -0.053  -0.368   1.155  0.00  0.00    -0.001 C 
ATOM      4  C   UNL     1       2.237  -0.611   0.424  0.00  0.00    +0.064 C 
ATOM      5  C   UNL     1       1.797  -1.230  -0.747  0.00  0.00    +0.016 C 
ATOM      6  C   UNL     1       1.312  -0.181   1.375  0.00  0.00    +0.016 C 
ENDROOT
BRANCH   4   7
ATOM      7  N   UNL     1       3.634  -0.420   0.648  0.00  0.00    -0.219 N 
ATOM      8  H   UNL     1       4.112  -0.940   1.333  0.00  0.00    +0.173 HD
BRANCH   7   9
ATOM      9  S   UNL     1       4.459   0.747  -0.314  0.00  0.00    +0.056 S 
ATOM     10  O   UNL     1       5.886   0.588  -0.103  0.00  0.00    -0.154 OA
ATOM     11  O   UNL     1       3.913   0.792  -1.656  0.00  0.00    -0.154 OA
ATOM     12  C   UNL     1       3.978   2.241   0.523  0.00  0.00    +0.200 C 
ENDBRANCH   7   9
ENDBRANCH   4   7
BRANCH   1  13
ATOM     13  C   UNL     1      -1.952  -1.187  -0.250  0.00  0.00    +0.112 C 
BRANCH  13  14
ATOM     14  O   UNL     1      -2.447  -2.068   0.757  0.00  0.00    -0.382 OA
ATOM     15  H   UNL     1      -3.397  -2.212   0.622  0.00  0.00    +0.211 HD
ENDBRANCH  13  14
BRANCH  13  16
ATOM     16  C   UNL     1      -2.715   0.143  -0.216  0.00  0.00    -0.047 C 
BRANCH  16  17
ATOM     17  N   UNL     1      -4.135  -0.070  -0.446  0.00  0.00    +0.387 N 
ATOM     18  H   UNL     1      -4.503  -0.686   0.279  0.00  0.00    -0.084 HD
ATOM     19  H   UNL     1      -4.258  -0.492  -1.366  0.00  0.00    -0.084 HD
BRANCH  17  20
ATOM     20  C   UNL     1      -4.861   1.199  -0.411  0.00  0.00    -0.062 C 
ATOM     21  C   UNL     1      -4.679   1.875   0.945  0.00  0.00    -0.023 C 
ATOM     22  C   UNL     1      -6.336   0.948  -0.705  0.00  0.00    -0.023 C 
ENDBRANCH  17  20
ENDBRANCH  16  17
ENDBRANCH  13  16
ENDBRANCH   1  13
TORSDOF 7
