REMARK  Name = 5362119
REMARK  15 active torsions:
REMARK  status: ('A' for Active; 'I' for Inactive)
REMARK    1  A    between atoms: CA_1  and  C_8
REMARK    2  A    between atoms: CA_1  and  N_13
REMARK    3  A    between atoms: CA_1  and  CB_29
REMARK    4  A    between atoms: CA_4  and  C_10
REMARK    5  A    between atoms: C_10  and  O_11
REMARK    6  A    between atoms: N_13  and  CA_16
REMARK    7  A    between atoms: CA_16  and  C_18
REMARK    8  A    between atoms: CA_16  and  C_21
REMARK    9  A    between atoms: C_18  and  O_19
REMARK   10  A    between atoms: C_21  and  C_22
REMARK   11  A    between atoms: C_22  and  C_23
REMARK   12  A    between atoms: CB_29  and  CG_30
REMARK   13  A    between atoms: CG_30  and  CD_31
REMARK   14  A    between atoms: CD_31  and  CE_32
REMARK   15  A    between atoms: CE_32  and  NZ_33
REMARK                            x       y       z     vdW  Elec       q    Type
REMARK                         _______ _______ _______ _____ _____    ______ ____
ROOT
ATOM      1  CA  UNL     1       1.404   0.569   0.030  0.00  0.00    +0.018 C 
ENDROOT
BRANCH   1   8
ATOM      2  O   UNL     1       1.040  -1.270   1.499  0.00  0.00    -0.277 OA
ATOM      3  N   UNL     1       2.430  -1.627  -0.318  0.00  0.00    -0.273 N 
ATOM      4  CA  UNL     1       2.596  -3.061  -0.121  0.00  0.00    +0.174 C 
ATOM      5  CB  UNL     1       3.185  -3.567  -1.433  0.00  0.00    +0.033 C 
ATOM      6  CD  UNL     1       3.108  -1.180  -1.531  0.00  0.00    +0.094 C 
ATOM      7  CG  UNL     1       3.963  -2.363  -1.960  0.00  0.00    +0.024 C 
ATOM      8  C   UNL     1       1.597  -0.858   0.479  0.00  0.00    +0.206 C 
BRANCH   4  10
ATOM      9  OXT UNL     1       4.443  -2.466   1.321  0.00  0.00    -0.248 OA
ATOM     10  C   UNL     1       3.548  -3.243   1.023  0.00  0.00    +0.332 C 
BRANCH  10  11
ATOM     11  O   UNL     1       3.284  -4.394   1.687  0.00  0.00    -0.479 OA
ATOM     12  H   UNL     1       2.580  -4.946   1.407  0.00  0.00    +0.295 HD
ENDBRANCH  10  11
ENDBRANCH   4  10
ENDBRANCH   1   8
BRANCH   1  13
ATOM     13  N   UNL     1       0.043   0.926   0.417  0.00  0.00    +0.399 N 
ATOM     14  H1  UNL     1      -0.037   1.942   0.460  0.00  0.00    -0.083 HD
ATOM     15  H2  UNL     1      -0.156   0.516   1.330  0.00  0.00    -0.083 HD
BRANCH  13  16
ATOM     16  CA  UNL     1      -0.921   0.412  -0.545  0.00  0.00    +0.041 C 
BRANCH  16  18
ATOM     17  OXT UNL     1      -0.735   2.573  -1.651  0.00  0.00    -0.253 OA
ATOM     18  C   UNL     1      -0.917   1.364  -1.728  0.00  0.00    +0.293 C 
BRANCH  18  19
ATOM     19  O   UNL     1      -1.113   0.727  -2.910  0.00  0.00    -0.482 OA
ATOM     20  H   UNL     1      -1.248  -0.200  -2.925  0.00  0.00    +0.295 HD
ENDBRANCH  18  19
ENDBRANCH  16  18
BRANCH  16  21
ATOM     21  C   UNL     1      -2.307   0.350   0.111  0.00  0.00    -0.006 C 
BRANCH  21  22
ATOM     22  C   UNL     1      -3.418  -0.200  -0.798  0.00  0.00    +0.025 C 
BRANCH  22  23
ATOM     23  C   UNL     1      -4.764  -0.333  -0.130  0.00  0.00    -0.022 C 
ATOM     24  C   UNL     1      -5.107  -1.520   0.518  0.00  0.00    -0.004 C 
ATOM     25  C   UNL     1      -5.667   0.730  -0.161  0.00  0.00    -0.004 C 
ATOM     26  C   UNL     1      -6.352  -1.643   1.135  0.00  0.00    -0.000 C 
ATOM     27  C   UNL     1      -6.911   0.607   0.457  0.00  0.00    -0.000 C 
ATOM     28  C   UNL     1      -7.254  -0.580   1.105  0.00  0.00    -0.000 C 
ENDBRANCH  22  23
ENDBRANCH  21  22
ENDBRANCH  16  21
ENDBRANCH  13  16
ENDBRANCH   1  13
BRANCH   1  29
ATOM     29  CB  UNL     1       2.423   1.507   0.686  0.00  0.00    -0.013 C 
BRANCH  29  30
ATOM     30  CG  UNL     1       2.227   2.964   0.249  0.00  0.00    -0.004 C 
BRANCH  30  31
ATOM     31  CD  UNL     1       3.215   3.934   0.907  0.00  0.00    -0.024 C 
BRANCH  31  32
ATOM     32  CE  UNL     1       2.999   5.389   0.492  0.00  0.00    -0.086 C 
BRANCH  32  33
ATOM     33  NZ  UNL     1       3.961   6.253   1.169  0.00  0.00    +0.380 N 
ATOM     34  HZ1 UNL     1       3.808   7.221   0.885  0.00  0.00    -0.089 HD
ATOM     35  HZ2 UNL     1       4.908   5.970   0.918  0.00  0.00    -0.089 HD
ATOM     36  HZ3 UNL     1       3.838   6.172   2.179  0.00  0.00    -0.089 HD
ENDBRANCH  32  33
ENDBRANCH  31  32
ENDBRANCH  30  31
ENDBRANCH  29  30
ENDBRANCH   1  29
TORSDOF 15
