REMARK  Name = 5556
REMARK  1 active torsions:
REMARK  status: ('A' for Active; 'I' for Inactive)
REMARK    1  A    between atoms: C_9  and  C_18
REMARK                            x       y       z     vdW  Elec       q    Type
REMARK                         _______ _______ _______ _____ _____    ______ ____
ROOT
ATOM      1 CL   UNL     1      -1.046   4.601   0.201  0.00  0.00    -0.082 Cl
ATOM      2  N   UNL     1       2.214  -0.352   0.051  0.00  0.00    -0.279 N 
ATOM      3  N   UNL     1      -0.237  -1.531   1.437  0.00  0.00    -0.262 NA
ATOM      4  N   UNL     1       3.060  -2.299   0.643  0.00  0.00    -0.131 NA
ATOM      5  N   UNL     1       3.845  -1.776  -0.355  0.00  0.00    -0.133 NA
ATOM      6  C   UNL     1       1.382   0.789   0.024  0.00  0.00    +0.068 C 
ATOM      7  C   UNL     1       0.048   0.746   0.473  0.00  0.00    +0.034 C 
ATOM      8  C   UNL     1       2.105  -1.431   0.900  0.00  0.00    +0.172 A 
ATOM      9  C   UNL     1      -0.694  -0.526   0.768  0.00  0.00    +0.079 C 
ATOM     10  C   UNL     1       1.104  -1.492   1.987  0.00  0.00    +0.191 C 
ATOM     11  C   UNL     1       3.346  -0.605  -0.680  0.00  0.00    +0.147 A 
ATOM     12  C   UNL     1       1.924   2.002  -0.431  0.00  0.00    +0.019 C 
ATOM     13  C   UNL     1      -0.687   1.943   0.540  0.00  0.00    +0.014 C 
ATOM     14  C   UNL     1       1.171   3.175  -0.381  0.00  0.00    +0.013 C 
ATOM     15  C   UNL     1      -0.127   3.148   0.119  0.00  0.00    +0.058 C 
ATOM     16  C   UNL     1       3.862   0.200  -1.807  0.00  0.00    +0.074 C 
ENDROOT
BRANCH   9  18
ATOM     17 CL   UNL     1      -1.017  -1.794  -2.031  0.00  0.00    -0.082 Cl
ATOM     18  C   UNL     1      -2.076  -0.677   0.223  0.00  0.00    +0.028 C 
ATOM     19  C   UNL     1      -2.308  -1.238  -1.028  0.00  0.00    +0.059 C 
ATOM     20  C   UNL     1      -3.133  -0.238   1.011  0.00  0.00    +0.002 C 
ATOM     21  C   UNL     1      -3.616  -1.361  -1.496  0.00  0.00    +0.011 C 
ATOM     22  C   UNL     1      -4.441  -0.361   0.542  0.00  0.00    +0.000 C 
ATOM     23  C   UNL     1      -4.682  -0.922  -0.711  0.00  0.00    +0.001 C 
ENDBRANCH   9  18
TORSDOF 1
