REMARK  Name = 50294
REMARK  7 active torsions:
REMARK  status: ('A' for Active; 'I' for Inactive)
REMARK    1  A    between atoms: N_4  and  C_25
REMARK    2  A    between atoms: C_6  and  C_27
REMARK    3  A    between atoms: C_11  and  C_18
REMARK    4  A    between atoms: C_15  and  C_22
REMARK    5  A    between atoms: C_18  and  O_19
REMARK    6  A    between atoms: C_22  and  O_23
REMARK    7  A    between atoms: C_27  and  C_28
REMARK                            x       y       z     vdW  Elec       q    Type
REMARK                         _______ _______ _______ _____ _____    ______ ____
ROOT
ATOM      1  O   UNL     1       2.546   0.669   0.091  0.00  0.00    -0.447 OA
ATOM      2  O   UNL     1      -2.206  -3.565  -0.068  0.00  0.00    -0.286 OA
ATOM      3  O   UNL     1       2.856  -3.390  -0.116  0.00  0.00    -0.286 OA
ATOM      4  N   UNL     1      -2.309   0.506   0.141  0.00  0.00    -0.282 N 
ATOM      5  C   UNL     1      -1.038  -0.134   0.087  0.00  0.00    +0.054 C 
ATOM      6  C   UNL     1       0.183   0.568   0.108  0.00  0.00    +0.026 C 
ATOM      7  C   UNL     1      -0.966  -1.544   0.000  0.00  0.00    +0.053 C 
ATOM      8  C   UNL     1       1.410  -0.104   0.063  0.00  0.00    +0.146 C 
ATOM      9  C   UNL     1       1.447  -1.492  -0.008  0.00  0.00    +0.073 C 
ATOM     10  C   UNL     1       0.261  -2.222  -0.043  0.00  0.00    +0.011 C 
ATOM     11  C   UNL     1      -3.457  -0.261  -0.034  0.00  0.00    +0.131 C 
ATOM     12  C   UNL     1      -2.215  -2.341  -0.059  0.00  0.00    +0.198 C 
ATOM     13  C   UNL     1      -3.491  -1.597  -0.129  0.00  0.00    +0.063 C 
ATOM     14  C   UNL     1       2.753  -2.172  -0.054  0.00  0.00    +0.202 C 
ATOM     15  C   UNL     1       3.764   0.025   0.050  0.00  0.00    +0.223 C 
ATOM     16  C   UNL     1       3.944  -1.300  -0.018  0.00  0.00    +0.086 C 
ENDROOT
BRANCH  11  18
ATOM     17  O   UNL     1      -5.535   0.583   0.751  0.00  0.00    -0.244 OA
ATOM     18  C   UNL     1      -4.783   0.360  -0.175  0.00  0.00    +0.352 C 
BRANCH  18  19
ATOM     19  O   UNL     1      -5.011   0.632  -1.475  0.00  0.00    -0.476 OA
ATOM     20  H   UNL     1      -4.364   0.421  -2.118  0.00  0.00    +0.295 HD
ENDBRANCH  18  19
ENDBRANCH  11  18
BRANCH  15  22
ATOM     21  O   UNL     1       6.104   0.444   0.053  0.00  0.00    -0.242 OA
ATOM     22  C   UNL     1       4.962   0.866   0.083  0.00  0.00    +0.373 C 
BRANCH  22  23
ATOM     23  O   UNL     1       4.601   2.165   0.151  0.00  0.00    -0.475 OA
ATOM     24  H   UNL     1       3.694   2.399   0.169  0.00  0.00    +0.296 HD
ENDBRANCH  22  23
ENDBRANCH  15  22
BRANCH   4  25
ATOM     25  C   UNL     1      -2.312   1.948   0.395  0.00  0.00    +0.096 C 
ATOM     26  C   UNL     1      -2.378   2.216   1.886  0.00  0.00    +0.024 C 
ENDBRANCH   4  25
BRANCH   6  27
ATOM     27  C   UNL     1       0.286   2.056   0.277  0.00  0.00    +0.031 C 
BRANCH  27  28
ATOM     28  C   UNL     1       0.255   2.788  -1.068  0.00  0.00    +0.005 C 
ATOM     29  C   UNL     1       0.327   4.295  -0.888  0.00  0.00    +0.000 C 
ENDBRANCH  27  28
ENDBRANCH   6  27
TORSDOF 7
