REMARK  Name = 107807
REMARK  10 active torsions:
REMARK  status: ('A' for Active; 'I' for Inactive)
REMARK    1  A    between atoms: CA_6  and  C_13
REMARK    2  A    between atoms: C_11  and  CA_16
REMARK    3  A    between atoms: C_13  and  O_14
REMARK    4  A    between atoms: CA_16  and  N_18
REMARK    5  A    between atoms: N_18  and  C_21
REMARK    6  A    between atoms: C_21  and  C_23
REMARK    7  A    between atoms: C_21  and  C_27
REMARK    8  A    between atoms: C_23  and  O_24
REMARK    9  A    between atoms: O_24  and  C_25
REMARK   10  A    between atoms: C_27  and  C_28
REMARK                            x       y       z     vdW  Elec       q    Type
REMARK                         _______ _______ _______ _____ _____    ______ ____
ROOT
ATOM      1  O   ALA A   1      -0.569   2.370   0.936  0.00  0.00    -0.277 OA
ATOM      2  N   ALA A   1      -1.618   0.325   0.666  0.00  0.00    -0.275 N 
ATOM      3  C   ALA A   1      -3.908  -0.163   0.490  0.00  0.00    +0.020 C 
ATOM      4  C   ALA A   1      -2.852   0.878   0.102  0.00  0.00    +0.076 C 
ATOM      5  C   ALA A   1      -3.142  -1.484   0.371  0.00  0.00    +0.033 C 
ATOM      6  CA  ALA A   1      -1.731  -1.126   0.850  0.00  0.00    +0.174 C 
ATOM      7  C   ALA A   1      -5.200  -0.095  -0.318  0.00  0.00    +0.002 C 
ATOM      8  C   ALA A   1      -2.710   1.096  -1.409  0.00  0.00    +0.020 C 
ATOM      9  C   ALA A   1      -4.982   0.106  -1.814  0.00  0.00    +0.000 C 
ATOM     10  C   ALA A   1      -4.060   1.289  -2.087  0.00  0.00    +0.002 C 
ATOM     11  C   ALA A   1      -0.603   1.152   1.127  0.00  0.00    +0.206 C 
ENDROOT
BRANCH   6  13
ATOM     12  OXT ALA A   1      -0.294  -1.371  -1.076  0.00  0.00    -0.248 OA
ATOM     13  C   ALA A   1      -0.720  -1.809  -0.018  0.00  0.00    +0.332 C 
BRANCH  13  14
ATOM     14  O   ALA A   1      -0.339  -2.989   0.530  0.00  0.00    -0.479 OA
ATOM     15  H   ALA A   1      -0.705  -3.267   1.346  0.00  0.00    +0.295 HD
ENDBRANCH  13  14
ENDBRANCH   6  13
BRANCH  11  16
ATOM     16  CA  ALA A   1       0.512   0.481   1.888  0.00  0.00    +0.018 C 
ATOM     17  CB  ALA A   1       0.201   0.481   3.371  0.00  0.00    -0.014 C 
BRANCH  16  18
ATOM     18  N   ALA A   1       1.724   1.232   1.609  0.00  0.00    +0.399 N 
ATOM     19  H1  ALA A   1       2.414   1.032   2.333  0.00  0.00    -0.083 HD
ATOM     20  H2  ALA A   1       1.494   2.226   1.597  0.00  0.00    -0.083 HD
BRANCH  18  21
ATOM     21  C   UNK A   0       2.279   0.870   0.310  0.00  0.00    +0.041 C 
BRANCH  21  23
ATOM     22  O   UNK A   0       3.692  -0.750   1.466  0.00  0.00    -0.252 OA
ATOM     23  C   UNK A   0       3.061  -0.423   0.469  0.00  0.00    +0.297 C 
BRANCH  23  24
ATOM     24  O   UNK A   0       2.939  -1.167  -0.671  0.00  0.00    -0.450 OA
BRANCH  24  25
ATOM     25  C   UNK A   0       3.619  -2.426  -0.663  0.00  0.00    +0.208 C 
ATOM     26  C   UNK A   0       3.386  -3.121  -1.987  0.00  0.00    +0.051 C 
ENDBRANCH  24  25
ENDBRANCH  23  24
ENDBRANCH  21  23
BRANCH  21  27
ATOM     27  C   UNK A   0       3.143   2.001  -0.268  0.00  0.00    -0.010 C 
BRANCH  27  28
ATOM     28  C   UNK A   0       3.687   1.729  -1.676  0.00  0.00    -0.002 C 
ATOM     29  C   UNK A   0       4.485   2.915  -2.197  0.00  0.00    -0.000 C 
ENDBRANCH  27  28
ENDBRANCH  21  27
ENDBRANCH  18  21
ENDBRANCH  16  18
ENDBRANCH  11  16
TORSDOF 10
