REMARK  Name = 4100
REMARK  3 active torsions:
REMARK  status: ('A' for Active; 'I' for Inactive)
REMARK    1  A    between atoms: N_4  and  C_15
REMARK    2  A    between atoms: C_5  and  S_8
REMARK    3  A    between atoms: S_8  and  N_11
REMARK                            x       y       z     vdW  Elec       q    Type
REMARK                         _______ _______ _______ _____ _____    ______ ____
ROOT
ATOM      1  S   UNL     1       0.247   0.930  -0.031  0.00  0.00    -0.011 S 
ATOM      2  N   UNL     1       0.273  -1.629  -0.011  0.00  0.00    -0.227 N 
ATOM      3  N   UNL     1      -1.067  -1.341  -0.043  0.00  0.00    -0.141 NA
ATOM      4  N   UNL     1       2.444  -0.543   0.095  0.00  0.00    -0.154 NA
ATOM      5  C   UNL     1      -1.201  -0.052  -0.060  0.00  0.00    +0.254 A 
ATOM      6  C   UNL     1       1.159  -0.575   0.028  0.00  0.00    +0.186 A 
ATOM      7  C   UNL     1       0.647  -3.024   0.044  0.00  0.00    +0.156 C 
ENDROOT
BRANCH   5   8
ATOM      8  S   UNL     1      -2.793   0.629  -0.108  0.00  0.00    +0.081 S 
ATOM      9  O   UNL     1      -2.635   1.939  -0.711  0.00  0.00    -0.151 OA
ATOM     10  O   UNL     1      -3.632  -0.392  -0.708  0.00  0.00    -0.151 OA
BRANCH   8  11
ATOM     11  N   UNL     1      -3.203   0.805   1.540  0.00  0.00    -0.202 NA
ATOM     12  H   UNL     1      -4.138   1.205   1.617  0.00  0.00    +0.144 HD
ATOM     13  H   UNL     1      -2.530   1.423   1.993  0.00  0.00    +0.144 HD
ENDBRANCH   8  11
ENDBRANCH   5   8
BRANCH   4  15
ATOM     14  O   UNL     1       3.330   1.362   1.111  0.00  0.00    -0.273 OA
ATOM     15  C   UNL     1       3.053   0.694   0.117  0.00  0.00    +0.248 C 
ATOM     16  C   UNL     1       3.379   1.196  -1.265  0.00  0.00    +0.097 C 
ENDBRANCH   4  15
TORSDOF 3
