REMARK  Name = 3016
REMARK  1 active torsions:
REMARK  status: ('A' for Active; 'I' for Inactive)
REMARK    1  A    between atoms: C_7  and  C_15
REMARK                            x       y       z     vdW  Elec       q    Type
REMARK                         _______ _______ _______ _____ _____    ______ ____
ROOT
ATOM      1 CL   UNL     1       0.300  -4.444   0.812  0.00  0.00    -0.082 Cl
ATOM      2  O   UNL     1       2.429   3.308  -0.148  0.00  0.00    -0.272 OA
ATOM      3  N   UNL     1       2.341   1.015  -0.554  0.00  0.00    -0.255 N 
ATOM      4  N   UNL     1      -0.128   1.795   1.032  0.00  0.00    -0.261 NA
ATOM      5  C   UNL     1       0.520  -0.467   0.316  0.00  0.00    +0.032 C 
ATOM      6  C   UNL     1       1.801  -0.280  -0.245  0.00  0.00    +0.055 C 
ATOM      7  C   UNL     1      -0.443   0.657   0.513  0.00  0.00    +0.078 C 
ATOM      8  C   UNL     1       1.249   1.994   1.433  0.00  0.00    +0.210 C 
ATOM      9  C   UNL     1       2.045   2.179   0.166  0.00  0.00    +0.254 C 
ATOM     10  C   UNL     1       0.071  -1.756   0.656  0.00  0.00    +0.014 C 
ATOM     11  C   UNL     1       2.565  -1.432  -0.521  0.00  0.00    +0.016 C 
ATOM     12  C   UNL     1       3.309   1.114  -1.647  0.00  0.00    +0.120 C 
ATOM     13  C   UNL     1       0.863  -2.872   0.401  0.00  0.00    +0.058 C 
ATOM     14  C   UNL     1       2.104  -2.711  -0.199  0.00  0.00    +0.013 C 
ENDROOT
BRANCH   7  15
ATOM     15  C   UNL     1      -1.857   0.481   0.073  0.00  0.00    +0.017 C 
ATOM     16  C   UNL     1      -2.143  -0.351  -1.003  0.00  0.00    +0.001 C 
ATOM     17  C   UNL     1      -2.873   1.150   0.744  0.00  0.00    +0.001 C 
ATOM     18  C   UNL     1      -3.466  -0.516  -1.414  0.00  0.00    +0.000 C 
ATOM     19  C   UNL     1      -4.196   0.985   0.333  0.00  0.00    +0.000 C 
ATOM     20  C   UNL     1      -4.492   0.151  -0.746  0.00  0.00    +0.000 C 
ENDBRANCH   7  15
TORSDOF 1
