REMARK  Name = 5280723
REMARK  16 active torsions:
REMARK  status: ('A' for Active; 'I' for Inactive)
REMARK    1  A    between atoms: C_2  and  C_19
REMARK    2  A    between atoms: C_3  and  C_9
REMARK    3  A    between atoms: C_4  and  O_7
REMARK    4  A    between atoms: C_10  and  C_11
REMARK    5  A    between atoms: C_11  and  O_12
REMARK    6  A    between atoms: C_11  and  C_14
REMARK    7  A    between atoms: C_14  and  C_15
REMARK    8  A    between atoms: C_15  and  C_16
REMARK    9  A    between atoms: C_16  and  C_17
REMARK   10  A    between atoms: C_19  and  C_20
REMARK   11  A    between atoms: C_20  and  C_21
REMARK   12  A    between atoms: C_21  and  C_22
REMARK   13  A    between atoms: C_22  and  C_23
REMARK   14  A    between atoms: C_23  and  C_24
REMARK   15  A    between atoms: C_24  and  C_26
REMARK   16  A    between atoms: C_26  and  O_27
REMARK                            x       y       z     vdW  Elec       q    Type
REMARK                         _______ _______ _______ _____ _____    ______ ____
ROOT
ATOM      1  O   UNL     1       2.299   3.878   0.301  0.00  0.00    -0.296 OA
ATOM      2  C   UNL     1       1.903   1.521  -0.122  0.00  0.00    +0.064 C 
ATOM      3  C   UNL     1       2.968   0.421   0.000  0.00  0.00    +0.056 C 
ATOM      4  C   UNL     1       4.215   1.045  -0.641  0.00  0.00    +0.122 C 
ATOM      5  C   UNL     1       4.215   2.490  -0.150  0.00  0.00    +0.094 C 
ATOM      6  C   UNL     1       2.747   2.768   0.046  0.00  0.00    +0.153 C 
ENDROOT
BRANCH   4   7
ATOM      7  O   UNL     1       5.381   0.368  -0.199  0.00  0.00    -0.384 OA
ATOM      8  H   UNL     1       5.365  -0.547  -0.520  0.00  0.00    +0.210 HD
ENDBRANCH   4   7
BRANCH   3   9
ATOM      9  C   UNL     1       2.553  -0.857  -0.657  0.00  0.00    -0.026 C 
ATOM     10  C   UNL     1       2.463  -2.031  -0.015  0.00  0.00    -0.002 C 
BRANCH  10  11
ATOM     11  C   UNL     1       2.046  -3.313  -0.680  0.00  0.00    +0.132 C 
BRANCH  11  12
ATOM     12  O   UNL     1       3.135  -4.236  -0.598  0.00  0.00    -0.380 OA
ATOM     13  H   UNL     1       3.919  -3.849  -1.018  0.00  0.00    +0.211 HD
ENDBRANCH  11  12
BRANCH  11  14
ATOM     14  C   UNL     1       0.835  -3.970  -0.005  0.00  0.00    +0.034 C 
BRANCH  14  15
ATOM     15  C   UNL     1      -0.388  -3.051   0.067  0.00  0.00    +0.003 C 
BRANCH  15  16
ATOM     16  C   UNL     1      -1.574  -3.675   0.811  0.00  0.00    +0.000 C 
BRANCH  16  17
ATOM     17  C   UNL     1      -2.820  -2.789   0.823  0.00  0.00    +0.000 C 
ATOM     18  C   UNL     1      -3.962  -3.449   1.581  0.00  0.00    +0.000 C 
ENDBRANCH  16  17
ENDBRANCH  15  16
ENDBRANCH  14  15
ENDBRANCH  11  14
ENDBRANCH  10  11
ENDBRANCH   3   9
BRANCH   2  19
ATOM     19  C   UNL     1       0.805   1.416   0.923  0.00  0.00    +0.008 C 
BRANCH  19  20
ATOM     20  C   UNL     1      -0.411   2.264   0.547  0.00  0.00    +0.000 C 
BRANCH  20  21
ATOM     21  C   UNL     1      -1.497   2.183   1.622  0.00  0.00    +0.000 C 
BRANCH  21  22
ATOM     22  C   UNL     1      -2.744   3.010   1.293  0.00  0.00    +0.001 C 
BRANCH  22  23
ATOM     23  C   UNL     1      -3.462   2.642  -0.008  0.00  0.00    +0.012 C 
BRANCH  23  24
ATOM     24  C   UNL     1      -4.010   1.216  -0.018  0.00  0.00    +0.109 C 
BRANCH  24  26
ATOM     25  O   UNL     1      -4.834   1.652  -2.268  0.00  0.00    -0.250 OA
ATOM     26  C   UNL     1      -4.700   0.887  -1.323  0.00  0.00    +0.314 C 
BRANCH  26  27
ATOM     27  O   UNL     1      -5.163  -0.390  -1.331  0.00  0.00    -0.480 OA
ATOM     28  H   UNL     1      -5.037  -0.939  -0.582  0.00  0.00    +0.295 HD
ENDBRANCH  26  27
ENDBRANCH  24  26
ENDBRANCH  23  24
ENDBRANCH  22  23
ENDBRANCH  21  22
ENDBRANCH  20  21
ENDBRANCH  19  20
ENDBRANCH   2  19
TORSDOF 16
