REMARK  Name = 4197
REMARK  2 active torsions:
REMARK  status: ('A' for Active; 'I' for Inactive)
REMARK    1  A    between atoms: C_3  and  C_11
REMARK    2  A    between atoms: C_6  and  C_17
REMARK                            x       y       z     vdW  Elec       q    Type
REMARK                         _______ _______ _______ _____ _____    ______ ____
ROOT
ATOM      1  O   UNL     1      -3.813  -1.133   0.000  0.00  0.00    -0.269 OA
ATOM      2  N   UNL     1      -1.607  -1.783   0.000  0.00  0.00    -0.283 N 
ATOM      3  C   UNL     1       0.153  -0.205   0.000  0.00  0.00    +0.010 C 
ATOM      4  C   UNL     1      -0.254  -1.495   0.000  0.00  0.00    +0.028 C 
ATOM      5  C   UNL     1      -0.858   0.845   0.000  0.00  0.00    +0.016 C 
ATOM      6  C   UNL     1      -2.173   0.586   0.000  0.00  0.00    +0.122 C 
ATOM      7  C   UNL     1       0.637  -2.706   0.001  0.00  0.00    +0.047 C 
ATOM      8  C   UNL     1      -2.619  -0.840  -0.001  0.00  0.00    +0.259 C 
ATOM      9  H   UNL     1      -1.870  -2.732   0.001  0.00  0.00    +0.155 HD
ENDROOT
BRANCH   3  11
ATOM     10  N   UNL     1       4.295   0.746   0.000  0.00  0.00    -0.242 NA
ATOM     11  C   UNL     1       1.575   0.122   0.000  0.00  0.00    +0.004 C 
ATOM     12  C   UNL     1       2.250   0.277   1.202  0.00  0.00    +0.021 C 
ATOM     13  C   UNL     1       2.251   0.277  -1.203  0.00  0.00    +0.021 C 
ATOM     14  C   UNL     1       3.600   0.587   1.149  0.00  0.00    +0.099 C 
ATOM     15  C   UNL     1       3.600   0.587  -1.149  0.00  0.00    +0.099 C 
ENDBRANCH   3  11
BRANCH   6  17
ATOM     16  N   UNL     1      -3.908   2.498   0.000  0.00  0.00    -0.191 NA
ATOM     17  C   UNL     1      -3.128   1.638   0.000  0.00  0.00    +0.105 C 
ENDBRANCH   6  17
TORSDOF 2
