REMARK  Name = 5090
REMARK  3 active torsions:
REMARK  status: ('A' for Active; 'I' for Inactive)
REMARK    1  A    between atoms: C_3  and  C_7
REMARK    2  A    between atoms: C_4  and  C_17
REMARK    3  A    between atoms: C_8  and  S_13
REMARK                            x       y       z     vdW  Elec       q    Type
REMARK                         _______ _______ _______ _____ _____    ______ ____
ROOT
ATOM      1  O   UNL     1      -2.846   2.932   0.005  0.00  0.00    -0.440 OA
ATOM      2  O   UNL     1      -4.493   1.338   0.054  0.00  0.00    -0.245 OA
ATOM      3  C   UNL     1      -1.070   1.475  -0.016  0.00  0.00    +0.028 C 
ATOM      4  C   UNL     1      -2.172   0.715   0.006  0.00  0.00    +0.075 C 
ATOM      5  C   UNL     1      -1.419   2.915  -0.057  0.00  0.00    +0.236 C 
ATOM      6  C   UNL     1      -3.315   1.652   0.028  0.00  0.00    +0.341 C 
ENDROOT
BRANCH   3   7
ATOM      7  C   UNL     1       0.337   1.048  -0.011  0.00  0.00    -0.000 C 
ATOM      8  C   UNL     1       3.014   0.231  -0.003  0.00  0.00    +0.106 C 
ATOM      9  C   UNL     1       1.008   0.815  -1.217  0.00  0.00    +0.001 C 
ATOM     10  C   UNL     1       1.017   0.869   1.199  0.00  0.00    +0.001 C 
ATOM     11  C   UNL     1       2.342   0.408  -1.212  0.00  0.00    +0.018 C 
ATOM     12  C   UNL     1       2.351   0.462   1.203  0.00  0.00    +0.018 C 
BRANCH   8  13
ATOM     13  S   UNL     1       4.684  -0.279   0.002  0.00  0.00    +0.010 S 
ATOM     14  O   UNL     1       5.276   0.114  -1.268  0.00  0.00    -0.169 OA
ATOM     15  O   UNL     1       5.303   0.146   1.250  0.00  0.00    -0.169 OA
ATOM     16  C   UNL     1       4.603  -2.055   0.043  0.00  0.00    +0.182 C 
ENDBRANCH   8  13
ENDBRANCH   3   7
BRANCH   4  17
ATOM     17  C   UNL     1      -2.308  -0.742   0.002  0.00  0.00    +0.006 C 
ATOM     18  C   UNL     1      -2.344  -1.442   1.208  0.00  0.00    +0.000 C 
ATOM     19  C   UNL     1      -2.400  -1.431  -1.207  0.00  0.00    +0.000 C 
ATOM     20  C   UNL     1      -2.473  -2.831   1.205  0.00  0.00    +0.000 C 
ATOM     21  C   UNL     1      -2.529  -2.820  -1.210  0.00  0.00    +0.000 C 
ATOM     22  C   UNL     1      -2.565  -3.520  -0.004  0.00  0.00    +0.000 C 
ENDBRANCH   4  17
TORSDOF 3
