REMARK  Name = 4595
REMARK  2 active torsions:
REMARK  status: ('A' for Active; 'I' for Inactive)
REMARK    1  A    between atoms: C_3  and  C_16
REMARK    2  A    between atoms: C_16  and  N_17
REMARK                            x       y       z     vdW  Elec       q    Type
REMARK                         _______ _______ _______ _____ _____    ______ ____
ROOT
ATOM      1  O   UNL     1       0.825   1.049   1.301  0.00  0.00    -0.291 OA
ATOM      2  N   UNL     1      -2.661  -1.340  -0.452  0.00  0.00    -0.329 N 
ATOM      3  C   UNL     1       1.378  -1.233   0.749  0.00  0.00    +0.082 C 
ATOM      4  C   UNL     1       0.625  -2.579   0.838  0.00  0.00    +0.016 C 
ATOM      5  C   UNL     1      -0.550  -2.692  -0.145  0.00  0.00    +0.044 C 
ATOM      6  C   UNL     1      -1.356  -1.447  -0.067  0.00  0.00    +0.040 A 
ATOM      7  C   UNL     1      -0.932  -0.220   0.394  0.00  0.00    +0.048 A 
ATOM      8  C   UNL     1       0.429  -0.031   0.870  0.00  0.00    +0.175 C 
ATOM      9  C   UNL     1      -2.034   0.677   0.293  0.00  0.00    +0.020 A 
ATOM     10  C   UNL     1      -3.104  -0.051  -0.241  0.00  0.00    +0.060 A 
ATOM     11  C   UNL     1      -3.468  -2.413  -0.996  0.00  0.00    +0.130 C 
ATOM     12  C   UNL     1      -2.236   2.039   0.599  0.00  0.00    +0.002 C 
ATOM     13  C   UNL     1      -4.360   0.517  -0.481  0.00  0.00    +0.017 C 
ATOM     14  C   UNL     1      -3.488   2.619   0.363  0.00  0.00    +0.000 C 
ATOM     15  C   UNL     1      -4.532   1.868  -0.169  0.00  0.00    +0.001 C 
ENDROOT
BRANCH   3  16
ATOM     16  C   UNL     1       2.188  -1.107  -0.539  0.00  0.00    +0.104 C 
BRANCH  16  17
ATOM     17  N   UNL     1       2.996   0.103  -0.558  0.00  0.00    -0.273 N 
ATOM     18  N   UNL     1       4.717   1.458  -0.264  0.00  0.00    -0.232 NA
ATOM     19  C   UNL     1       4.271   0.232  -0.102  0.00  0.00    +0.113 C 
ATOM     20  C   UNL     1       2.593   1.309  -1.040  0.00  0.00    +0.087 C 
ATOM     21  C   UNL     1       3.676   2.135  -0.848  0.00  0.00    +0.116 C 
ATOM     22  C   UNL     1       5.021  -0.893   0.493  0.00  0.00    +0.069 C 
ENDBRANCH  16  17
ENDBRANCH   3  16
TORSDOF 2
