REMARK  Name = 1103
REMARK  13 active torsions:
REMARK  status: ('A' for Active; 'I' for Inactive)
REMARK    1  A    between atoms: C_1  and  C_2
REMARK    2  A    between atoms: C_1  and  C_14
REMARK    3  A    between atoms: C_2  and  C_3
REMARK    4  A    between atoms: C_3  and  N_4
REMARK    5  A    between atoms: N_4  and  C_7
REMARK    6  A    between atoms: C_7  and  C_8
REMARK    7  A    between atoms: C_8  and  C_9
REMARK    8  A    between atoms: C_9  and  N_10
REMARK    9  A    between atoms: C_14  and  N_15
REMARK   10  A    between atoms: N_15  and  C_18
REMARK   11  A    between atoms: C_18  and  C_19
REMARK   12  A    between atoms: C_19  and  C_20
REMARK   13  A    between atoms: C_20  and  N_21
REMARK                            x       y       z     vdW  Elec       q    Type
REMARK                         _______ _______ _______ _____ _____    ______ ____
ROOT
ATOM      1  C   UNL     1       0.657   0.452  -0.040  0.00  0.00    -0.026 C 
ENDROOT
BRANCH   1   2
ATOM      2  C   UNL     1      -0.627  -0.384  -0.037  0.00  0.00    -0.026 C 
BRANCH   2   3
ATOM      3  C   UNL     1      -1.904   0.458  -0.021  0.00  0.00    -0.082 C 
BRANCH   3   4
ATOM      4  N   UNL     1      -3.109  -0.363  -0.021  0.00  0.00    +0.384 N 
ATOM      5  H   UNL     1      -3.103  -0.965   0.803  0.00  0.00    -0.085 HD
ATOM      6  H   UNL     1      -3.121  -0.925  -0.872  0.00  0.00    -0.085 HD
BRANCH   4   7
ATOM      7  C   UNL     1      -4.304   0.468   0.004  0.00  0.00    -0.084 C 
BRANCH   7   8
ATOM      8  C   UNL     1      -5.585  -0.369   0.013  0.00  0.00    -0.047 C 
BRANCH   8   9
ATOM      9  C   UNL     1      -6.855   0.482   0.021  0.00  0.00    -0.088 C 
BRANCH   9  10
ATOM     10  N   UNL     1      -8.036  -0.374   0.046  0.00  0.00    +0.380 N 
ATOM     11  H   UNL     1      -8.876   0.204   0.051  0.00  0.00    -0.089 HD
ATOM     12  H   UNL     1      -8.017  -0.954   0.885  0.00  0.00    -0.089 HD
ATOM     13  H   UNL     1      -8.039  -0.972  -0.780  0.00  0.00    -0.089 HD
ENDBRANCH   9  10
ENDBRANCH   8   9
ENDBRANCH   7   8
ENDBRANCH   4   7
ENDBRANCH   3   4
ENDBRANCH   2   3
ENDBRANCH   1   2
BRANCH   1  14
ATOM     14  C   UNL     1       1.896  -0.443  -0.028  0.00  0.00    -0.082 C 
BRANCH  14  15
ATOM     15  N   UNL     1       3.108   0.368  -0.022  0.00  0.00    +0.384 N 
ATOM     16  H   UNL     1       3.106   0.965   0.805  0.00  0.00    -0.085 HD
ATOM     17  H   UNL     1       3.125   0.934  -0.870  0.00  0.00    -0.085 HD
BRANCH  15  18
ATOM     18  C   UNL     1       4.296  -0.474   0.000  0.00  0.00    -0.084 C 
BRANCH  18  19
ATOM     19  C   UNL     1       5.583   0.353   0.015  0.00  0.00    -0.047 C 
BRANCH  19  20
ATOM     20  C   UNL     1       6.846  -0.510   0.019  0.00  0.00    -0.088 C 
BRANCH  20  21
ATOM     21  N   UNL     1       8.034   0.337   0.050  0.00  0.00    +0.380 N 
ATOM     22  H   UNL     1       8.869  -0.249   0.053  0.00  0.00    -0.089 HD
ATOM     23  H   UNL     1       8.020   0.913   0.892  0.00  0.00    -0.089 HD
ATOM     24  H   UNL     1       8.044   0.939  -0.773  0.00  0.00    -0.089 HD
ENDBRANCH  20  21
ENDBRANCH  19  20
ENDBRANCH  18  19
ENDBRANCH  15  18
ENDBRANCH  14  15
ENDBRANCH   1  14
TORSDOF 13
