REMARK  Name = 5360515
REMARK  4 active torsions:
REMARK  status: ('A' for Active; 'I' for Inactive)
REMARK    1  A    between atoms: N_3  and  C_25
REMARK    2  A    between atoms: C_5  and  O_21
REMARK    3  A    between atoms: C_18  and  O_23
REMARK    4  A    between atoms: C_25  and  C_26
REMARK                            x       y       z     vdW  Elec       q    Type
REMARK                         _______ _______ _______ _____ _____    ______ ____
ROOT
ATOM      1  O   UNL     1      -2.564  -0.162  -1.490  0.00  0.00    -0.469 OA
ATOM      2  O   UNL     1      -3.955   1.798  -0.247  0.00  0.00    -0.292 OA
ATOM      3  N   UNL     1       2.345   0.525   0.075  0.00  0.00    +0.390 N 
ATOM      4  C   UNL     1      -0.479   0.664  -0.585  0.00  0.00    +0.084 C 
ATOM      5  C   UNL     1       0.151   1.566   0.487  0.00  0.00    +0.079 C 
ATOM      6  C   UNL     1       1.318   0.740   1.127  0.00  0.00    -0.028 C 
ATOM      7  C   UNL     1      -1.843   1.070  -1.167  0.00  0.00    +0.228 C 
ATOM      8  C   UNL     1       0.566   0.353  -1.682  0.00  0.00    -0.013 C 
ATOM      9  C   UNL     1      -0.924  -0.616   0.035  0.00  0.00    +0.016 C 
ATOM     10  C   UNL     1      -0.893   2.077   1.496  0.00  0.00    +0.033 C 
ATOM     11  C   UNL     1       1.871  -0.219  -1.097  0.00  0.00    -0.077 C 
ATOM     12  C   UNL     1       0.809  -0.576   1.817  0.00  0.00    +0.008 C 
ATOM     13  C   UNL     1      -0.325  -1.261   1.100  0.00  0.00    -0.025 C 
ATOM     14  C   UNL     1      -2.039   2.789   0.779  0.00  0.00    +0.071 C 
ATOM     15  C   UNL     1      -2.726   1.859  -0.195  0.00  0.00    +0.191 C 
ATOM     16  C   UNL     1      -2.079  -1.065  -0.573  0.00  0.00    +0.168 C 
ATOM     17  C   UNL     1      -0.892  -2.471   1.499  0.00  0.00    -0.001 C 
ATOM     18  C   UNL     1      -2.645  -2.264  -0.205  0.00  0.00    +0.167 C 
ATOM     19  C   UNL     1      -2.032  -2.976   0.836  0.00  0.00    +0.039 C 
ATOM     20  H   UNL     1       2.544   1.469  -0.256  0.00  0.00    -0.080 HD
ENDROOT
BRANCH   5  21
ATOM     21  O   UNL     1       0.702   2.734  -0.143  0.00  0.00    -0.388 OA
ATOM     22  H   UNL     1       1.371   2.466  -0.793  0.00  0.00    +0.210 HD
ENDBRANCH   5  21
BRANCH  18  23
ATOM     23  O   UNL     1      -3.770  -2.732  -0.799  0.00  0.00    -0.503 OA
ATOM     24  H   UNL     1      -4.170  -2.246  -1.494  0.00  0.00    +0.292 HD
ENDBRANCH  18  23
BRANCH   3  25
ATOM     25  C   UNL     1       3.599  -0.021   0.584  0.00  0.00    -0.077 C 
BRANCH  25  26
ATOM     26  C   UNL     1       4.667   0.008  -0.461  0.00  0.00    -0.021 C 
ATOM     27  C   UNL     1       6.019  -0.536  -0.125  0.00  0.00    -0.002 C 
ATOM     28  C   UNL     1       5.120  -1.283  -1.066  0.00  0.00    -0.002 C 
ENDBRANCH  25  26
ENDBRANCH   3  25
TORSDOF 4
