REMARK  Name = 10770
REMARK  6 active torsions:
REMARK  status: ('A' for Active; 'I' for Inactive)
REMARK    1  A    between atoms: C_1  and  O_3
REMARK    2  A    between atoms: C_1  and  C_12
REMARK    3  A    between atoms: O_3  and  C_5
REMARK    4  A    between atoms: C_5  and  C_6
REMARK    5  A    between atoms: C_12  and  N_13
REMARK    6  A    between atoms: N_13  and  C_16
REMARK                            x       y       z     vdW  Elec       q    Type
REMARK                         _______ _______ _______ _____ _____    ______ ____
ROOT
ATOM      1  C   UNL     1       0.067  -2.040  -0.435  0.00  0.00    +0.148 C 
ATOM      2  C   UNL     1      -0.282  -2.688  -1.769  0.00  0.00    +0.045 C 
ENDROOT
BRANCH   1   3
ATOM      3  O   UNL     1       1.419  -1.589  -0.515  0.00  0.00    -0.451 OA
BRANCH   3   5
ATOM      4  O   UNL     1       1.602  -1.295   1.761  0.00  0.00    -0.245 OA
ATOM      5  C   UNL     1       1.923  -1.024   0.614  0.00  0.00    +0.341 C 
BRANCH   5   6
ATOM      6  C   UNL     1       2.945  -0.003   0.274  0.00  0.00    +0.076 C 
ATOM      7  C   UNL     1       3.978   0.228   1.160  0.00  0.00    +0.006 C 
ATOM      8  C   UNL     1       2.831   0.685  -0.917  0.00  0.00    +0.006 C 
ATOM      9  C   UNL     1       4.939   1.187   0.840  0.00  0.00    +0.000 C 
ATOM     10  C   UNL     1       3.792   1.644  -1.236  0.00  0.00    +0.000 C 
ATOM     11  C   UNL     1       4.845   1.896  -0.357  0.00  0.00    +0.000 C 
ENDBRANCH   5   6
ENDBRANCH   3   5
ENDBRANCH   1   3
BRANCH   1  12
ATOM     12  C   UNL     1      -0.829  -0.847  -0.094  0.00  0.00    -0.037 C 
BRANCH  12  13
ATOM     13  N   UNL     1      -2.227  -1.229   0.031  0.00  0.00    +0.388 N 
ATOM     14  H   UNL     1      -2.552  -1.603  -0.861  0.00  0.00    -0.084 HD
ATOM     15  H   UNL     1      -2.309  -1.935   0.762  0.00  0.00    -0.084 HD
BRANCH  13  16
ATOM     16  C   UNL     1      -3.049  -0.077   0.397  0.00  0.00    -0.062 C 
ATOM     17  C   UNL     1      -2.924   1.012  -0.674  0.00  0.00    -0.021 C 
ATOM     18  C   UNL     1      -4.507  -0.513   0.575  0.00  0.00    -0.021 C 
ATOM     19  C   UNL     1      -3.830   2.203  -0.364  0.00  0.00    -0.002 C 
ATOM     20  C   UNL     1      -5.411   0.679   0.884  0.00  0.00    -0.002 C 
ATOM     21  C   UNL     1      -5.282   1.772  -0.174  0.00  0.00    -0.000 C 
ENDBRANCH  13  16
ENDBRANCH  12  13
ENDBRANCH   1  12
TORSDOF 6
