REMARK  Name = 71616
REMARK  6 active torsions:
REMARK  status: ('A' for Active; 'I' for Inactive)
REMARK    1  A    between atoms: C_1  and  C_4
REMARK    2  A    between atoms: C_1  and  O_10
REMARK    3  A    between atoms: C_1  and  C_12
REMARK    4  A    between atoms: C_1  and  C_21
REMARK    5  A    between atoms: C_12  and  C_17
REMARK    6  A    between atoms: C_21  and  N_22
REMARK                            x       y       z     vdW  Elec       q    Type
REMARK                         _______ _______ _______ _____ _____    ______ ____
ROOT
ATOM      1  C   UNL     1       0.055   0.083   0.396  0.00  0.00    +0.134 C 
ENDROOT
BRANCH   1   4
ATOM      2  F   UNL     1      -1.000   1.221  -1.965  0.00  0.00    -0.204 F 
ATOM      3  F   UNL     1      -5.154   2.172   0.090  0.00  0.00    -0.204 F 
ATOM      4  C   UNL     1      -1.369   0.655   0.310  0.00  0.00    +0.031 C 
ATOM      5  C   UNL     1      -1.790   1.188  -0.883  0.00  0.00    +0.141 C 
ATOM      6  C   UNL     1      -2.157   0.607   1.433  0.00  0.00    +0.003 C 
ATOM      7  C   UNL     1      -3.083   1.706  -0.958  0.00  0.00    +0.059 C 
ATOM      8  C   UNL     1      -3.450   1.125   1.358  0.00  0.00    +0.030 C 
ATOM      9  C   UNL     1      -3.913   1.675   0.163  0.00  0.00    +0.142 C 
ENDBRANCH   1   4
BRANCH   1  10
ATOM     10  O   UNL     1       0.283  -0.465   1.702  0.00  0.00    -0.380 OA
ATOM     11  H   UNL     1       1.183  -0.824   1.749  0.00  0.00    +0.211 HD
ENDBRANCH   1  10
BRANCH   1  12
ATOM     12  C   UNL     1       1.131   1.213   0.143  0.00  0.00    +0.073 C 
ATOM     13  C   UNL     1       1.000   2.417   1.093  0.00  0.00    +0.009 C 
BRANCH  12  17
ATOM     14  F   UNL     1       2.870   1.373  -2.100  0.00  0.00    -0.201 F 
ATOM     15  N   UNL     1       2.968   0.173   1.324  0.00  0.00    -0.226 NA
ATOM     16  N   UNL     1       5.103  -0.210   0.274  0.00  0.00    -0.220 NA
ATOM     17  C   UNL     1       2.574   0.704   0.167  0.00  0.00    +0.092 C 
ATOM     18  C   UNL     1       3.320   0.830  -0.965  0.00  0.00    +0.173 C 
ATOM     19  C   UNL     1       4.607   0.345  -0.852  0.00  0.00    +0.131 C 
ATOM     20  C   UNL     1       4.242  -0.264   1.308  0.00  0.00    +0.199 C 
ENDBRANCH  12  17
ENDBRANCH   1  12
BRANCH   1  21
ATOM     21  C   UNL     1       0.242  -1.082  -0.628  0.00  0.00    +0.149 C 
BRANCH  21  22
ATOM     22  N   UNL     1      -0.649  -2.231  -0.438  0.00  0.00    -0.188 N 
ATOM     23  N   UNL     1      -0.276  -3.236   0.346  0.00  0.00    -0.154 NA
ATOM     24  N   UNL     1      -2.346  -3.561  -0.570  0.00  0.00    -0.203 NA
ATOM     25  C   UNL     1      -1.865  -2.411  -0.982  0.00  0.00    +0.186 C 
ATOM     26  C   UNL     1      -1.345  -4.027   0.234  0.00  0.00    +0.218 C 
ENDBRANCH  21  22
ENDBRANCH   1  21
TORSDOF 6
