REMARK  Name = 4735
REMARK  10 active torsions:
REMARK  status: ('A' for Active; 'I' for Inactive)
REMARK    1  A    between atoms: C_1  and  C_2
REMARK    2  A    between atoms: C_1  and  C_17
REMARK    3  A    between atoms: C_2  and  C_3
REMARK    4  A    between atoms: C_3  and  O_4
REMARK    5  A    between atoms: O_4  and  C_5
REMARK    6  A    between atoms: C_8  and  C_13
REMARK    7  A    between atoms: C_17  and  C_18
REMARK    8  A    between atoms: C_18  and  O_19
REMARK    9  A    between atoms: O_19  and  C_20
REMARK   10  A    between atoms: C_23  and  C_28
REMARK                            x       y       z     vdW  Elec       q    Type
REMARK                         _______ _______ _______ _____ _____    ______ ____
ROOT
ATOM      1  C   UNL     1      -0.004   1.024  -0.751  0.00  0.00    +0.008 C 
ENDROOT
BRANCH   1   2
ATOM      2  C   UNL     1       1.255   1.640  -0.133  0.00  0.00    +0.047 C 
BRANCH   2   3
ATOM      3  C   UNL     1       2.532   1.052  -0.722  0.00  0.00    +0.205 C 
BRANCH   3   4
ATOM      4  O   UNL     1       3.667   1.642  -0.103  0.00  0.00    -0.475 OA
BRANCH   4   5
ATOM      5  C   UNL     1       4.795   0.868  -0.013  0.00  0.00    +0.139 C 
ATOM      6  C   UNL     1       5.054  -0.103  -0.980  0.00  0.00    +0.037 C 
ATOM      7  C   UNL     1       5.685   1.054   1.045  0.00  0.00    +0.037 C 
ATOM      8  C   UNL     1       7.093  -0.704   0.168  0.00  0.00    +0.031 C 
ATOM      9  C   UNL     1       6.203  -0.889  -0.890  0.00  0.00    +0.006 C 
ATOM     10  C   UNL     1       6.834   0.268   1.135  0.00  0.00    +0.006 C 
BRANCH   8  13
ATOM     11  N   UNL     1       9.199  -1.361   1.307  0.00  0.00    -0.343 N 
ATOM     12  N   UNL     1       8.536  -2.439  -0.657  0.00  0.00    -0.285 NA
ATOM     13  C   UNL     1       8.291  -1.522   0.263  0.00  0.00    +0.117 C 
ATOM     14  H   UNL     1      10.004  -1.926   1.352  0.00  0.00    +0.144 HD
ATOM     15  H   UNL     1       9.036  -0.681   2.001  0.00  0.00    +0.144 HD
ATOM     16  H   UNL     1       9.347  -2.994  -0.595  0.00  0.00    +0.188 HD
ENDBRANCH   8  13
ENDBRANCH   4   5
ENDBRANCH   3   4
ENDBRANCH   2   3
ENDBRANCH   1   2
BRANCH   1  17
ATOM     17  C   UNL     1      -1.270   1.651  -0.171  0.00  0.00    +0.047 C 
BRANCH  17  18
ATOM     18  C   UNL     1      -2.527   1.016  -0.747  0.00  0.00    +0.205 C 
BRANCH  18  19
ATOM     19  O   UNL     1      -3.664   1.631  -0.158  0.00  0.00    -0.475 OA
BRANCH  19  20
ATOM     20  C   UNL     1      -4.794   0.863  -0.044  0.00  0.00    +0.139 C 
ATOM     21  C   UNL     1      -5.690   1.092   0.999  0.00  0.00    +0.037 C 
ATOM     22  C   UNL     1      -5.048  -0.146  -0.974  0.00  0.00    +0.037 C 
ATOM     23  C   UNL     1      -7.095  -0.697   0.185  0.00  0.00    +0.031 C 
ATOM     24  C   UNL     1      -6.841   0.312   1.114  0.00  0.00    +0.006 C 
ATOM     25  C   UNL     1      -6.198  -0.926  -0.859  0.00  0.00    +0.006 C 
BRANCH  23  28
ATOM     26  N   UNL     1      -8.576  -2.525  -0.609  0.00  0.00    -0.343 N 
ATOM     27  N   UNL     1      -9.145  -1.289   1.291  0.00  0.00    -0.285 NA
ATOM     28  C   UNL     1      -8.295  -1.510   0.304  0.00  0.00    +0.117 C 
ATOM     29  H   UNL     1      -9.394  -3.064  -0.510  0.00  0.00    +0.144 HD
ATOM     30  H   UNL     1      -7.957  -2.703  -1.353  0.00  0.00    +0.144 HD
ATOM     31  H   UNL     1      -9.957  -1.838   1.373  0.00  0.00    +0.188 HD
ENDBRANCH  23  28
ENDBRANCH  19  20
ENDBRANCH  18  19
ENDBRANCH  17  18
ENDBRANCH   1  17
TORSDOF 10
