REMARK  Name = 2092
REMARK  7 active torsions:
REMARK  status: ('A' for Active; 'I' for Inactive)
REMARK    1  A    between atoms: N_1  and  C_20
REMARK    2  A    between atoms: C_12  and  O_16
REMARK    3  A    between atoms: C_13  and  O_18
REMARK    4  A    between atoms: C_20  and  C_21
REMARK    5  A    between atoms: C_21  and  C_22
REMARK    6  A    between atoms: C_22  and  N_24
REMARK    7  A    between atoms: C_25  and  C_28
REMARK                            x       y       z     vdW  Elec       q    Type
REMARK                         _______ _______ _______ _____ _____    ______ ____
ROOT
ATOM      1  N   UNL     1       1.014  -2.866  -0.210  0.00  0.00    -0.232 N 
ATOM      2  N   UNL     1      -0.256  -0.908   0.024  0.00  0.00    -0.332 NA
ATOM      3  N   UNL     1      -1.299  -3.002  -0.553  0.00  0.00    -0.313 NA
ATOM      4  N   UNL     1      -3.624  -3.131  -0.896  0.00  0.00    -0.332 N 
ATOM      5  C   UNL     1      -0.245  -2.228  -0.249  0.00  0.00    +0.204 C 
ATOM      6  C   UNL     1       1.126  -4.283  -0.490  0.00  0.00    +0.125 C 
ATOM      7  C   UNL     1      -2.629  -0.997  -0.316  0.00  0.00    +0.074 C 
ATOM      8  C   UNL     1      -1.452  -0.293  -0.010  0.00  0.00    +0.134 C 
ATOM      9  C   UNL     1      -2.480  -2.356  -0.579  0.00  0.00    +0.193 C 
ATOM     10  C   UNL     1      -3.873  -0.344  -0.349  0.00  0.00    +0.046 C 
ATOM     11  C   UNL     1      -1.560   1.069   0.259  0.00  0.00    +0.127 C 
ATOM     12  C   UNL     1      -3.952   1.018  -0.077  0.00  0.00    +0.169 C 
ATOM     13  C   UNL     1      -2.794   1.725   0.228  0.00  0.00    +0.157 C 
ATOM     14  H   UNL     1      -3.529  -4.093  -1.084  0.00  0.00    +0.145 HD
ATOM     15  H   UNL     1      -4.512  -2.708  -0.929  0.00  0.00    +0.145 HD
ENDROOT
BRANCH  12  16
ATOM     16  O   UNL     1      -5.161   1.644  -0.111  0.00  0.00    -0.469 OA
ATOM     17  C   UNL     1      -5.904   1.686   1.106  0.00  0.00    +0.253 C 
ENDBRANCH  12  16
BRANCH  13  18
ATOM     18  O   UNL     1      -2.848   3.059   0.498  0.00  0.00    -0.472 OA
ATOM     19  C   UNL     1      -1.615   3.709   0.801  0.00  0.00    +0.252 C 
ENDBRANCH  13  18
BRANCH   1  20
ATOM     20  C   UNL     1       2.210  -2.108   0.095  0.00  0.00    +0.105 C 
BRANCH  20  21
ATOM     21  C   UNL     1       2.478  -2.091   1.600  0.00  0.00    +0.043 C 
BRANCH  21  22
ATOM     22  C   UNL     1       3.731  -1.313   1.997  0.00  0.00    +0.091 C 
BRANCH  22  24
ATOM     23  O   UNL     1       4.668  -0.206  -0.518  0.00  0.00    -0.272 OA
ATOM     24  N   UNL     1       3.685   0.060   1.577  0.00  0.00    -0.302 N 
ATOM     25  C   UNL     1       4.159   0.501   0.348  0.00  0.00    +0.250 C 
ATOM     26  H   UNL     1       3.296   0.723   2.192  0.00  0.00    +0.150 HD
BRANCH  25  28
ATOM     27  O   UNL     1       4.520   2.287  -1.127  0.00  0.00    -0.347 OA
ATOM     28  C   UNL     1       3.967   1.972   0.154  0.00  0.00    +0.191 C 
ATOM     29  C   UNL     1       2.503   2.368   0.127  0.00  0.00    +0.042 C 
ATOM     30  C   UNL     1       2.170   2.288  -1.344  0.00  0.00    +0.035 C 
ATOM     31  C   UNL     1       3.463   2.740  -1.984  0.00  0.00    +0.143 C 
ENDBRANCH  25  28
ENDBRANCH  22  24
ENDBRANCH  21  22
ENDBRANCH  20  21
ENDBRANCH   1  20
TORSDOF 7
