REMARK  Name = 5311000
REMARK  5 active torsions:
REMARK  status: ('A' for Active; 'I' for Inactive)
REMARK    1  A    between atoms: C_7  and  O_23
REMARK    2  A    between atoms: C_7  and  C_28
REMARK    3  A    between atoms: C_11  and  O_25
REMARK    4  A    between atoms: C_28  and  C_29
REMARK    5  A    between atoms: C_29  and  O_30
REMARK                            x       y       z     vdW  Elec       q    Type
REMARK                         _______ _______ _______ _____ _____    ______ ____
ROOT
ATOM      1 CL   UNL     1      -1.488   2.752   1.023  0.00  0.00    -0.115 Cl
ATOM      2  O   UNL     1      -6.247  -0.137   1.588  0.00  0.00    -0.287 OA
ATOM      3  C   UNL     1       1.819  -0.256  -0.257  0.00  0.00    +0.031 C 
ATOM      4  C   UNL     1       0.895   0.972  -0.099  0.00  0.00    +0.004 C 
ATOM      5  C   UNL     1      -0.510   0.774  -0.698  0.00  0.00    +0.018 C 
ATOM      6  C   UNL     1      -1.206  -0.452   0.000  0.00  0.00    +0.035 C 
ATOM      7  C   UNL     1       3.116   0.322   0.385  0.00  0.00    +0.141 C 
ATOM      8  C   UNL     1       1.748   2.135  -0.605  0.00  0.00    +0.003 C 
ATOM      9  C   UNL     1       1.156  -1.424   0.500  0.00  0.00    +0.032 C 
ATOM     10  C   UNL     1       3.197   1.768  -0.190  0.00  0.00    +0.032 C 
ATOM     11  C   UNL     1      -0.285  -1.716   0.027  0.00  0.00    +0.111 C 
ATOM     12  C   UNL     1      -2.677  -0.690  -0.538  0.00  0.00    +0.036 C 
ATOM     13  C   UNL     1      -1.376   2.060  -0.635  0.00  0.00    +0.084 C 
ATOM     14  C   UNL     1       2.087  -0.640  -1.738  0.00  0.00    +0.003 C 
ATOM     15  C   UNL     1      -2.788   1.809  -1.167  0.00  0.00    +0.039 C 
ATOM     16  C   UNL     1      -3.431   0.641  -0.459  0.00  0.00    -0.037 C 
ATOM     17  C   UNL     1       3.800   2.803   0.756  0.00  0.00    +0.003 C 
ATOM     18  C   UNL     1      -2.743  -1.180  -2.003  0.00  0.00    +0.009 C 
ATOM     19  C   UNL     1      -3.365  -1.761   0.297  0.00  0.00    -0.020 C 
ATOM     20  C   UNL     1      -4.574   0.812   0.224  0.00  0.00    +0.034 C 
ATOM     21  C   UNL     1      -4.500  -1.596   0.984  0.00  0.00    +0.038 C 
ATOM     22  C   UNL     1      -5.194  -0.296   0.979  0.00  0.00    +0.195 C 
ENDROOT
BRANCH   7  23
ATOM     23  O   UNL     1       3.084   0.295   1.807  0.00  0.00    -0.380 OA
ATOM     24  H   UNL     1       2.310   0.786   2.122  0.00  0.00    +0.211 HD
ENDBRANCH   7  23
BRANCH  11  25
ATOM     25  O   UNL     1      -0.241  -2.358  -1.239  0.00  0.00    -0.384 OA
ATOM     26  H   UNL     1      -1.145  -2.543  -1.539  0.00  0.00    +0.210 HD
ENDBRANCH  11  25
BRANCH   7  28
ATOM     27  O   UNL     1       5.290   0.020  -0.541  0.00  0.00    -0.291 OA
ATOM     28  C   UNL     1       4.353  -0.470   0.088  0.00  0.00    +0.204 C 
BRANCH  28  29
ATOM     29  C   UNL     1       4.378  -1.893   0.604  0.00  0.00    +0.204 C 
BRANCH  29  30
ATOM     30  O   UNL     1       5.699  -2.291   0.906  0.00  0.00    -0.375 OA
ATOM     31  H   UNL     1       5.694  -3.204   1.234  0.00  0.00    +0.211 HD
ENDBRANCH  29  30
ENDBRANCH  28  29
ENDBRANCH   7  28
TORSDOF 5
