REMARK  Name = 5440
REMARK  6 active torsions:
REMARK  status: ('A' for Active; 'I' for Inactive)
REMARK    1  A    between atoms: N_2  and  C_18
REMARK    2  A    between atoms: C_10  and  S_15
REMARK    3  A    between atoms: S_15  and  C_16
REMARK    4  A    between atoms: C_18  and  C_19
REMARK    5  A    between atoms: C_19  and  C_20
REMARK    6  A    between atoms: C_20  and  N_21
REMARK                            x       y       z     vdW  Elec       q    Type
REMARK                         _______ _______ _______ _____ _____    ______ ____
ROOT
ATOM      1  S   UNL     1      -2.484  -0.163  -2.202  0.00  0.00    -0.084 S 
ATOM      2  N   UNL     1      -1.651  -0.093   0.792  0.00  0.00    -0.286 N 
ATOM      3  C   UNL     1      -1.439   1.107   0.067  0.00  0.00    +0.058 C 
ATOM      4  C   UNL     1      -2.571  -1.110   0.433  0.00  0.00    +0.058 C 
ATOM      5  C   UNL     1      -1.798   1.207  -1.292  0.00  0.00    +0.043 C 
ATOM      6  C   UNL     1      -3.042  -1.230  -0.889  0.00  0.00    +0.043 C 
ATOM      7  C   UNL     1      -0.897   2.262   0.673  0.00  0.00    +0.021 C 
ATOM      8  C   UNL     1      -3.084  -2.022   1.381  0.00  0.00    +0.015 C 
ATOM      9  C   UNL     1      -1.593   2.402  -2.005  0.00  0.00    +0.008 C 
ATOM     10  C   UNL     1      -0.700   3.448  -0.039  0.00  0.00    +0.026 C 
ATOM     11  C   UNL     1      -3.962  -2.235  -1.238  0.00  0.00    +0.008 C 
ATOM     12  C   UNL     1      -1.046   3.518  -1.380  0.00  0.00    +0.007 C 
ATOM     13  C   UNL     1      -4.001  -3.017   1.031  0.00  0.00    +0.001 C 
ATOM     14  C   UNL     1      -4.438  -3.125  -0.281  0.00  0.00    +0.001 C 
ENDROOT
BRANCH  10  15
ATOM     15  S   UNL     1      -0.013   4.876   0.778  0.00  0.00    -0.114 S 
BRANCH  15  16
ATOM     16  C   UNL     1       1.604   4.251   1.315  0.00  0.00    +0.062 C 
ATOM     17  C   UNL     1       2.426   3.805   0.121  0.00  0.00    +0.013 C 
ENDBRANCH  15  16
ENDBRANCH  10  15
BRANCH   2  18
ATOM     18  C   UNL     1      -0.911  -0.262   2.049  0.00  0.00    +0.093 C 
BRANCH  18  19
ATOM     19  C   UNL     1       0.589  -0.382   1.782  0.00  0.00    -0.001 C 
BRANCH  19  20
ATOM     20  C   UNL     1       0.980  -1.531   0.847  0.00  0.00    -0.076 C 
BRANCH  20  21
ATOM     21  N   UNL     1       2.428  -1.622   0.669  0.00  0.00    +0.384 N 
ATOM     22  N   UNL     1       4.826  -1.687  -0.944  0.00  0.00    +0.383 N 
ATOM     23  C   UNL     1       2.783  -2.807  -0.121  0.00  0.00    -0.101 C 
ATOM     24  C   UNL     1       2.952  -0.407   0.034  0.00  0.00    -0.101 C 
ATOM     25  C   UNL     1       4.301  -2.902  -0.310  0.00  0.00    -0.101 C 
ATOM     26  C   UNL     1       4.470  -0.502  -0.154  0.00  0.00    -0.101 C 
ATOM     27  C   UNL     1       6.274  -1.778  -1.119  0.00  0.00    -0.101 C 
ATOM     28  H   UNL     1       2.853  -1.711   1.592  0.00  0.00    -0.080 HD
ATOM     29  H   UNL     1       4.402  -1.597  -1.867  0.00  0.00    -0.080 HD
ENDBRANCH  20  21
ENDBRANCH  19  20
ENDBRANCH  18  19
ENDBRANCH   2  18
TORSDOF 6
