REMARK  Name = 42008
REMARK  11 active torsions:
REMARK  status: ('A' for Active; 'I' for Inactive)
REMARK    1  A    between atoms: C_5  and  N_11
REMARK    2  A    between atoms: C_5  and  O_19
REMARK    3  A    between atoms: C_7  and  C_22
REMARK    4  A    between atoms: C_8  and  C_25
REMARK    5  A    between atoms: C_12  and  C_14
REMARK    6  A    between atoms: C_14  and  S_15
REMARK    7  A    between atoms: S_15  and  C_16
REMARK    8  A    between atoms: C_16  and  C_18
REMARK    9  A    between atoms: C_22  and  O_23
REMARK   10  A    between atoms: C_25  and  S_26
REMARK   11  A    between atoms: S_26  and  C_31
REMARK                            x       y       z     vdW  Elec       q    Type
REMARK                         _______ _______ _______ _____ _____    ______ ____
ROOT
ATOM      1  S   UNL     1       1.045   0.939  -2.285  0.00  0.00    -0.112 S 
ATOM      2  O   UNL     1       2.442   0.923   2.150  0.00  0.00    -0.270 OA
ATOM      3  N   UNL     1       1.054   1.455   0.320  0.00  0.00    -0.238 N 
ATOM      4  C   UNL     1       1.672   1.927  -0.907  0.00  0.00    +0.180 C 
ATOM      5  C   UNL     1       3.014   1.474  -0.292  0.00  0.00    +0.250 C 
ATOM      6  C   UNL     1       2.196   1.242   1.010  0.00  0.00    +0.275 C 
ATOM      7  C   UNL     1      -0.287   1.342   0.494  0.00  0.00    +0.125 C 
ATOM      8  C   UNL     1      -1.143   1.380  -0.555  0.00  0.00    -0.002 C 
ATOM      9  C   UNL     1      -0.685   1.450  -2.010  0.00  0.00    +0.084 C 
ENDROOT
BRANCH   5  11
ATOM     10  O   UNL     1       4.762  -0.461   0.953  0.00  0.00    -0.274 OA
ATOM     11  N   UNL     1       3.498   0.214  -0.873  0.00  0.00    -0.276 N 
ATOM     12  C   UNL     1       4.341  -0.652  -0.188  0.00  0.00    +0.235 C 
ATOM     13  H   UNL     1       3.215  -0.025  -1.785  0.00  0.00    +0.152 HD
BRANCH  12  14
ATOM     14  C   UNL     1       4.694  -1.892  -0.973  0.00  0.00    +0.143 C 
BRANCH  14  15
ATOM     15  S   UNL     1       4.159  -3.347  -0.042  0.00  0.00    -0.114 S 
BRANCH  15  16
ATOM     16  C   UNL     1       2.405  -3.317  -0.481  0.00  0.00    +0.163 C 
BRANCH  16  18
ATOM     17  N   UNL     1       1.074  -5.286   0.633  0.00  0.00    -0.195 NA
ATOM     18  C   UNL     1       1.665  -4.417   0.142  0.00  0.00    +0.085 C 
ENDBRANCH  16  18
ENDBRANCH  15  16
ENDBRANCH  14  15
ENDBRANCH  12  14
ENDBRANCH   5  11
BRANCH   5  19
ATOM     19  O   UNL     1       4.049   2.460  -0.110  0.00  0.00    -0.330 OA
ATOM     20  C   UNL     1       4.542   3.054  -1.302  0.00  0.00    +0.176 C 
ENDBRANCH   5  19
BRANCH   7  22
ATOM     21  O   UNL     1      -1.361   0.114   2.224  0.00  0.00    -0.244 OA
ATOM     22  C   UNL     1      -0.764   1.110   1.865  0.00  0.00    +0.351 C 
BRANCH  22  23
ATOM     23  O   UNL     1      -0.436   2.164   2.638  0.00  0.00    -0.476 OA
ATOM     24  H   UNL     1       0.027   2.890   2.267  0.00  0.00    +0.295 HD
ENDBRANCH  22  23
ENDBRANCH   7  22
BRANCH   8  25
ATOM     25  C   UNL     1      -2.648   1.343  -0.437  0.00  0.00    +0.089 C 
BRANCH  25  26
ATOM     26  S   UNL     1      -3.206  -0.368  -0.471  0.00  0.00    -0.070 S 
BRANCH  26  31
ATOM     27  N   UNL     1      -5.854  -1.151  -0.294  0.00  0.00    -0.206 N 
ATOM     28  N   UNL     1      -5.604   1.002  -0.216  0.00  0.00    -0.101 NA
ATOM     29  N   UNL     1      -7.094  -0.655  -0.171  0.00  0.00    -0.042 NA
ATOM     30  N   UNL     1      -6.934   0.661  -0.124  0.00  0.00    -0.022 NA
ATOM     31  C   UNL     1      -4.954  -0.134  -0.321  0.00  0.00    +0.211 A 
ATOM     32  C   UNL     1      -5.644  -2.574  -0.377  0.00  0.00    +0.158 C 
ENDBRANCH  26  31
ENDBRANCH  25  26
ENDBRANCH   8  25
TORSDOF 11
