REMARK  Name = 4236
REMARK  5 active torsions:
REMARK  status: ('A' for Active; 'I' for Inactive)
REMARK    1  A    between atoms: C_1  and  C_2
REMARK    2  A    between atoms: C_1  and  C_8
REMARK    3  A    between atoms: C_1  and  S_14
REMARK    4  A    between atoms: S_14  and  C_16
REMARK    5  A    between atoms: C_16  and  C_19
REMARK                            x       y       z     vdW  Elec       q    Type
REMARK                         _______ _______ _______ _____ _____    ______ ____
ROOT
ATOM      1  C   UNL     1       0.227  -0.212   0.442  0.00  0.00    +0.124 C 
ENDROOT
BRANCH   1   2
ATOM      2  C   UNL     1      -0.071   1.236   0.245  0.00  0.00    -0.006 C 
ATOM      3  C   UNL     1       0.076   2.129   1.306  0.00  0.00    -0.003 C 
ATOM      4  C   UNL     1      -0.497   1.697  -1.000  0.00  0.00    -0.003 C 
ATOM      5  C   UNL     1      -0.202   3.483   1.123  0.00  0.00    -0.000 C 
ATOM      6  C   UNL     1      -0.775   3.051  -1.185  0.00  0.00    -0.000 C 
ATOM      7  C   UNL     1      -0.628   3.944  -0.123  0.00  0.00    -0.000 C 
ENDBRANCH   1   2
BRANCH   1   8
ATOM      8  C   UNL     1       1.680  -0.597   0.167  0.00  0.00    -0.006 C 
ATOM      9  C   UNL     1       2.416  -1.169   1.180  0.00  0.00    -0.003 C 
ATOM     10  C   UNL     1       2.201  -0.357  -1.085  0.00  0.00    -0.003 C 
ATOM     11  C   UNL     1       3.742  -1.519   0.929  0.00  0.00    -0.000 C 
ATOM     12  C   UNL     1       3.528  -0.708  -1.337  0.00  0.00    -0.000 C 
ATOM     13  C   UNL     1       4.298  -1.289  -0.329  0.00  0.00    -0.000 C 
ENDBRANCH   1   8
BRANCH   1  14
ATOM     14  S   UNL     1      -0.950  -1.330  -0.448  0.00  0.00    +0.058 S 
ATOM     15  O   UNL     1      -0.659  -2.705   0.039  0.00  0.00    -0.255 OA
BRANCH  14  16
ATOM     16  C   UNL     1      -2.409  -0.717   0.422  0.00  0.00    +0.177 C 
BRANCH  16  19
ATOM     17  O   UNL     1      -4.012  -1.411  -1.230  0.00  0.00    -0.274 OA
ATOM     18  N   UNL     1      -4.318  -2.098   0.941  0.00  0.00    -0.328 N 
ATOM     19  C   UNL     1      -3.648  -1.429  -0.057  0.00  0.00    +0.233 C 
ATOM     20  H   UNL     1      -5.141  -2.596   0.733  0.00  0.00    +0.145 HD
ATOM     21  H   UNL     1      -3.974  -2.079   1.864  0.00  0.00    +0.145 HD
ENDBRANCH  16  19
ENDBRANCH  14  16
ENDBRANCH   1  14
TORSDOF 5
