REMARK  Name = 54678486
REMARK  5 active torsions:
REMARK  status: ('A' for Active; 'I' for Inactive)
REMARK    1  A    between atoms: C_3  and  C_14
REMARK    2  A    between atoms: C_4  and  O_12
REMARK    3  A    between atoms: C_14  and  C_15
REMARK    4  A    between atoms: C_14  and  C_21
REMARK    5  A    between atoms: C_21  and  C_23
REMARK                            x       y       z     vdW  Elec       q    Type
REMARK                         _______ _______ _______ _____ _____    ______ ____
ROOT
ATOM      1  O   UNL     1      -2.092   0.509   1.655  0.00  0.00    -0.421 OA
ATOM      2  O   UNL     1      -0.159   1.417   2.438  0.00  0.00    -0.245 OA
ATOM      3  C   UNL     1      -0.039   0.368   0.304  0.00  0.00    +0.092 A 
ATOM      4  C   UNL     1      -0.712  -0.290  -0.659  0.00  0.00    +0.139 A 
ATOM      5  C   UNL     1      -2.138  -0.591  -0.511  0.00  0.00    +0.068 A 
ATOM      6  C   UNL     1      -0.742   0.810   1.544  0.00  0.00    +0.345 A 
ATOM      7  C   UNL     1      -2.788  -0.181   0.648  0.00  0.00    +0.152 A 
ATOM      8  C   UNL     1      -2.889  -1.275  -1.477  0.00  0.00    +0.006 C 
ATOM      9  C   UNL     1      -4.143  -0.428   0.869  0.00  0.00    +0.038 C 
ATOM     10  C   UNL     1      -4.249  -1.531  -1.271  0.00  0.00    +0.000 C 
ATOM     11  C   UNL     1      -4.875  -1.108  -0.100  0.00  0.00    +0.003 C 
ENDROOT
BRANCH   4  12
ATOM     12  O   UNL     1      -0.154  -0.732  -1.841  0.00  0.00    -0.506 OA
ATOM     13  H   UNL     1       0.754  -0.580  -2.015  0.00  0.00    +0.292 HD
ENDBRANCH   4  12
BRANCH   3  14
ATOM     14  C   UNL     1       1.423   0.721   0.267  0.00  0.00    +0.061 C 
BRANCH  14  15
ATOM     15  C   UNL     1       2.287  -0.530   0.214  0.00  0.00    -0.018 C 
ATOM     16  C   UNL     1       2.637  -1.187   1.394  0.00  0.00    -0.004 C 
ATOM     17  C   UNL     1       2.729  -1.020  -1.015  0.00  0.00    -0.004 C 
ATOM     18  C   UNL     1       3.429  -2.334   1.345  0.00  0.00    -0.000 C 
ATOM     19  C   UNL     1       3.522  -2.167  -1.063  0.00  0.00    -0.000 C 
ATOM     20  C   UNL     1       3.872  -2.824   0.117  0.00  0.00    -0.000 C 
ENDBRANCH  14  15
BRANCH  14  21
ATOM     21  C   UNL     1       1.717   1.696  -0.890  0.00  0.00    +0.074 C 
BRANCH  21  23
ATOM     22  O   UNL     1       0.611   3.438   0.380  0.00  0.00    -0.296 OA
ATOM     23  C   UNL     1       1.234   3.117  -0.631  0.00  0.00    +0.152 C 
ATOM     24  C   UNL     1       1.520   4.123  -1.716  0.00  0.00    +0.072 C 
ENDBRANCH  21  23
ENDBRANCH  14  21
ENDBRANCH   3  14
TORSDOF 5
