REMARK  Name = 6082
REMARK  6 active torsions:
REMARK  status: ('A' for Active; 'I' for Inactive)
REMARK    1  A    between atoms: C_1  and  C_11
REMARK    2  A    between atoms: C_2  and  O_7
REMARK    3  A    between atoms: C_4  and  O_9
REMARK    4  A    between atoms: C_11  and  O_12
REMARK    5  A    between atoms: C_11  and  C_14
REMARK    6  A    between atoms: C_14  and  N_16
REMARK                            x       y       z     vdW  Elec       q    Type
REMARK                         _______ _______ _______ _____ _____    ______ ____
ROOT
ATOM      1  C   UNL     1       0.186  -0.129  -0.261  0.00  0.00    +0.039 C 
ATOM      2  C   UNL     1      -0.127  -1.464  -0.072  0.00  0.00    +0.137 C 
ATOM      3  C   UNL     1      -0.782   0.858  -0.189  0.00  0.00    +0.038 C 
ATOM      4  C   UNL     1      -2.103   0.498   0.080  0.00  0.00    +0.139 C 
ATOM      5  C   UNL     1      -1.447  -1.824   0.197  0.00  0.00    +0.040 C 
ATOM      6  C   UNL     1      -2.436  -0.842   0.273  0.00  0.00    +0.040 C 
ENDROOT
BRANCH   2   7
ATOM      7  O   UNL     1       0.826  -2.436  -0.143  0.00  0.00    -0.472 OA
ATOM      8  C   UNL     1       0.398  -3.780   0.067  0.00  0.00    +0.252 C 
ENDBRANCH   2   7
BRANCH   4   9
ATOM      9  O   UNL     1      -3.067   1.456   0.154  0.00  0.00    -0.471 OA
ATOM     10  C   UNL     1      -2.659   2.807  -0.054  0.00  0.00    +0.252 C 
ENDBRANCH   4   9
BRANCH   1  11
ATOM     11  C   UNL     1       1.614   0.279  -0.555  0.00  0.00    +0.116 C 
BRANCH  11  12
ATOM     12  O   UNL     1       1.623   0.827  -1.876  0.00  0.00    -0.382 OA
ATOM     13  H   UNL     1       2.525   1.103  -2.105  0.00  0.00    +0.211 HD
ENDBRANCH  11  12
BRANCH  11  14
ATOM     14  C   UNL     1       2.185   1.307   0.448  0.00  0.00    -0.034 C 
ATOM     15  C   UNL     1       2.239   0.765   1.878  0.00  0.00    -0.021 C 
BRANCH  14  16
ATOM     16  N   UNL     1       3.549   1.677   0.052  0.00  0.00    +0.384 N 
ATOM     17  H   UNL     1       3.539   2.043  -0.900  0.00  0.00    -0.089 HD
ATOM     18  H   UNL     1       4.151   0.855   0.095  0.00  0.00    -0.089 HD
ATOM     19  H   UNL     1       3.905   2.392   0.687  0.00  0.00    -0.089 HD
ENDBRANCH  14  16
ENDBRANCH  11  14
ENDBRANCH   1  11
TORSDOF 6
