REMARK  Name = 41781
REMARK  5 active torsions:
REMARK  status: ('A' for Active; 'I' for Inactive)
REMARK    1  A    between atoms: C_2  and  S_7
REMARK    2  A    between atoms: C_3  and  N_19
REMARK    3  A    between atoms: S_7  and  N_12
REMARK    4  A    between atoms: N_11  and  C_16
REMARK    5  A    between atoms: N_19  and  C_21
REMARK                            x       y       z     vdW  Elec       q    Type
REMARK                         _______ _______ _______ _____ _____    ______ ____
ROOT
ATOM      1  N   UNL     1       0.596  -3.265  -2.087  0.00  0.00    -0.241 NA
ATOM      2  C   UNL     1       0.589  -2.082   0.000  0.00  0.00    +0.158 C 
ATOM      3  C   UNL     1      -0.716  -1.681  -0.194  0.00  0.00    +0.071 C 
ATOM      4  C   UNL     1       1.206  -2.861  -0.950  0.00  0.00    +0.120 C 
ATOM      5  C   UNL     1      -1.377  -2.076  -1.352  0.00  0.00    +0.037 C 
ATOM      6  C   UNL     1      -0.683  -2.861  -2.259  0.00  0.00    +0.100 C 
ENDROOT
BRANCH   2   7
ATOM      7  S   UNL     1       1.494  -1.619   1.446  0.00  0.00    +0.079 S 
ATOM      8  O   UNL     1       2.781  -2.286   1.405  0.00  0.00    -0.150 OA
ATOM      9  O   UNL     1       0.605  -1.806   2.576  0.00  0.00    -0.150 OA
BRANCH   7  12
ATOM     10  O   UNL     1       3.584  -0.040  -0.224  0.00  0.00    -0.251 OA
ATOM     11  N   UNL     1       2.675   2.013   0.327  0.00  0.00    -0.289 N 
ATOM     12  N   UNL     1       1.714   0.054   1.172  0.00  0.00    -0.169 N 
ATOM     13  C   UNL     1       2.744   0.633   0.365  0.00  0.00    +0.319 C 
ATOM     14  H   UNL     1       1.961   2.462   0.835  0.00  0.00    +0.151 HD
ATOM     15  H   UNL     1       1.080   0.670   1.606  0.00  0.00    +0.178 HD
BRANCH  11  16
ATOM     16  C   UNL     1       3.602   2.825  -0.426  0.00  0.00    +0.073 C 
ATOM     17  C   UNL     1       3.799   4.175   0.258  0.00  0.00    +0.021 C 
ATOM     18  C   UNL     1       3.082   3.003  -1.849  0.00  0.00    +0.021 C 
ENDBRANCH  11  16
ENDBRANCH   7  12
ENDBRANCH   2   7
BRANCH   3  19
ATOM     19  N   UNL     1      -1.399  -0.881   0.747  0.00  0.00    -0.311 N 
ATOM     20  H   UNL     1      -1.100  -1.020   1.675  0.00  0.00    +0.152 HD
BRANCH  19  21
ATOM     21  C   UNL     1      -2.423   0.077   0.620  0.00  0.00    +0.048 C 
ATOM     22  C   UNL     1      -2.530   0.837  -0.546  0.00  0.00    +0.010 C 
ATOM     23  C   UNL     1      -3.546   1.785  -0.672  0.00  0.00    -0.021 C 
ATOM     24  C   UNL     1      -3.334   0.269   1.660  0.00  0.00    +0.015 C 
ATOM     25  C   UNL     1      -4.455   1.975   0.368  0.00  0.00    -0.004 C 
ATOM     26  C   UNL     1      -4.350   1.217   1.534  0.00  0.00    +0.001 C 
ATOM     27  C   UNL     1      -3.658   2.596  -1.918  0.00  0.00    +0.031 C 
ENDBRANCH  19  21
ENDBRANCH   3  19
TORSDOF 5
