REMARK  Name = 5625
REMARK  5 active torsions:
REMARK  status: ('A' for Active; 'I' for Inactive)
REMARK    1  A    between atoms: C_8  and  C_10
REMARK    2  A    between atoms: C_16  and  N_19
REMARK    3  A    between atoms: N_19  and  S_21
REMARK    4  A    between atoms: C_27  and  N_31
REMARK    5  A    between atoms: N_31  and  C_33
REMARK                            x       y       z     vdW  Elec       q    Type
REMARK                         _______ _______ _______ _____ _____    ______ ____
ROOT
ATOM      1  O   UNL     1       0.283  -3.914   1.346  0.00  0.00    -0.269 OA
ATOM      2  N   UNL     1      -3.272  -0.768  -0.175  0.00  0.00    -0.289 N 
ATOM      3  N   UNL     1      -1.042  -2.053   0.980  0.00  0.00    -0.272 N 
ATOM      4  C   UNL     1      -3.132  -2.229  -0.298  0.00  0.00    +0.114 C 
ATOM      5  C   UNL     1      -2.027  -0.013   0.021  0.00  0.00    +0.114 C 
ATOM      6  C   UNL     1      -2.299  -2.787   0.855  0.00  0.00    +0.115 C 
ATOM      7  C   UNL     1      -1.220  -0.611   1.172  0.00  0.00    +0.115 C 
ATOM      8  C   UNL     1       0.183  -2.742   0.979  0.00  0.00    +0.263 C 
ATOM      9  N   UNL     1      -4.837  -0.720  -1.988  0.00  0.00    -0.228 NA
ATOM     10  C   UNL     1      -4.351  -0.162  -0.830  0.00  0.00    +0.145 C 
ATOM     11  C   UNL     1      -4.927   1.009  -0.300  0.00  0.00    +0.077 C 
ATOM     12  C   UNL     1      -5.997   1.605  -0.958  0.00  0.00    +0.019 C 
ATOM     13  C   UNL     1      -5.879  -0.113  -2.598  0.00  0.00    +0.100 C 
ATOM     14  C   UNL     1      -6.489   1.039  -2.129  0.00  0.00    +0.022 C 
ENDROOT
BRANCH   8  16
ATOM     15  N   UNL     1       1.311  -1.016  -0.414  0.00  0.00    -0.309 N 
ATOM     16  C   UNL     1       1.359  -2.013   0.518  0.00  0.00    +0.103 C 
ATOM     17  C   UNL     1       2.665  -2.179   0.906  0.00  0.00    +0.020 C 
ATOM     18  C   UNL     1       3.450  -1.241   0.178  0.00  0.00    +0.016 C 
ATOM     19  C   UNL     1       2.576  -0.524  -0.642  0.00  0.00    +0.049 C 
ATOM     20  C   UNL     1       4.824  -0.932   0.139  0.00  0.00    +0.017 C 
ATOM     21  C   UNL     1       3.010   0.490  -1.503  0.00  0.00    +0.016 C 
ATOM     22  C   UNL     1       5.272   0.080  -0.718  0.00  0.00    +0.065 C 
ATOM     23  C   UNL     1       4.377   0.779  -1.525  0.00  0.00    +0.017 C 
ATOM     24  H   UNL     1       0.492  -0.696  -0.857  0.00  0.00    +0.152 HD
BRANCH  22  25
ATOM     25  N   UNL     1       6.664   0.400  -0.762  0.00  0.00    -0.219 N 
ATOM     26  H   UNL     1       7.313  -0.220  -1.167  0.00  0.00    +0.173 HD
BRANCH  25  27
ATOM     27  S   UNL     1       7.175   1.901  -0.090  0.00  0.00    +0.056 S 
ATOM     28  O   UNL     1       8.556   2.128  -0.474  0.00  0.00    -0.154 OA
ATOM     29  O   UNL     1       6.174   2.929  -0.296  0.00  0.00    -0.154 OA
ATOM     30  C   UNL     1       7.182   1.484   1.639  0.00  0.00    +0.200 C 
ENDBRANCH  25  27
ENDBRANCH  22  25
ENDBRANCH   8  16
BRANCH  11  31
ATOM     31  N   UNL     1      -4.428   1.580   0.885  0.00  0.00    -0.332 N 
ATOM     32  H   UNL     1      -3.669   1.142   1.335  0.00  0.00    +0.147 HD
BRANCH  31  33
ATOM     33  C   UNL     1      -4.974   2.768   1.468  0.00  0.00    +0.069 C 
ATOM     34  C   UNL     1      -6.251   2.424   2.224  0.00  0.00    +0.021 C 
ATOM     35  C   UNL     1      -3.937   3.398   2.389  0.00  0.00    +0.021 C 
ENDBRANCH  31  33
ENDBRANCH  11  31
TORSDOF 5
