REMARK  Name = 3440
REMARK  7 active torsions:
REMARK  status: ('A' for Active; 'I' for Inactive)
REMARK    1  A    between atoms: C_2  and  N_18
REMARK    2  A    between atoms: C_3  and  S_8
REMARK    3  A    between atoms: C_4  and  C_15
REMARK    4  A    between atoms: S_8  and  N_11
REMARK    5  A    between atoms: C_15  and  O_16
REMARK    6  A    between atoms: N_18  and  C_20
REMARK    7  A    between atoms: C_20  and  C_22
REMARK                            x       y       z     vdW  Elec       q    Type
REMARK                         _______ _______ _______ _____ _____    ______ ____
ROOT
ATOM      1 CL   UNL     1      -2.598   2.955   0.028  0.00  0.00    -0.081 Cl
ATOM      2  C   UNL     1       0.149   0.062   0.071  0.00  0.00    +0.052 C 
ATOM      3  C   UNL     1      -2.636   0.222   0.032  0.00  0.00    +0.132 C 
ATOM      4  C   UNL     1      -0.617  -1.104   0.063  0.00  0.00    +0.090 C 
ATOM      5  C   UNL     1      -2.009  -1.024   0.043  0.00  0.00    +0.028 C 
ATOM      6  C   UNL     1      -0.478   1.308   0.060  0.00  0.00    +0.027 C 
ATOM      7  C   UNL     1      -1.870   1.388   0.041  0.00  0.00    +0.077 C 
ENDROOT
BRANCH   3   8
ATOM      8  S   UNL     1      -4.388   0.261   0.007  0.00  0.00    +0.058 S 
ATOM      9  O   UNL     1      -4.876  -0.988   0.570  0.00  0.00    -0.153 OA
ATOM     10  O   UNL     1      -4.824   1.531   0.564  0.00  0.00    -0.153 OA
BRANCH   8  11
ATOM     11  N   UNL     1      -4.683   0.265  -1.675  0.00  0.00    -0.203 NA
ATOM     12  H   UNL     1      -5.689   0.287  -1.843  0.00  0.00    +0.144 HD
ATOM     13  H   UNL     1      -4.287  -0.578  -2.092  0.00  0.00    +0.144 HD
ENDBRANCH   8  11
ENDBRANCH   3   8
BRANCH   4  15
ATOM     14  O   UNL     1       1.108  -2.692  -0.414  0.00  0.00    -0.245 OA
ATOM     15  C   UNL     1       0.008  -2.421   0.074  0.00  0.00    +0.339 C 
BRANCH  15  16
ATOM     16  O   UNL     1      -0.762  -3.353   0.695  0.00  0.00    -0.477 OA
ATOM     17  H   UNL     1      -1.593  -3.111   1.053  0.00  0.00    +0.295 HD
ENDBRANCH  15  16
ENDBRANCH   4  15
BRANCH   2  18
ATOM     18  N   UNL     1       1.560   0.003   0.091  0.00  0.00    -0.326 N 
ATOM     19  H   UNL     1       1.994  -0.881   0.099  0.00  0.00    +0.147 HD
BRANCH  18  20
ATOM     20  C   UNL     1       2.385   1.170   0.100  0.00  0.00    +0.153 C 
BRANCH  20  22
ATOM     21  O   UNL     1       4.246   0.089  -0.967  0.00  0.00    -0.453 OA
ATOM     22  C   UNL     1       3.849   0.823   0.086  0.00  0.00    +0.143 C 
ATOM     23  C   UNL     1       4.856   1.111   0.940  0.00  0.00    +0.038 C 
ATOM     24  C   UNL     1       6.001   0.501   0.375  0.00  0.00    +0.043 C 
ATOM     25  C   UNL     1       5.578  -0.108  -0.783  0.00  0.00    +0.179 C 
ENDBRANCH  20  22
ENDBRANCH  18  20
ENDBRANCH   2  18
TORSDOF 7
