REMARK  Name = 6234
REMARK  1 active torsions:
REMARK  status: ('A' for Active; 'I' for Inactive)
REMARK    1  A    between atoms: C_4  and  N_8
REMARK                            x       y       z     vdW  Elec       q    Type
REMARK                         _______ _______ _______ _____ _____    ______ ____
ROOT
ATOM      1  O   UNL     1      -1.792   0.002   0.037  0.00  0.00    -0.268 OA
ATOM      2  O   UNL     1       1.381   1.451  -0.025  0.00  0.00    -0.275 OA
ATOM      3  N   UNL     1      -0.917   1.095  -0.140  0.00  0.00    -0.195 N 
ATOM      4  C   UNL     1       0.391  -0.723   0.420  0.00  0.00    +0.047 C 
ATOM      5  C   UNL     1      -0.958  -1.148  -0.124  0.00  0.00    +0.158 C 
ATOM      6  C   UNL     1       0.399   0.729   0.054  0.00  0.00    +0.226 C 
ATOM      7  H   UNL     1      -1.209   2.006  -0.374  0.00  0.00    +0.182 HD
ENDROOT
BRANCH   4   8
ATOM      8  N   UNL     1       1.496  -1.406  -0.222  0.00  0.00    +0.389 N 
ATOM      9  H   UNL     1       1.481  -2.393   0.035  0.00  0.00    -0.088 HD
ATOM     10  H   UNL     1       2.376  -0.990   0.082  0.00  0.00    -0.088 HD
ATOM     11  H   UNL     1       1.409  -1.317  -1.234  0.00  0.00    -0.088 HD
ENDBRANCH   4   8
TORSDOF 1
