REMARK  Name = 2165
REMARK  7 active torsions:
REMARK  status: ('A' for Active; 'I' for Inactive)
REMARK    1  A    between atoms: C_1  and  C_22
REMARK    2  A    between atoms: C_3  and  N_9
REMARK    3  A    between atoms: C_4  and  O_7
REMARK    4  A    between atoms: N_9  and  C_13
REMARK    5  A    between atoms: C_22  and  N_23
REMARK    6  A    between atoms: N_23  and  C_25
REMARK    7  A    between atoms: N_23  and  C_27
REMARK                            x       y       z     vdW  Elec       q    Type
REMARK                         _______ _______ _______ _____ _____    ______ ____
ROOT
ATOM      1  C   UNL     1       2.872  -0.869   0.417  0.00  0.00    -0.008 C 
ATOM      2  C   UNL     1       1.498  -0.677   0.274  0.00  0.00    +0.011 C 
ATOM      3  C   UNL     1       0.699  -1.689  -0.266  0.00  0.00    +0.048 C 
ATOM      4  C   UNL     1       3.453  -2.074   0.021  0.00  0.00    +0.128 C 
ATOM      5  C   UNL     1       1.285  -2.894  -0.661  0.00  0.00    +0.018 C 
ATOM      6  C   UNL     1       2.659  -3.087  -0.518  0.00  0.00    +0.037 C 
ENDROOT
BRANCH   4   7
ATOM      7  O   UNL     1       4.794  -2.277   0.151  0.00  0.00    -0.506 OA
ATOM      8  H   UNL     1       5.337  -1.605   0.512  0.00  0.00    +0.292 HD
ENDBRANCH   4   7
BRANCH   3   9
ATOM      9  N   UNL     1      -0.686  -1.497  -0.406  0.00  0.00    -0.313 N 
ATOM     10  H   UNL     1      -1.210  -2.327  -0.334  0.00  0.00    +0.152 HD
BRANCH   9  13
ATOM     11 CL   UNL     1      -7.014   0.187   1.356  0.00  0.00    -0.087 Cl
ATOM     12  N   UNL     1      -2.956   1.961  -1.119  0.00  0.00    -0.248 NA
ATOM     13  C   UNL     1      -1.473  -0.343  -0.632  0.00  0.00    +0.047 C 
ATOM     14  C   UNL     1      -2.785  -0.239  -0.150  0.00  0.00    +0.010 C 
ATOM     15  C   UNL     1      -3.500   0.946  -0.421  0.00  0.00    +0.062 C 
ATOM     16  C   UNL     1      -0.909   0.701  -1.351  0.00  0.00    +0.035 C 
ATOM     17  C   UNL     1      -3.384  -1.278   0.582  0.00  0.00    +0.055 C 
ATOM     18  C   UNL     1      -4.803   1.048   0.057  0.00  0.00    +0.083 C 
ATOM     19  C   UNL     1      -1.687   1.821  -1.566  0.00  0.00    +0.100 C 
ATOM     20  C   UNL     1      -4.689  -1.149   1.048  0.00  0.00    -0.014 C 
ATOM     21  C   UNL     1      -5.400   0.015   0.785  0.00  0.00    +0.037 C 
ENDBRANCH   9  13
ENDBRANCH   3   9
BRANCH   1  22
ATOM     22  C   UNL     1       3.706   0.226   0.995  0.00  0.00    -0.047 C 
BRANCH  22  23
ATOM     23  N   UNL     1       3.377   1.534   0.427  0.00  0.00    +0.390 N 
ATOM     24  H   UNL     1       2.392   1.726   0.606  0.00  0.00    -0.079 HD
BRANCH  23  25
ATOM     25  C   UNL     1       3.594   1.532  -1.018  0.00  0.00    -0.077 C 
ATOM     26  C   UNL     1       3.257   2.884  -1.626  0.00  0.00    -0.025 C 
ENDBRANCH  23  25
BRANCH  23  27
ATOM     27  C   UNL     1       4.175   2.581   1.063  0.00  0.00    -0.077 C 
ATOM     28  C   UNL     1       3.917   2.637   2.559  0.00  0.00    -0.025 C 
ENDBRANCH  23  27
ENDBRANCH  22  23
ENDBRANCH   1  22
TORSDOF 7
