REMARK  Name = 54670067
REMARK  6 active torsions:
REMARK  status: ('A' for Active; 'I' for Inactive)
REMARK    1  A    between atoms: C_3  and  C_11
REMARK    2  A    between atoms: C_4  and  O_7
REMARK    3  A    between atoms: C_5  and  O_9
REMARK    4  A    between atoms: C_11  and  O_12
REMARK    5  A    between atoms: C_11  and  C_14
REMARK    6  A    between atoms: C_14  and  O_15
REMARK                            x       y       z     vdW  Elec       q    Type
REMARK                         _______ _______ _______ _____ _____    ______ ____
ROOT
ATOM      1  O   UNL     1       0.093  -1.107   0.644  0.00  0.00    -0.436 OA
ATOM      2  O   UNL     1       1.992  -2.156  -0.138  0.00  0.00    -0.241 OA
ATOM      3  C   UNL     1      -0.340   0.262   0.785  0.00  0.00    +0.257 C 
ATOM      4  C   UNL     1       0.821   1.026   0.289  0.00  0.00    +0.195 C 
ATOM      5  C   UNL     1       1.808   0.227  -0.105  0.00  0.00    +0.244 C 
ATOM      6  C   UNL     1       1.354  -1.148   0.111  0.00  0.00    +0.379 C 
ENDROOT
BRANCH   4   7
ATOM      7  O   UNL     1       0.839   2.390   0.284  0.00  0.00    -0.504 OA
ATOM      8  H   UNL     1       0.091   2.869   0.583  0.00  0.00    +0.292 HD
ENDBRANCH   4   7
BRANCH   5   9
ATOM      9  O   UNL     1       3.022   0.570  -0.606  0.00  0.00    -0.499 OA
ATOM     10  H   UNL     1       3.245   1.473  -0.717  0.00  0.00    +0.293 HD
ENDBRANCH   5   9
BRANCH   3  11
ATOM     11  C   UNL     1      -1.606   0.459  -0.033  0.00  0.00    +0.187 C 
BRANCH  11  12
ATOM     12  O   UNL     1      -1.344   0.089  -1.386  0.00  0.00    -0.378 OA
ATOM     13  H   UNL     1      -0.619   0.632  -1.735  0.00  0.00    +0.211 HD
ENDBRANCH  11  12
BRANCH  11  14
ATOM     14  C   UNL     1      -2.746  -0.408   0.486  0.00  0.00    +0.171 C 
BRANCH  14  15
ATOM     15  O   UNL     1      -3.893  -0.204  -0.333  0.00  0.00    -0.379 OA
ATOM     16  H   UNL     1      -4.624  -0.753  -0.008  0.00  0.00    +0.211 HD
ENDBRANCH  14  15
ENDBRANCH  11  14
ENDBRANCH   3  11
TORSDOF 6
