REMARK  Name = 6419722
REMARK  4 active torsions:
REMARK  status: ('A' for Active; 'I' for Inactive)
REMARK    1  A    between atoms: CA_1  and  N_2
REMARK    2  A    between atoms: CA_1  and  C_8
REMARK    3  A    between atoms: CA_1  and  CB_9
REMARK    4  A    between atoms: CB_9  and  SG_10
REMARK                            x       y       z     vdW  Elec       q    Type
REMARK                         _______ _______ _______ _____ _____    ______ ____
ROOT
ATOM      1  CA  CYS A   1      -0.106  -0.546  -0.597  0.00  0.00    +0.051 C 
ENDROOT
BRANCH   1   2
ATOM      2  N   CYS A   1      -0.348  -1.835   0.129  0.00  0.00    +0.389 N 
ATOM      3  H1  CYS A   1      -1.136  -2.323  -0.297  0.00  0.00    -0.088 HD
ATOM      4  H2  CYS A   1      -0.559  -1.639   1.108  0.00  0.00    -0.088 HD
ATOM      5  H3  CYS A   1       0.486  -2.419   0.072  0.00  0.00    -0.088 HD
ENDBRANCH   1   2
BRANCH   1   8
ATOM      6  O   CYS A   1       1.934  -0.365   0.598  0.00  0.00    -0.248 OA
ATOM      7  OXT CYS A   1       1.009   1.529  -0.275  0.00  0.00    -0.248 OA
ATOM      8  C   CYS A   1       1.064   0.288  -0.045  0.00  0.00    +0.346 C 
ENDBRANCH   1   8
BRANCH   1   9
ATOM      9  CB  CYS A   1      -1.456   0.168  -0.705  0.00  0.00    +0.043 C 
BRANCH   9  10
ATOM     10  SG  CYS A   1      -2.097   0.761   0.895  0.00  0.00    -0.170 S 
ATOM     11  HG  CYS A   1      -3.293   1.379   0.703  0.00  0.00    +0.102 HD
ENDBRANCH   9  10
ENDBRANCH   1   9
TORSDOF 4
