REMARK  Name = 175805
REMARK  4 active torsions:
REMARK  status: ('A' for Active; 'I' for Inactive)
REMARK    1  A    between atoms: N_2  and  C_5
REMARK    2  A    between atoms: C_3  and  C_14
REMARK    3  A    between atoms: N_13  and  C_20
REMARK    4  A    between atoms: C_20  and  C_21
REMARK                            x       y       z     vdW  Elec       q    Type
REMARK                         _______ _______ _______ _____ _____    ______ ____
ROOT
ATOM      1  O   UNL     1      -0.219   0.135  -1.444  0.00  0.00    -0.277 OA
ATOM      2  N   UNL     1       0.884  -0.406   0.563  0.00  0.00    -0.286 N 
ATOM      3  C   UNL     1      -0.206  -0.275  -0.288  0.00  0.00    +0.207 C 
ATOM      4  H   UNL     1       0.695  -0.759   1.462  0.00  0.00    +0.155 HD
ENDROOT
BRANCH   2   5
ATOM      5  C   UNL     1       2.235  -0.090   0.286  0.00  0.00    +0.042 C 
ATOM      6  C   UNL     1       3.066  -1.062  -0.253  0.00  0.00    -0.009 C 
ATOM      7  C   UNL     1       2.707   1.186   0.558  0.00  0.00    -0.009 C 
ATOM      8  C   UNL     1       4.398  -0.750  -0.525  0.00  0.00    -0.003 C 
ATOM      9  C   UNL     1       4.039   1.497   0.286  0.00  0.00    -0.003 C 
ATOM     10  C   UNL     1       2.575  -2.441  -0.551  0.00  0.00    +0.032 C 
ATOM     11  C   UNL     1       1.825   2.244   1.138  0.00  0.00    +0.032 C 
ATOM     12  C   UNL     1       4.885   0.529  -0.256  0.00  0.00    -0.001 C 
ENDBRANCH   2   5
BRANCH   3  14
ATOM     13  N   UNL     1      -2.597   0.044  -0.188  0.00  0.00    +0.394 N 
ATOM     14  C   UNL     1      -1.471  -0.719   0.383  0.00  0.00    +0.021 C 
ATOM     15  C   UNL     1      -1.613  -2.227   0.133  0.00  0.00    -0.012 C 
ATOM     16  C   UNL     1      -3.886  -0.445   0.334  0.00  0.00    -0.077 C 
ATOM     17  C   UNL     1      -2.948  -2.757   0.637  0.00  0.00    -0.004 C 
ATOM     18  C   UNL     1      -4.088  -1.934   0.056  0.00  0.00    -0.023 C 
ATOM     19  H   UNL     1      -2.559  -0.096  -1.197  0.00  0.00    -0.079 HD
BRANCH  13  20
ATOM     20  C   UNL     1      -2.485   1.481   0.092  0.00  0.00    -0.077 C 
BRANCH  20  21
ATOM     21  C   UNL     1      -3.604   2.247  -0.609  0.00  0.00    -0.023 C 
ATOM     22  C   UNL     1      -3.497   3.742  -0.352  0.00  0.00    -0.002 C 
ENDBRANCH  20  21
ENDBRANCH  13  20
ENDBRANCH   3  14
TORSDOF 4
