REMARK  Name = 4099
REMARK  2 active torsions:
REMARK  status: ('A' for Active; 'I' for Inactive)
REMARK    1  A    between atoms: C_6  and  C_12
REMARK    2  A    between atoms: C_6  and  C_14
REMARK                            x       y       z     vdW  Elec       q    Type
REMARK                         _______ _______ _______ _____ _____    ______ ____
ROOT
ATOM      1  O   UNL     1      -0.326   1.978  -0.994  0.00  0.00    -0.274 OA
ATOM      2  O   UNL     1      -1.188  -2.436   0.107  0.00  0.00    -0.274 OA
ATOM      3  O   UNL     1       3.120  -0.895   0.215  0.00  0.00    -0.252 OA
ATOM      4  N   UNL     1       1.428   0.652  -0.228  0.00  0.00    -0.212 N 
ATOM      5  N   UNL     1       0.953  -1.621   0.218  0.00  0.00    -0.239 N 
ATOM      6  C   UNL     1      -0.899  -0.033   0.212  0.00  0.00    +0.138 C 
ATOM      7  C   UNL     1       0.072   0.963  -0.420  0.00  0.00    +0.240 C 
ATOM      8  C   UNL     1      -0.422  -1.474   0.147  0.00  0.00    +0.237 C 
ATOM      9  C   UNL     1       1.921  -0.627   0.094  0.00  0.00    +0.316 C 
ATOM     10  C   UNL     1       2.409   1.686  -0.536  0.00  0.00    +0.124 C 
ATOM     11  H   UNL     1       1.285  -2.534   0.375  0.00  0.00    +0.159 HD
ENDROOT
BRANCH   6  12
ATOM     12  C   UNL     1      -1.038   0.341   1.699  0.00  0.00    +0.017 C 
ATOM     13  C   UNL     1      -1.542   1.758   1.855  0.00  0.00    +0.001 C 
ENDBRANCH   6  12
BRANCH   6  14
ATOM     14  C   UNL     1      -2.275   0.081  -0.464  0.00  0.00    +0.017 C 
ATOM     15  C   UNL     1      -2.212  -0.374  -1.905  0.00  0.00    +0.001 C 
ENDBRANCH   6  14
TORSDOF 2
