REMARK  Name = 6041
REMARK  5 active torsions:
REMARK  status: ('A' for Active; 'I' for Inactive)
REMARK    1  A    between atoms: C_1  and  C_2
REMARK    2  A    between atoms: C_1  and  O_10
REMARK    3  A    between atoms: C_1  and  C_12
REMARK    4  A    between atoms: C_5  and  O_8
REMARK    5  A    between atoms: C_12  and  N_13
REMARK                            x       y       z     vdW  Elec       q    Type
REMARK                         _______ _______ _______ _____ _____    ______ ____
ROOT
ATOM      1  C   UNL     1       1.298  -1.163  -0.229  0.00  0.00    +0.112 C 
ENDROOT
BRANCH   1   2
ATOM      2  C   UNL     1      -0.068  -0.651   0.083  0.00  0.00    +0.005 C 
ATOM      3  C   UNL     1      -0.716   0.197  -0.814  0.00  0.00    +0.035 C 
ATOM      4  C   UNL     1      -0.696  -1.020   1.273  0.00  0.00    -0.002 C 
ATOM      5  C   UNL     1      -1.994   0.676  -0.523  0.00  0.00    +0.133 C 
ATOM      6  C   UNL     1      -1.973  -0.541   1.564  0.00  0.00    +0.003 C 
ATOM      7  C   UNL     1      -2.622   0.306   0.667  0.00  0.00    +0.037 C 
BRANCH   5   8
ATOM      8  O   UNL     1      -2.627   1.502  -1.399  0.00  0.00    -0.506 OA
ATOM      9  H   UNL     1      -2.205   1.751  -2.197  0.00  0.00    +0.292 HD
ENDBRANCH   5   8
ENDBRANCH   1   2
BRANCH   1  10
ATOM     10  O   UNL     1       1.232  -1.984  -1.403  0.00  0.00    -0.382 OA
ATOM     11  H   UNL     1       2.117  -2.321  -1.612  0.00  0.00    +0.211 HD
ENDBRANCH   1  10
BRANCH   1  12
ATOM     12  C   UNL     1       2.311  -0.024  -0.454  0.00  0.00    -0.047 C 
BRANCH  12  13
ATOM     13  N   UNL     1       2.438   0.824   0.729  0.00  0.00    +0.384 N 
ATOM     14  C   UNL     1       3.416   1.878   0.505  0.00  0.00    -0.106 C 
ATOM     15  H   UNL     1       2.736   0.253   1.519  0.00  0.00    -0.085 HD
ATOM     16  H   UNL     1       1.533   1.253   0.922  0.00  0.00    -0.085 HD
ENDBRANCH  12  13
ENDBRANCH   1  12
TORSDOF 5
