REMARK  Name = 25137844
REMARK  0 active torsions:
REMARK  status: ('A' for Active; 'I' for Inactive)
REMARK                            x       y       z     vdW  Elec       q    Type
REMARK                         _______ _______ _______ _____ _____    ______ ____
ROOT
ATOM      1  S   UNL     1       2.539   1.373   0.353  0.00  0.00    -0.110 S 
ATOM      2  O   UNL     1       1.212  -0.812  -0.341  0.00  0.00    -0.351 OA
ATOM      3  N   UNL     1      -2.126  -0.379  -0.918  0.00  0.00    +0.389 N 
ATOM      4  C   UNL     1       0.236   0.258  -0.318  0.00  0.00    +0.085 C 
ATOM      5  C   UNL     1      -0.536   0.247   1.037  0.00  0.00    +0.020 C 
ATOM      6  C   UNL     1      -0.789  -0.023  -1.450  0.00  0.00    -0.049 C 
ATOM      7  C   UNL     1      -1.725   1.221   0.957  0.00  0.00    -0.021 C 
ATOM      8  C   UNL     1      -1.138  -1.159   1.237  0.00  0.00    -0.021 C 
ATOM      9  C   UNL     1      -2.663   0.784  -0.178  0.00  0.00    -0.077 C 
ATOM     10  C   UNL     1      -1.989  -1.521   0.011  0.00  0.00    -0.077 C 
ATOM     11  C   UNL     1       1.024   1.546  -0.606  0.00  0.00    +0.085 C 
ATOM     12  C   UNL     1       2.371  -0.426   0.409  0.00  0.00    +0.162 C 
ATOM     13  C   UNL     1       3.585  -1.110  -0.193  0.00  0.00    +0.044 C 
ATOM     14  H   UNL     1      -2.753  -0.631  -1.682  0.00  0.00    -0.080 HD
ENDROOT
TORSDOF 0
