REMARK  Name = 3494
REMARK  6 active torsions:
REMARK  status: ('A' for Active; 'I' for Inactive)
REMARK    1  A    between atoms: C_1  and  C_2
REMARK    2  A    between atoms: C_1  and  C_8
REMARK    3  A    between atoms: C_1  and  O_13
REMARK    4  A    between atoms: C_1  and  C_16
REMARK    5  A    between atoms: C_16  and  O_17
REMARK    6  A    between atoms: O_17  and  C_20
REMARK                            x       y       z     vdW  Elec       q    Type
REMARK                         _______ _______ _______ _____ _____    ______ ____
ROOT
ATOM      1  C   UNL     1       1.409  -0.190   0.623  0.00  0.00    +0.196 C 
ENDROOT
BRANCH   1   2
ATOM      2  C   UNL     1       1.435   1.275   0.209  0.00  0.00    +0.012 C 
ATOM      3  C   UNL     1       1.473   2.244   1.190  0.00  0.00    -0.002 C 
ATOM      4  C   UNL     1       1.418   1.589  -1.134  0.00  0.00    -0.002 C 
ATOM      5  C   UNL     1       1.496   3.586   0.812  0.00  0.00    -0.000 C 
ATOM      6  C   UNL     1       1.441   2.931  -1.513  0.00  0.00    -0.000 C 
ATOM      7  C   UNL     1       1.480   3.930  -0.540  0.00  0.00    -0.000 C 
ENDBRANCH   1   2
BRANCH   1   8
ATOM      8  C   UNL     1       2.147  -1.155  -0.289  0.00  0.00    +0.039 C 
ATOM      9  C   UNL     1       3.643  -0.869  -0.383  0.00  0.00    +0.003 C 
ATOM     10  C   UNL     1       2.122  -2.595   0.212  0.00  0.00    +0.003 C 
ATOM     11  C   UNL     1       4.234  -2.163  -0.932  0.00  0.00    +0.000 C 
ATOM     12  C   UNL     1       3.249  -3.273  -0.560  0.00  0.00    +0.000 C 
ENDBRANCH   1   8
BRANCH   1  13
ATOM     13  O   UNL     1       2.039  -0.270   1.905  0.00  0.00    -0.373 OA
ATOM     14  H   UNL     1       2.043  -1.192   2.206  0.00  0.00    +0.211 HD
ENDBRANCH   1  13
BRANCH   1  16
ATOM     15  O   UNL     1      -0.481  -1.130   1.844  0.00  0.00    -0.247 OA
ATOM     16  C   UNL     1      -0.026  -0.685   0.796  0.00  0.00    +0.345 C 
BRANCH  16  17
ATOM     17  O   UNL     1      -0.724  -0.565  -0.377  0.00  0.00    -0.453 OA
BRANCH  17  20
ATOM     18  N   UNL     1      -4.325  -0.177   0.042  0.00  0.00    +0.390 N 
ATOM     19  C   UNL     1      -2.897  -0.164   0.623  0.00  0.00    -0.029 C 
ATOM     20  C   UNL     1      -2.071  -0.996  -0.343  0.00  0.00    +0.147 C 
ATOM     21  C   UNL     1      -4.209  -0.841  -1.344  0.00  0.00    -0.069 C 
ATOM     22  C   UNL     1      -2.737  -0.750  -1.680  0.00  0.00    +0.019 C 
ATOM     23  C   UNL     1      -5.263  -0.975   0.933  0.00  0.00    -0.096 C 
ATOM     24  C   UNL     1      -4.852   1.244  -0.093  0.00  0.00    -0.096 C 
ENDBRANCH  17  20
ENDBRANCH  16  17
ENDBRANCH   1  16
TORSDOF 6
