REMARK  Name = 2789
REMARK  1 active torsions:
REMARK  status: ('A' for Active; 'I' for Inactive)
REMARK    1  A    between atoms: N_4  and  C_16
REMARK                            x       y       z     vdW  Elec       q    Type
REMARK                         _______ _______ _______ _____ _____    ______ ____
ROOT
ATOM      1 CL   UNL     1      -0.075  -4.484   0.976  0.00  0.00    -0.082 Cl
ATOM      2  O   UNL     1      -0.643   2.907   0.747  0.00  0.00    -0.274 OA
ATOM      3  O   UNL     1       2.958   2.947  -0.259  0.00  0.00    -0.274 OA
ATOM      4  N   UNL     1      -0.418   0.608   0.348  0.00  0.00    -0.236 N 
ATOM      5  N   UNL     1       2.484   0.694  -0.607  0.00  0.00    -0.255 N 
ATOM      6  C   UNL     1       0.450  -0.546   0.249  0.00  0.00    +0.073 C 
ATOM      7  C   UNL     1       1.787  -0.507  -0.225  0.00  0.00    +0.068 C 
ATOM      8  C   UNL     1       1.441   1.921   1.240  0.00  0.00    +0.171 C 
ATOM      9  C   UNL     1       0.019   1.867   0.770  0.00  0.00    +0.242 C 
ATOM     10  C   UNL     1       2.360   1.916   0.054  0.00  0.00    +0.239 C 
ATOM     11  C   UNL     1      -0.088  -1.802   0.631  0.00  0.00    +0.028 C 
ATOM     12  C   UNL     1       2.481  -1.733  -0.367  0.00  0.00    +0.017 C 
ATOM     13  C   UNL     1       3.474   0.607  -1.681  0.00  0.00    +0.120 C 
ATOM     14  C   UNL     1       0.630  -2.988   0.504  0.00  0.00    +0.059 C 
ATOM     15  C   UNL     1       1.913  -2.955  -0.008  0.00  0.00    +0.013 C 
ENDROOT
BRANCH   4  16
ATOM     16  C   UNL     1      -1.802   0.429  -0.032  0.00  0.00    +0.058 C 
ATOM     17  C   UNL     1      -2.133  -0.508  -1.003  0.00  0.00    +0.015 C 
ATOM     18  C   UNL     1      -2.786   1.196   0.579  0.00  0.00    +0.015 C 
ATOM     19  C   UNL     1      -3.468  -0.680  -1.369  0.00  0.00    +0.001 C 
ATOM     20  C   UNL     1      -4.121   1.024   0.214  0.00  0.00    +0.001 C 
ATOM     21  C   UNL     1      -4.462   0.086  -0.760  0.00  0.00    +0.000 C 
ENDBRANCH   4  16
TORSDOF 1
