REMARK  Name = 2094
REMARK  0 active torsions:
REMARK  status: ('A' for Active; 'I' for Inactive)
REMARK                            x       y       z     vdW  Elec       q    Type
REMARK                         _______ _______ _______ _____ _____    ______ ____
ROOT
ATOM      1  O   UNL     1       1.818   1.884  -0.013  0.00  0.00    -0.222 OA
ATOM      2  N   UNL     1      -2.103  -0.666  -0.023  0.00  0.00    -0.250 N 
ATOM      3  N   UNL     1      -2.380   0.647   0.018  0.00  0.00    -0.262 N 
ATOM      4  N   UNL     1       0.035  -1.820   0.000  0.00  0.00    -0.227 NA
ATOM      5  N   UNL     1       2.006  -0.422   0.007  0.00  0.00    -0.175 NA
ATOM      6  C   UNL     1      -0.135   0.585   0.005  0.00  0.00    +0.131 C 
ATOM      7  C   UNL     1      -0.730  -0.781  -0.007  0.00  0.00    +0.154 C 
ATOM      8  C   UNL     1      -1.216   1.379   0.007  0.00  0.00    +0.090 C 
ATOM      9  C   UNL     1       1.310   0.770  -0.003  0.00  0.00    +0.156 C 
ATOM     10  C   UNL     1       1.395  -1.575   0.009  0.00  0.00    +0.264 C 
ATOM     11  H   UNL     1      -2.755  -1.404  -0.057  0.00  0.00    +0.171 HD
ATOM     12  H   UNL     1      -3.286   1.031   0.051  0.00  0.00    +0.170 HD
ENDROOT
TORSDOF 0
