REMARK  Name = 3561
REMARK  3 active torsions:
REMARK  status: ('A' for Active; 'I' for Inactive)
REMARK    1  A    between atoms: C_4  and  O_10
REMARK    2  A    between atoms: O_10  and  C_11
REMARK    3  A    between atoms: C_11  and  C_13
REMARK                            x       y       z     vdW  Elec       q    Type
REMARK                         _______ _______ _______ _____ _____    ______ ____
ROOT
ATOM      1 CL   UNL     1      -0.337  -2.652  -0.215  0.00  0.00    -0.079 Cl
ATOM      2 CL   UNL     1       3.426   2.324   0.013  0.00  0.00    -0.081 Cl
ATOM      3 CL   UNL     1       4.574  -0.652   0.558  0.00  0.00    -0.081 Cl
ATOM      4  C   UNL     1       0.206   0.008  -0.388  0.00  0.00    +0.151 C 
ATOM      5  C   UNL     1       0.701  -1.275  -0.153  0.00  0.00    +0.092 C 
ATOM      6  C   UNL     1       1.063   1.107  -0.332  0.00  0.00    +0.050 C 
ATOM      7  C   UNL     1       2.415   0.923  -0.042  0.00  0.00    +0.071 C 
ATOM      8  C   UNL     1       2.053  -1.459   0.138  0.00  0.00    +0.027 C 
ATOM      9  C   UNL     1       2.910  -0.360   0.194  0.00  0.00    +0.069 C 
ENDROOT
BRANCH   4  10
ATOM     10  O   UNL     1      -1.110   0.217  -0.675  0.00  0.00    -0.460 OA
BRANCH  10  11
ATOM     11  C   UNL     1      -1.842   1.054   0.217  0.00  0.00    +0.282 C 
BRANCH  11  13
ATOM     12  I   UNL     1      -6.405  -0.226   0.235  0.00  0.00    +0.018 I 
ATOM     13  C   UNL     1      -3.249   0.658   0.222  0.00  0.00    -0.033 C 
ATOM     14  C   UNL     1      -4.405   0.334   0.227  0.00  0.00    -0.026 C 
ENDBRANCH  11  13
ENDBRANCH  10  11
ENDBRANCH   4  10
TORSDOF 3
