REMARK  Name = 5742673
REMARK  9 active torsions:
REMARK  status: ('A' for Active; 'I' for Inactive)
REMARK    1  A    between atoms: CA_5  and  N_11
REMARK    2  A    between atoms: CA_7  and  C_27
REMARK    3  A    between atoms: C_8  and  C_30
REMARK    4  A    between atoms: C_12  and  C_15
REMARK    5  A    between atoms: N_14  and  O_24
REMARK    6  A    between atoms: C_15  and  C_19
REMARK    7  A    between atoms: C_27  and  O_28
REMARK    8  A    between atoms: C_30  and  O_31
REMARK    9  A    between atoms: O_31  and  C_33
REMARK                            x       y       z     vdW  Elec       q    Type
REMARK                         _______ _______ _______ _____ _____    ______ ____
ROOT
ATOM      1  S   UNL     1      -0.919   0.759  -1.926  0.00  0.00    -0.114 S 
ATOM      2  O   UNL     1      -0.041   0.973   2.635  0.00  0.00    -0.273 OA
ATOM      3  N   UNL     1      -1.368   0.931   0.686  0.00  0.00    -0.242 N 
ATOM      4  C   UNL     1      -0.987   1.775  -0.432  0.00  0.00    +0.155 C 
ATOM      5  CA  UNL     1       0.349   1.992   0.311  0.00  0.00    +0.179 C 
ATOM      6  C   UNL     1      -0.332   1.246   1.494  0.00  0.00    +0.251 C 
ATOM      7  CA  UNL     1      -2.474   0.144   0.694  0.00  0.00    +0.127 C 
ATOM      8  C   UNL     1      -3.150  -0.139  -0.445  0.00  0.00    +0.030 C 
ATOM      9  C   UNL     1      -2.684   0.304  -1.830  0.00  0.00    +0.086 C 
ENDROOT
BRANCH   5  11
ATOM     10  O   UNL     1       2.940   1.641   1.672  0.00  0.00    -0.268 OA
ATOM     11  N   UNL     1       1.548   1.320  -0.190  0.00  0.00    -0.291 N 
ATOM     12  C   UNL     1       2.713   1.220   0.549  0.00  0.00    +0.269 C 
ATOM     13  H   UNL     1       1.525   0.923  -1.091  0.00  0.00    +0.150 HD
BRANCH  12  15
ATOM     14  N   UNL     1       4.642   1.141  -0.933  0.00  0.00    -0.076 NA
ATOM     15  C   UNL     1       3.811   0.488  -0.178  0.00  0.00    +0.198 C 
BRANCH  15  19
ATOM     16  S   UNL     1       3.649  -3.399   0.578  0.00  0.00    -0.060 S 
ATOM     17  N   UNL     1       4.980  -1.616  -0.737  0.00  0.00    -0.383 NA
ATOM     18  N   UNL     1       5.760  -3.834  -0.979  0.00  0.00    -0.328 N 
ATOM     19  C   UNL     1       3.966  -0.966  -0.061  0.00  0.00    +0.148 C 
ATOM     20  C   UNL     1       3.142  -1.766   0.704  0.00  0.00    +0.127 C 
ATOM     21  C   UNL     1       4.910  -2.902  -0.474  0.00  0.00    +0.204 C 
ATOM     22  H   UNL     1       5.649  -4.783  -0.740  0.00  0.00    +0.145 HD
ATOM     23  H   UNL     1       6.487  -3.561  -1.584  0.00  0.00    +0.145 HD
ENDBRANCH  15  19
BRANCH  14  24
ATOM     24  O   UNL     1       4.363   2.514  -0.948  0.00  0.00    -0.373 OA
ATOM     25  C   UNL     1       5.312   3.148  -1.792  0.00  0.00    +0.288 C 
ENDBRANCH  14  24
ENDBRANCH  12  15
ENDBRANCH   5  11
BRANCH   7  27
ATOM     26  OXT UNL     1      -2.900  -1.631   2.217  0.00  0.00    -0.244 OA
ATOM     27  C   UNL     1      -2.868  -0.439   1.986  0.00  0.00    +0.352 C 
BRANCH  27  28
ATOM     28  O   UNL     1      -3.180   0.550   2.846  0.00  0.00    -0.476 OA
ATOM     29  H   UNL     1      -3.124   1.445   2.572  0.00  0.00    +0.295 HD
ENDBRANCH  27  28
ENDBRANCH   7  27
BRANCH   8  30
ATOM     30  C   UNL     1      -4.431  -0.936  -0.506  0.00  0.00    +0.233 C 
BRANCH  30  31
ATOM     31  O   UNL     1      -5.450  -0.140  -1.074  0.00  0.00    -0.444 OA
BRANCH  31  33
ATOM     32  O   UNL     1      -6.962  -1.874  -0.859  0.00  0.00    -0.250 OA
ATOM     33  C   UNL     1      -6.681  -0.732  -1.196  0.00  0.00    +0.318 C 
ATOM     34  C   UNL     1      -7.658   0.225  -1.810  0.00  0.00    +0.121 C 
ENDBRANCH  31  33
ENDBRANCH  30  31
ENDBRANCH   8  30
TORSDOF 9
