REMARK  Name = 3033538
REMARK  4 active torsions:
REMARK  status: ('A' for Active; 'I' for Inactive)
REMARK    1  A    between atoms: N_1  and  C_15
REMARK    2  A    between atoms: N_2  and  C_8
REMARK    3  A    between atoms: C_15  and  C_16
REMARK    4  A    between atoms: C_16  and  C_21
REMARK                            x       y       z     vdW  Elec       q    Type
REMARK                         _______ _______ _______ _____ _____    ______ ____
ROOT
ATOM      1  N   UNL     1      -0.216   1.110  -0.236  0.00  0.00    +0.390 N 
ATOM      2  N   UNL     1      -2.942   0.285  -0.019  0.00  0.00    -0.312 N 
ATOM      3  C   UNL     1      -0.599   0.052   0.706  0.00  0.00    -0.055 C 
ATOM      4  C   UNL     1      -1.071   1.051  -1.428  0.00  0.00    -0.055 C 
ATOM      5  C   UNL     1      -2.056   0.209   1.147  0.00  0.00    +0.068 C 
ATOM      6  C   UNL     1      -2.543   1.243  -1.058  0.00  0.00    +0.068 C 
ATOM      7  H   UNL     1      -0.343   2.016   0.216  0.00  0.00    -0.080 HD
ENDROOT
BRANCH   2   8
ATOM      8  C   UNL     1      -4.304  -0.001   0.124  0.00  0.00    +0.044 C 
ATOM      9  C   UNL     1      -4.924  -1.047  -0.591  0.00  0.00    -0.009 C 
ATOM     10  C   UNL     1      -5.102   0.761   1.001  0.00  0.00    +0.014 C 
ATOM     11  C   UNL     1      -6.284  -1.317  -0.436  0.00  0.00    -0.003 C 
ATOM     12  C   UNL     1      -4.125  -1.887  -1.534  0.00  0.00    +0.032 C 
ATOM     13  C   UNL     1      -6.462   0.491   1.157  0.00  0.00    +0.001 C 
ATOM     14  C   UNL     1      -7.052  -0.548   0.438  0.00  0.00    -0.000 C 
ENDBRANCH   2   8
BRANCH   1  15
ATOM     15  C   UNL     1       1.193   0.981  -0.608  0.00  0.00    -0.069 C 
BRANCH  15  16
ATOM     16  C   UNL     1       2.100   1.135   0.614  0.00  0.00    +0.043 C 
BRANCH  16  21
ATOM     17  N   UNL     1       4.225  -0.138   0.233  0.00  0.00    -0.302 N 
ATOM     18  N   UNL     1       4.334   2.008  -0.117  0.00  0.00    -0.134 NA
ATOM     19  N   UNL     1       5.583   1.465  -0.361  0.00  0.00    -0.134 NA
ATOM     20  C   UNL     1       3.760  -1.456   0.602  0.00  0.00    +0.108 C 
ATOM     21  C   UNL     1       3.534   1.028   0.240  0.00  0.00    +0.141 A 
ATOM     22  C   UNL     1       4.720  -2.554   0.139  0.00  0.00    +0.025 C 
ATOM     23  C   UNL     1       6.174  -2.167   0.426  0.00  0.00    +0.010 C 
ATOM     24  C   UNL     1       6.553  -0.871  -0.297  0.00  0.00    +0.066 C 
ATOM     25  C   UNL     1       5.503   0.168  -0.143  0.00  0.00    +0.143 A 
ENDBRANCH  16  21
ENDBRANCH  15  16
ENDBRANCH   1  15
TORSDOF 4
