REMARK  Name = 5870
REMARK  1 active torsions:
REMARK  status: ('A' for Active; 'I' for Inactive)
REMARK    1  A    between atoms: C_19  and  O_20
REMARK                            x       y       z     vdW  Elec       q    Type
REMARK                         _______ _______ _______ _____ _____    ______ ____
ROOT
ATOM      1  O   UNL     1      -4.940  -1.174  -0.262  0.00  0.00    -0.296 OA
ATOM      2  C   UNL     1      -2.000   0.676  -0.301  0.00  0.00    +0.007 C 
ATOM      3  C   UNL     1      -2.643  -0.595   0.293  0.00  0.00    +0.052 C 
ATOM      4  C   UNL     1      -0.525   0.779   0.082  0.00  0.00    +0.005 C 
ATOM      5  C   UNL     1       0.226  -0.442  -0.534  0.00  0.00    +0.022 C 
ATOM      6  C   UNL     1      -1.975  -1.803  -0.354  0.00  0.00    +0.007 C 
ATOM      7  C   UNL     1      -2.968   1.793   0.071  0.00  0.00    +0.008 C 
ATOM      8  C   UNL     1      -0.450  -1.783  -0.136  0.00  0.00    +0.005 C 
ATOM      9  C   UNL     1       0.130   2.068  -0.417  0.00  0.00    +0.005 C 
ATOM     10  C   UNL     1      -4.082  -0.316  -0.104  0.00  0.00    +0.150 C 
ATOM     11  C   UNL     1      -4.337   1.175  -0.249  0.00  0.00    +0.064 C 
ATOM     12  C   UNL     1      -2.626  -0.708   1.829  0.00  0.00    +0.007 C 
ATOM     13  C   UNL     1       1.725  -0.365  -0.260  0.00  0.00    -0.026 C 
ATOM     14  C   UNL     1       1.558   2.162   0.112  0.00  0.00    +0.026 C 
ATOM     15  C   UNL     1       2.343   0.878   0.000  0.00  0.00    -0.023 C 
ATOM     16  C   UNL     1       2.541  -1.508  -0.346  0.00  0.00    -0.001 C 
ATOM     17  C   UNL     1       3.731   0.939   0.215  0.00  0.00    +0.032 C 
ATOM     18  C   UNL     1       3.920  -1.432  -0.138  0.00  0.00    +0.036 C 
ATOM     19  C   UNL     1       4.515  -0.210   0.147  0.00  0.00    +0.133 C 
ENDROOT
BRANCH  19  20
ATOM     20  O   UNL     1       5.857  -0.135   0.353  0.00  0.00    -0.506 OA
ATOM     21  H   UNL     1       6.256   0.691   0.545  0.00  0.00    +0.292 HD
ENDBRANCH  19  20
TORSDOF 1
