REMARK  Name = 60825
REMARK  3 active torsions:
REMARK  status: ('A' for Active; 'I' for Inactive)
REMARK    1  A    between atoms: N_2  and  C_13
REMARK    2  A    between atoms: C_15  and  C_16
REMARK    3  A    between atoms: C_16  and  O_17
REMARK                            x       y       z     vdW  Elec       q    Type
REMARK                         _______ _______ _______ _____ _____    ______ ____
ROOT
ATOM      1  O   UNL     1       1.565  -2.356   0.368  0.00  0.00    -0.193 OA
ATOM      2  N   UNL     1       0.582  -0.287   0.106  0.00  0.00    -0.179 N 
ATOM      3  N   UNL     1       2.957  -0.583   0.095  0.00  0.00    -0.306 NA
ATOM      4  N   UNL     1       4.376   1.238  -0.185  0.00  0.00    -0.332 N 
ATOM      5  C   UNL     1       0.745   1.066  -0.081  0.00  0.00    +0.083 C 
ATOM      6  C   UNL     1       1.694  -1.142   0.199  0.00  0.00    +0.275 C 
ATOM      7  C   UNL     1       1.950   1.623  -0.183  0.00  0.00    +0.065 C 
ATOM      8  C   UNL     1       3.113   0.703  -0.084  0.00  0.00    +0.193 C 
ATOM      9  H   UNL     1       5.165   0.652  -0.123  0.00  0.00    +0.145 HD
ATOM     10  H   UNL     1       4.491   2.206  -0.319  0.00  0.00    +0.145 HD
ENDROOT
BRANCH   2  13
ATOM     11  S   UNL     1      -3.105  -1.209  -0.836  0.00  0.00    -0.105 S 
ATOM     12  O   UNL     1      -1.584   0.204   0.815  0.00  0.00    -0.325 OA
ATOM     13  C   UNL     1      -0.757  -0.794   0.205  0.00  0.00    +0.218 C 
ATOM     14  C   UNL     1      -1.338  -1.111  -1.165  0.00  0.00    +0.112 C 
ATOM     15  C   UNL     1      -2.951  -0.205   0.666  0.00  0.00    +0.194 C 
BRANCH  15  16
ATOM     16  C   UNL     1      -3.826   1.033   0.594  0.00  0.00    +0.178 C 
BRANCH  16  17
ATOM     17  O   UNL     1      -3.420   1.819  -0.514  0.00  0.00    -0.379 OA
ATOM     18  H   UNL     1      -3.974   2.613  -0.568  0.00  0.00    +0.211 HD
ENDBRANCH  16  17
ENDBRANCH  15  16
ENDBRANCH   2  13
TORSDOF 3
