REMARK  Name = 15459
REMARK  3 active torsions:
REMARK  status: ('A' for Active; 'I' for Inactive)
REMARK    1  A    between atoms: O_1  and  C_2
REMARK    2  A    between atoms: O_1  and  C_10
REMARK    3  A    between atoms: C_10  and  C_14
REMARK                            x       y       z     vdW  Elec       q    Type
REMARK                         _______ _______ _______ _____ _____    ______ ____
ROOT
ATOM      1  O   UNL     1      -0.153  -0.003  -1.326  0.00  0.00    -0.472 OA
ENDROOT
BRANCH   1   2
ATOM      2  C   UNL     1       1.068  -0.011  -0.699  0.00  0.00    +0.138 C 
ATOM      3  C   UNL     1       1.528  -1.181  -0.107  0.00  0.00    +0.033 C 
ATOM      4  C   UNL     1       1.829   1.151  -0.665  0.00  0.00    +0.033 C 
ATOM      5  C   UNL     1       2.768  -1.188   0.530  0.00  0.00    -0.019 C 
ATOM      6  C   UNL     1       3.070   1.143  -0.028  0.00  0.00    -0.019 C 
ATOM      7  C   UNL     1       3.539  -0.027   0.570  0.00  0.00    -0.008 C 
ATOM      8  C   UNL     1       3.271  -2.439   1.169  0.00  0.00    +0.031 C 
ATOM      9  C   UNL     1       3.894   2.385   0.015  0.00  0.00    +0.031 C 
ENDBRANCH   1   2
BRANCH   1  10
ATOM     10  C   UNL     1      -1.139  -0.889  -0.824  0.00  0.00    +0.250 C 
BRANCH  10  14
ATOM     11  O   UNL     1      -2.620   0.932  -0.280  0.00  0.00    -0.433 OA
ATOM     12  O   UNL     1      -3.549   1.460   1.748  0.00  0.00    -0.226 OA
ATOM     13  N   UNL     1      -3.954  -0.578   0.700  0.00  0.00    -0.267 N 
ATOM     14  C   UNL     1      -2.512  -0.276  -1.060  0.00  0.00    +0.233 C 
ATOM     15  C   UNL     1      -3.646  -1.151  -0.568  0.00  0.00    +0.140 C 
ATOM     16  C   UNL     1      -3.394   0.674   0.824  0.00  0.00    +0.402 C 
ATOM     17  H   UNL     1      -4.495  -1.018   1.395  0.00  0.00    +0.153 HD
ENDBRANCH  10  14
ENDBRANCH   1  10
TORSDOF 3
