REMARK  Name = 3025
REMARK  10 active torsions:
REMARK  status: ('A' for Active; 'I' for Inactive)
REMARK    1  A    between atoms: C_2  and  C_13
REMARK    2  A    between atoms: C_6  and  O_23
REMARK    3  A    between atoms: N_12  and  C_15
REMARK    4  A    between atoms: C_15  and  C_16
REMARK    5  A    between atoms: C_16  and  N_17
REMARK    6  A    between atoms: N_17  and  C_19
REMARK    7  A    between atoms: N_17  and  C_21
REMARK    8  A    between atoms: O_23  and  C_24
REMARK    9  A    between atoms: C_24  and  C_25
REMARK   10  A    between atoms: C_25  and  C_26
REMARK                            x       y       z     vdW  Elec       q    Type
REMARK                         _______ _______ _______ _____ _____    ______ ____
ROOT
ATOM      1  N   UNL     1       2.917   0.891   0.071  0.00  0.00    -0.372 NA
ATOM      2  C   UNL     1       0.280   0.183  -0.464  0.00  0.00    +0.061 C 
ATOM      3  C   UNL     1       0.610   1.524  -0.223  0.00  0.00    +0.030 C 
ATOM      4  C   UNL     1       1.959   1.837   0.044  0.00  0.00    +0.117 C 
ATOM      5  C   UNL     1       1.264  -0.794  -0.438  0.00  0.00    +0.076 C 
ATOM      6  C   UNL     1       2.556  -0.391  -0.167  0.00  0.00    +0.277 C 
ATOM      7  C   UNL     1      -0.363   2.537  -0.242  0.00  0.00    +0.002 C 
ATOM      8  C   UNL     1       2.287   3.168   0.285  0.00  0.00    +0.085 C 
ATOM      9  C   UNL     1      -0.008   3.860   0.001  0.00  0.00    -0.004 C 
ATOM     10  C   UNL     1       1.319   4.176   0.265  0.00  0.00    -0.019 C 
ENDROOT
BRANCH   2  13
ATOM     11  O   UNL     1      -1.682   0.178  -1.748  0.00  0.00    -0.270 OA
ATOM     12  N   UNL     1      -1.649  -1.176   0.134  0.00  0.00    -0.303 N 
ATOM     13  C   UNL     1      -1.084  -0.252  -0.750  0.00  0.00    +0.246 C 
ATOM     14  H   UNL     1      -1.113  -1.472   0.905  0.00  0.00    +0.150 HD
BRANCH  12  15
ATOM     15  C   UNL     1      -2.978  -1.719  -0.027  0.00  0.00    +0.067 C 
BRANCH  15  16
ATOM     16  C   UNL     1      -4.013  -0.862   0.687  0.00  0.00    -0.056 C 
BRANCH  16  17
ATOM     17  N   UNL     1      -5.349  -1.411   0.488  0.00  0.00    +0.388 N 
ATOM     18  H   UNL     1      -5.287  -2.427   0.555  0.00  0.00    -0.080 HD
BRANCH  17  19
ATOM     19  C   UNL     1      -6.264  -0.930   1.526  0.00  0.00    -0.077 C 
ATOM     20  C   UNL     1      -6.423   0.579   1.460  0.00  0.00    -0.025 C 
ENDBRANCH  17  19
BRANCH  17  21
ATOM     21  C   UNL     1      -5.859  -1.062  -0.839  0.00  0.00    -0.077 C 
ATOM     22  C   UNL     1      -7.223  -1.684  -1.084  0.00  0.00    -0.025 C 
ENDBRANCH  17  21
ENDBRANCH  16  17
ENDBRANCH  15  16
ENDBRANCH  12  15
ENDBRANCH   2  13
BRANCH   6  23
ATOM     23  O   UNL     1       3.552  -1.331  -0.134  0.00  0.00    -0.452 OA
BRANCH  23  24
ATOM     24  C   UNL     1       4.865  -0.862   0.149  0.00  0.00    +0.208 C 
BRANCH  24  25
ATOM     25  C   UNL     1       5.826  -2.043   0.122  0.00  0.00    +0.047 C 
BRANCH  25  26
ATOM     26  C   UNL     1       7.256  -1.613   0.435  0.00  0.00    +0.004 C 
ATOM     27  C   UNL     1       8.204  -2.801   0.449  0.00  0.00    +0.000 C 
ENDBRANCH  25  26
ENDBRANCH  24  25
ENDBRANCH  23  24
ENDBRANCH   6  23
TORSDOF 10
