REMARK  Name = 3241
REMARK  0 active torsions:
REMARK  status: ('A' for Active; 'I' for Inactive)
REMARK                            x       y       z     vdW  Elec       q    Type
REMARK                         _______ _______ _______ _____ _____    ______ ____
ROOT
ATOM      1  N   UNL     1      -0.458  -1.087   0.213  0.00  0.00    -0.257 N 
ATOM      2  N   UNL     1       0.640  -3.097   0.127  0.00  0.00    -0.241 NA
ATOM      3  N   UNL     1      -0.938  -2.621  -1.563  0.00  0.00    -0.331 N 
ATOM      4  C   UNL     1       0.666  -0.880   1.118  0.00  0.00    +0.126 C 
ATOM      5  C   UNL     1       1.646   0.056   0.440  0.00  0.00    -0.006 C 
ATOM      6  C   UNL     1       1.096  -2.346   1.330  0.00  0.00    +0.153 C 
ATOM      7  C   UNL     1      -1.493  -0.143   0.091  0.00  0.00    +0.050 C 
ATOM      8  C   UNL     1       1.254   1.403   0.288  0.00  0.00    -0.020 C 
ATOM      9  C   UNL     1      -0.049   1.887   0.878  0.00  0.00    +0.054 C 
ATOM     10  C   UNL     1      -1.325   1.244   0.355  0.00  0.00    -0.004 C 
ATOM     11  C   UNL     1      -0.276  -2.312  -0.408  0.00  0.00    +0.182 C 
ATOM     12  C   UNL     1       2.872  -0.356  -0.102  0.00  0.00    -0.003 C 
ATOM     13  C   UNL     1       2.097   2.304  -0.381  0.00  0.00    -0.004 C 
ATOM     14  C   UNL     1      -2.787  -0.572  -0.288  0.00  0.00    +0.015 C 
ATOM     15  C   UNL     1      -2.427   2.119   0.207  0.00  0.00    -0.003 C 
ATOM     16  C   UNL     1       3.702   0.551  -0.765  0.00  0.00    -0.000 C 
ATOM     17  C   UNL     1       3.315   1.879  -0.904  0.00  0.00    -0.000 C 
ATOM     18  C   UNL     1      -3.858   0.311  -0.439  0.00  0.00    +0.001 C 
ATOM     19  C   UNL     1      -3.676   1.661  -0.197  0.00  0.00    -0.000 C 
ATOM     20  H   UNL     1      -1.614  -2.002  -1.924  0.00  0.00    +0.145 HD
ATOM     21  H   UNL     1      -0.739  -3.462  -2.035  0.00  0.00    +0.145 HD
ENDROOT
TORSDOF 0
