REMARK  Name = 3702
REMARK  4 active torsions:
REMARK  status: ('A' for Active; 'I' for Inactive)
REMARK    1  A    between atoms: N_2  and  N_5
REMARK    2  A    between atoms: C_3  and  C_16
REMARK    3  A    between atoms: C_18  and  S_22
REMARK    4  A    between atoms: S_22  and  N_25
REMARK                            x       y       z     vdW  Elec       q    Type
REMARK                         _______ _______ _______ _____ _____    ______ ____
ROOT
ATOM      1  O   UNL     1      -0.495  -2.216  -1.396  0.00  0.00    -0.269 OA
ATOM      2  N   UNL     1      -0.894  -0.609   0.230  0.00  0.00    -0.229 N 
ATOM      3  C   UNL     1      -0.084  -1.380  -0.595  0.00  0.00    +0.262 C 
ATOM      4  H   UNL     1      -0.496   0.044   0.850  0.00  0.00    +0.173 HD
ENDROOT
BRANCH   2   5
ATOM      5  N   UNL     1      -2.251  -0.767   0.171  0.00  0.00    -0.240 N 
ATOM      6  C   UNL     1      -2.957  -1.435   1.270  0.00  0.00    +0.097 C 
ATOM      7  C   UNL     1      -4.432  -0.956   1.191  0.00  0.00    +0.049 C 
ATOM      8  C   UNL     1      -4.297   0.298   0.388  0.00  0.00    -0.006 C 
ATOM      9  C   UNL     1      -3.020   0.357  -0.183  0.00  0.00    +0.061 C 
ATOM     10  C   UNL     1      -2.841  -2.947   1.145  0.00  0.00    +0.024 C 
ATOM     11  C   UNL     1      -5.242   1.285   0.165  0.00  0.00    -0.003 C 
ATOM     12  C   UNL     1      -2.666   1.426  -0.992  0.00  0.00    +0.016 C 
ATOM     13  C   UNL     1      -4.886   2.364  -0.645  0.00  0.00    -0.000 C 
ATOM     14  C   UNL     1      -3.607   2.434  -1.219  0.00  0.00    +0.001 C 
ENDBRANCH   2   5
BRANCH   3  16
ATOM     15 CL   UNL     1       5.809  -0.580  -0.063  0.00  0.00    -0.081 Cl
ATOM     16  C   UNL     1       1.381  -1.168  -0.458  0.00  0.00    +0.056 C 
ATOM     17  C   UNL     1       1.838   0.058  -0.022  0.00  0.00    +0.025 C 
ATOM     18  C   UNL     1       3.213   0.257   0.106  0.00  0.00    +0.132 C 
ATOM     19  C   UNL     1       2.235  -2.204  -0.772  0.00  0.00    +0.006 C 
ATOM     20  C   UNL     1       4.099  -0.775  -0.204  0.00  0.00    +0.076 C 
ATOM     21  C   UNL     1       3.610  -2.005  -0.643  0.00  0.00    +0.013 C 
BRANCH  18  22
ATOM     22  S   UNL     1       3.769   1.823   0.663  0.00  0.00    +0.058 S 
ATOM     23  O   UNL     1       2.696   2.440   1.425  0.00  0.00    -0.153 OA
ATOM     24  O   UNL     1       5.084   1.653   1.261  0.00  0.00    -0.153 OA
BRANCH  22  25
ATOM     25  N   UNL     1       3.941   2.647  -0.823  0.00  0.00    -0.203 NA
ATOM     26  H   UNL     1       4.267   3.597  -0.649  0.00  0.00    +0.144 HD
ATOM     27  H   UNL     1       3.040   2.679  -1.300  0.00  0.00    +0.144 HD
ENDBRANCH  22  25
ENDBRANCH  18  22
ENDBRANCH   3  16
TORSDOF 4
