REMARK  Name = 2911
REMARK  6 active torsions:
REMARK  status: ('A' for Active; 'I' for Inactive)
REMARK    1  A    between atoms: C_1  and  C_2
REMARK    2  A    between atoms: C_1  and  C_8
REMARK    3  A    between atoms: C_1  and  O_13
REMARK    4  A    between atoms: C_1  and  C_15
REMARK    5  A    between atoms: C_15  and  C_16
REMARK    6  A    between atoms: C_16  and  N_17
REMARK                            x       y       z     vdW  Elec       q    Type
REMARK                         _______ _______ _______ _____ _____    ______ ____
ROOT
ATOM      1  C   UNL     1       1.133  -0.261  -0.668  0.00  0.00    +0.105 C 
ENDROOT
BRANCH   1   2
ATOM      2  C   UNL     1       1.446   1.152  -0.182  0.00  0.00    +0.002 C 
ATOM      3  C   UNL     1       1.645   1.360   1.165  0.00  0.00    -0.002 C 
ATOM      4  C   UNL     1       1.519   2.170  -1.108  0.00  0.00    -0.002 C 
ATOM      5  C   UNL     1       1.931   2.651   1.609  0.00  0.00    -0.000 C 
ATOM      6  C   UNL     1       1.805   3.461  -0.664  0.00  0.00    -0.000 C 
ATOM      7  C   UNL     1       2.011   3.701   0.695  0.00  0.00    -0.000 C 
ENDBRANCH   1   2
BRANCH   1   8
ATOM      8  C   UNL     1       1.736  -1.375   0.170  0.00  0.00    +0.029 C 
ATOM      9  C   UNL     1       1.441  -2.767  -0.378  0.00  0.00    +0.003 C 
ATOM     10  C   UNL     1       3.261  -1.351   0.193  0.00  0.00    +0.003 C 
ATOM     11  C   UNL     1       2.477  -3.660   0.299  0.00  0.00    +0.000 C 
ATOM     12  C   UNL     1       3.644  -2.746   0.677  0.00  0.00    +0.000 C 
ENDBRANCH   1   8
BRANCH   1  13
ATOM     13  O   UNL     1       1.741  -0.387  -1.968  0.00  0.00    -0.383 OA
ATOM     14  H   UNL     1       1.569  -1.274  -2.321  0.00  0.00    +0.211 HD
ENDBRANCH   1  13
BRANCH   1  15
ATOM     15  C   UNL     1      -0.393  -0.476  -0.855  0.00  0.00    +0.008 C 
BRANCH  15  16
ATOM     16  C   UNL     1      -1.225  -0.347   0.423  0.00  0.00    -0.075 C 
BRANCH  16  17
ATOM     17  N   UNL     1      -2.640  -0.564   0.124  0.00  0.00    +0.387 N 
ATOM     18  C   UNL     1      -3.124   0.446  -0.828  0.00  0.00    -0.077 C 
ATOM     19  C   UNL     1      -3.435  -0.552   1.360  0.00  0.00    -0.077 C 
ATOM     20  C   UNL     1      -4.591   0.205  -1.190  0.00  0.00    -0.023 C 
ATOM     21  C   UNL     1      -4.911  -0.825   1.070  0.00  0.00    -0.023 C 
ATOM     22  C   UNL     1      -5.470   0.165   0.054  0.00  0.00    -0.004 C 
ATOM     23  H   UNL     1      -2.747  -1.481  -0.309  0.00  0.00    -0.080 HD
ENDBRANCH  16  17
ENDBRANCH  15  16
ENDBRANCH   1  15
TORSDOF 6
