5572
  -OEChem-10051719133D

 53 55  0     1  0  0  0  0  0999 V2000
    1.5834   -0.2763    2.0401 O   0  0  0  0  0  0  0  0  0  0  0  0
   -2.7911    0.4138    0.0479 N   0  0  0  0  0  0  0  0  0  0  0  0
    1.3908   -1.2327   -0.1198 C   0  0  0  0  0  0  0  0  0  0  0  0
    0.9871   -0.0413    0.7469 C   0  0  1  0  0  0  0  0  0  0  0  0
    2.9188   -1.3502   -0.2018 C   0  0  0  0  0  0  0  0  0  0  0  0
    0.7712   -2.5293    0.4187 C   0  0  0  0  0  0  0  0  0  0  0  0
   -0.5525    0.0009    0.9629 C   0  0  0  0  0  0  0  0  0  0  0  0
    3.3475   -2.5662   -1.0198 C   0  0  0  0  0  0  0  0  0  0  0  0
    1.2037   -3.7434   -0.4002 C   0  0  0  0  0  0  0  0  0  0  0  0
    2.7229   -3.8519   -0.4869 C   0  0  0  0  0  0  0  0  0  0  0  0
   -1.3631    0.4141   -0.2687 C   0  0  0  0  0  0  0  0  0  0  0  0
    1.5175    1.3166    0.2789 C   0  0  0  0  0  0  0  0  0  0  0  0
   -3.2301   -0.9324    0.4415 C   0  0  0  0  0  0  0  0  0  0  0  0
   -3.5706    0.9145   -1.0929 C   0  0  0  0  0  0  0  0  0  0  0  0
   -4.7112   -0.9402    0.8237 C   0  0  0  0  0  0  0  0  0  0  0  0
   -5.0626    0.9670   -0.7611 C   0  0  0  0  0  0  0  0  0  0  0  0
   -5.5778   -0.3935   -0.3050 C   0  0  0  0  0  0  0  0  0  0  0  0
    1.7268    1.5129   -1.0664 C   0  0  0  0  0  0  0  0  0  0  0  0
    1.7635    2.2874    1.2219 C   0  0  0  0  0  0  0  0  0  0  0  0
    2.2098    2.7499   -1.4929 C   0  0  0  0  0  0  0  0  0  0  0  0
    2.2465    3.5245    0.7953 C   0  0  0  0  0  0  0  0  0  0  0  0
    2.4695    3.7558   -0.5622 C   0  0  0  0  0  0  0  0  0  0  0  0
    1.0049   -1.1177   -1.1401 H   0  0  0  0  0  0  0  0  0  0  0  0
    3.3528   -1.4493    0.8013 H   0  0  0  0  0  0  0  0  0  0  0  0
    3.3819   -0.4683   -0.6525 H   0  0  0  0  0  0  0  0  0  0  0  0
   -0.3209   -2.5107    0.3608 H   0  0  0  0  0  0  0  0  0  0  0  0
    1.0479   -2.7048    1.4643 H   0  0  0  0  0  0  0  0  0  0  0  0
   -0.8693   -0.9266    1.4354 H   0  0  0  0  0  0  0  0  0  0  0  0
   -0.7550    0.7474    1.7480 H   0  0  0  0  0  0  0  0  0  0  0  0
    4.4398   -2.6549   -1.0042 H   0  0  0  0  0  0  0  0  0  0  0  0
    3.0538   -2.4233   -2.0671 H   0  0  0  0  0  0  0  0  0  0  0  0
    0.7856   -3.6700   -1.4119 H   0  0  0  0  0  0  0  0  0  0  0  0
    0.7945   -4.6562    0.0476 H   0  0  0  0  0  0  0  0  0  0  0  0
    2.9965   -4.6915   -1.1356 H   0  0  0  0  0  0  0  0  0  0  0  0
    3.1302   -4.0703    0.5080 H   0  0  0  0  0  0  0  0  0  0  0  0
   -1.1527   -0.2558   -1.1108 H   0  0  0  0  0  0  0  0  0  0  0  0
   -1.0750    1.4271   -0.5698 H   0  0  0  0  0  0  0  0  0  0  0  0
   -3.0519   -1.6560   -0.3649 H   0  0  0  0  0  0  0  0  0  0  0  0
   -2.7225   -1.3013    1.3342 H   0  0  0  0  0  0  0  0  0  0  0  0
   -3.2439    1.9294   -1.3505 H   0  0  0  0  0  0  0  0  0  0  0  0
   -3.4131    0.2864   -1.9797 H   0  0  0  0  0  0  0  0  0  0  0  0
    1.0225   -0.8890    2.5437 H   0  0  0  0  0  0  0  0  0  0  0  0
   -4.8623   -0.3341    1.7263 H   0  0  0  0  0  0  0  0  0  0  0  0
   -5.0263   -1.9612    1.0678 H   0  0  0  0  0  0  0  0  0  0  0  0
   -5.6259    1.2995   -1.6404 H   0  0  0  0  0  0  0  0  0  0  0  0
   -5.2373    1.7077    0.0297 H   0  0  0  0  0  0  0  0  0  0  0  0
   -5.5624   -1.0928   -1.1499 H   0  0  0  0  0  0  0  0  0  0  0  0
   -6.6187   -0.3102    0.0260 H   0  0  0  0  0  0  0  0  0  0  0  0
    1.5131    0.7710   -1.8258 H   0  0  0  0  0  0  0  0  0  0  0  0
    1.5816    2.1382    2.2813 H   0  0  0  0  0  0  0  0  0  0  0  0
    2.3775    2.9328   -2.5504 H   0  0  0  0  0  0  0  0  0  0  0  0
    2.4446    4.3094    1.5193 H   0  0  0  0  0  0  0  0  0  0  0  0
    2.8432    4.7198   -0.8945 H   0  0  0  0  0  0  0  0  0  0  0  0
  1  4  1  0  0  0  0
  1 42  1  0  0  0  0
  2 11  1  0  0  0  0
  2 13  1  0  0  0  0
  2 14  1  0  0  0  0
  3  4  1  0  0  0  0
  3  5  1  0  0  0  0
  3  6  1  0  0  0  0
  3 23  1  0  0  0  0
  4  7  1  0  0  0  0
  4 12  1  0  0  0  0
  5  8  1  0  0  0  0
  5 24  1  0  0  0  0
  5 25  1  0  0  0  0
  6  9  1  0  0  0  0
  6 26  1  0  0  0  0
  6 27  1  0  0  0  0
  7 11  1  0  0  0  0
  7 28  1  0  0  0  0
  7 29  1  0  0  0  0
  8 10  1  0  0  0  0
  8 30  1  0  0  0  0
  8 31  1  0  0  0  0
  9 10  1  0  0  0  0
  9 32  1  0  0  0  0
  9 33  1  0  0  0  0
 10 34  1  0  0  0  0
 10 35  1  0  0  0  0
 11 36  1  0  0  0  0
 11 37  1  0  0  0  0
 12 18  2  0  0  0  0
 12 19  1  0  0  0  0
 13 15  1  0  0  0  0
 13 38  1  0  0  0  0
 13 39  1  0  0  0  0
 14 16  1  0  0  0  0
 14 40  1  0  0  0  0
 14 41  1  0  0  0  0
 15 17  1  0  0  0  0
 15 43  1  0  0  0  0
 15 44  1  0  0  0  0
 16 17  1  0  0  0  0
 16 45  1  0  0  0  0
 16 46  1  0  0  0  0
 17 47  1  0  0  0  0
 17 48  1  0  0  0  0
 18 20  1  0  0  0  0
 18 49  1  0  0  0  0
 19 21  2  0  0  0  0
 19 50  1  0  0  0  0
 20 22  2  0  0  0  0
 20 51  1  0  0  0  0
 21 22  1  0  0  0  0
 21 52  1  0  0  0  0
 22 53  1  0  0  0  0
M  END
> <DATABASE_ID>
DB00376

> <DATABASE_NAME>
drugbank

> <ORIGINAL_SOURCE>
PUBCHEM

> <ORIGINAL_SOURCE_URL>
https://pubchem.ncbi.nlm.nih.gov/rest/pug/compound/inchikey/HWHLPVGTWGOCJO-UHFFFAOYSA-N/SDF?record_type=3d

> <SMILES>
OC(CCN1CCCCC1)(C1CCCCC1)C1=CC=CC=C1

> <INCHI_IDENTIFIER>
InChI=1S/C20H31NO/c22-20(18-10-4-1-5-11-18,19-12-6-2-7-13-19)14-17-21-15-8-3-9-16-21/h1,4-5,10-11,19,22H,2-3,6-9,12-17H2

> <INCHI_KEY>
HWHLPVGTWGOCJO-UHFFFAOYSA-N

> <FORMULA>
C20H31NO

> <MOLECULAR_WEIGHT>
301.4662

> <EXACT_MASS>
301.240564619

> <JCHEM_ACCEPTOR_COUNT>
2

> <JCHEM_AVERAGE_POLARIZABILITY>
36.72713262642084

> <JCHEM_BIOAVAILABILITY>
1

> <JCHEM_DONOR_COUNT>
1

> <JCHEM_FORMAL_CHARGE>
0

> <JCHEM_GHOSE_FILTER>
1

> <JCHEM_IUPAC>
1-cyclohexyl-1-phenyl-3-(piperidin-1-yl)propan-1-ol

> <ALOGPS_LOGP>
4.93

> <JCHEM_LOGP>
4.232685493666667

> <ALOGPS_LOGS>
-4.98

> <JCHEM_MDDR_LIKE_RULE>
0

> <JCHEM_NUMBER_OF_RINGS>
3

> <JCHEM_PHYSIOLOGICAL_CHARGE>
1

> <JCHEM_PKA_STRONGEST_ACIDIC>
13.840029637408257

> <JCHEM_PKA_STRONGEST_BASIC>
9.322450553606302

> <JCHEM_POLAR_SURFACE_AREA>
23.47

> <JCHEM_REFRACTIVITY>
93.20520000000003

> <JCHEM_ROTATABLE_BOND_COUNT>
5

> <JCHEM_RULE_OF_FIVE>
1

> <ALOGPS_SOLUBILITY>
3.14e-03 g/l

> <JCHEM_TRADITIONAL_IUPAC>
trihexyphenidyl

> <JCHEM_VEBER_RULE>
1

> <DRUGBANK_ID>
DB00376

> <SECONDARY_ACCESSION_NUMBERS>
APRD00070

> <DRUG_GROUPS>
approved

> <GENERIC_NAME>
Trihexyphenidyl

> <SYNONYMS>
Trihexifenidilo; Trihexyphenidyl; TrihexyphÃ©nidyle; Trihexyphenidylum

> <PRODUCTS>
Aparkane Tab 2mg; Aparkane Tab 5mg; Artane Elx 2mg/5ml; Artane Tab 2mg; Artane Tab 5mg; Novo-hexidyl 2mg; Novo-hexidyl 5mg; Nu-trihexyphenidyl; PMS Trihexyphenidyl; PMS-trihexyphenidyl; PMS-trihexyphenidyl Elx 0.4mg/ml; Trihexyphen 5 Tab 5mg; Trihexyphen Tab 2mg; Trihexyphenidyl; Trihexyphenidyl Hydrochloride; Trihexyphenidyl hydrochloride

> <INTERNATIONAL_BRANDS>
ACA; Acamed; Altant; Apo-trihex; Artane; Artine; Atan; Benzhexol; Benzox; Bexol; Broflex; Cyclodol; Dyskinil; Ea Ten; Hexymer; Hipokinon; Lahexy; Pacitane; Pakisonal; Parales; Parcisol; Pargitan; Parkin; Parkinane; Parkines; Parkinidyl; Parkisan; Parkitane; Parkizol; Tonaril

> <SALTS>
Trihexyphenidyl hydrochloride

$$$$
