REMARK  Name = 6604200
REMARK  4 active torsions:
REMARK  status: ('A' for Active; 'I' for Inactive)
REMARK    1  A    between atoms: N_1  and  C_2
REMARK    2  A    between atoms: N_1  and  N_5
REMARK    3  A    between atoms: C_2  and  C_12
REMARK    4  A    between atoms: C_14  and  N_18
REMARK                            x       y       z     vdW  Elec       q    Type
REMARK                         _______ _______ _______ _____ _____    ______ ____
ROOT
ATOM      1  N   UNL     1       1.110   0.842   0.000  0.00  0.00    -0.118 NA
ENDROOT
BRANCH   1   4
ATOM      2  O   UNL     1       4.658  -2.274   0.001  0.00  0.00    -0.273 OA
ATOM      3  O   UNL     1       3.642   2.201   0.000  0.00  0.00    -0.251 OA
ATOM      4  N   UNL     1       2.319   0.260   0.000  0.00  0.00    -0.181 N 
ATOM      5  N   UNL     1       4.521   0.046   0.000  0.00  0.00    -0.237 N 
ATOM      6  C   UNL     1       2.501  -1.163   0.000  0.00  0.00    +0.199 C 
ATOM      7  C   UNL     1       4.016  -1.233   0.000  0.00  0.00    +0.251 C 
ATOM      8  C   UNL     1       3.508   0.985   0.000  0.00  0.00    +0.325 C 
ATOM      9  H   UNL     1       5.481   0.265   0.000  0.00  0.00    +0.159 HD
ENDBRANCH   1   4
BRANCH   1  10
ATOM     10  C   UNL     1       0.129  -0.002   0.000  0.00  0.00    +0.176 C 
BRANCH  10  12
ATOM     11  O   UNL     1      -2.195  -0.534   0.000  0.00  0.00    -0.436 OA
ATOM     12  C   UNL     1      -1.259   0.431   0.000  0.00  0.00    +0.144 C 
ATOM     13  C   UNL     1      -1.792   1.677   0.000  0.00  0.00    +0.040 C 
ATOM     14  C   UNL     1      -3.388   0.118   0.000  0.00  0.00    +0.289 C 
ATOM     15  C   UNL     1      -3.194   1.479   0.000  0.00  0.00    +0.066 C 
BRANCH  14  18
ATOM     16  O   UNL     1      -5.671  -0.175   0.001  0.00  0.00    -0.123 OA
ATOM     17  O   UNL     1      -4.384  -1.958  -0.001  0.00  0.00    -0.123 OA
ATOM     18  N   UNL     1      -4.520  -0.700   0.000  0.00  0.00    +0.093 N 
ENDBRANCH  14  18
ENDBRANCH  10  12
ENDBRANCH   1  10
TORSDOF 4
