REMARK  Name = 5391
REMARK  2 active torsions:
REMARK  status: ('A' for Active; 'I' for Inactive)
REMARK    1  A    between atoms: C_7  and  C_15
REMARK    2  A    between atoms: C_8  and  O_21
REMARK                            x       y       z     vdW  Elec       q    Type
REMARK                         _______ _______ _______ _____ _____    ______ ____
ROOT
ATOM      1 CL   UNL     1      -0.345   4.495  -1.179  0.00  0.00    -0.082 Cl
ATOM      2  O   UNL     1       2.744  -2.760   0.671  0.00  0.00    -0.270 OA
ATOM      3  N   UNL     1       2.324  -0.477   0.819  0.00  0.00    -0.253 N 
ATOM      4  N   UNL     1       0.067  -1.732  -0.764  0.00  0.00    -0.235 NA
ATOM      5  C   UNL     1       1.637   0.697   0.355  0.00  0.00    +0.055 C 
ATOM      6  C   UNL     1       0.371   0.653  -0.262  0.00  0.00    +0.032 C 
ATOM      7  C   UNL     1      -0.421  -0.606  -0.370  0.00  0.00    +0.080 C 
ATOM      8  C   UNL     1       1.477  -1.788  -1.112  0.00  0.00    +0.296 C 
ATOM      9  C   UNL     1       2.222  -1.738   0.214  0.00  0.00    +0.281 C 
ATOM     10  C   UNL     1      -0.228   1.829  -0.749  0.00  0.00    +0.014 C 
ATOM     11  C   UNL     1       2.233   1.962   0.531  0.00  0.00    +0.016 C 
ATOM     12  C   UNL     1       3.236  -0.333   1.954  0.00  0.00    +0.120 C 
ATOM     13  C   UNL     1       0.399   3.061  -0.589  0.00  0.00    +0.058 C 
ATOM     14  C   UNL     1       1.624   3.128   0.062  0.00  0.00    +0.013 C 
ENDROOT
BRANCH   7  15
ATOM     15  C   UNL     1      -1.863  -0.586   0.012  0.00  0.00    +0.017 C 
ATOM     16  C   UNL     1      -2.303   0.297   0.991  0.00  0.00    +0.001 C 
ATOM     17  C   UNL     1      -2.752  -1.452  -0.615  0.00  0.00    +0.001 C 
ATOM     18  C   UNL     1      -3.651   0.315   1.348  0.00  0.00    +0.000 C 
ATOM     19  C   UNL     1      -4.100  -1.433  -0.258  0.00  0.00    +0.000 C 
ATOM     20  C   UNL     1      -4.550  -0.550   0.724  0.00  0.00    +0.000 C 
ENDBRANCH   7  15
BRANCH   8  21
ATOM     21  O   UNL     1       1.879  -2.981  -1.782  0.00  0.00    -0.357 OA
ATOM     22  H   UNL     1       1.420  -3.043  -2.635  0.00  0.00    +0.213 HD
ENDBRANCH   8  21
TORSDOF 2
