REMARK  Name = 3762
REMARK  8 active torsions:
REMARK  status: ('A' for Active; 'I' for Inactive)
REMARK    1  A    between atoms: C_1  and  C_2
REMARK    2  A    between atoms: C_1  and  O_12
REMARK    3  A    between atoms: C_1  and  C_14
REMARK    4  A    between atoms: C_5  and  O_8
REMARK    5  A    between atoms: C_7  and  O_10
REMARK    6  A    between atoms: C_14  and  N_15
REMARK    7  A    between atoms: C_14  and  C_21
REMARK    8  A    between atoms: N_15  and  C_18
REMARK                            x       y       z     vdW  Elec       q    Type
REMARK                         _______ _______ _______ _____ _____    ______ ____
ROOT
ATOM      1  C   UNL     1      -0.727  -0.068   0.794  0.00  0.00    +0.114 C 
ENDROOT
BRANCH   1   2
ATOM      2  C   UNL     1       0.762  -0.001   0.508  0.00  0.00    +0.005 C 
ATOM      3  C   UNL     1       1.379  -1.083  -0.091  0.00  0.00    +0.038 C 
ATOM      4  C   UNL     1       1.462   1.139   0.856  0.00  0.00    +0.001 C 
ATOM      5  C   UNL     1       2.748  -1.022  -0.353  0.00  0.00    +0.167 C 
ATOM      6  C   UNL     1       2.831   1.199   0.594  0.00  0.00    +0.040 C 
ATOM      7  C   UNL     1       3.474   0.118  -0.011  0.00  0.00    +0.167 C 
BRANCH   5   8
ATOM      8  O   UNL     1       3.365  -2.085  -0.941  0.00  0.00    -0.503 OA
ATOM      9  H   UNL     1       2.870  -2.848  -1.168  0.00  0.00    +0.292 HD
ENDBRANCH   5   8
BRANCH   7  10
ATOM     10  O   UNL     1       4.811   0.190  -0.261  0.00  0.00    -0.503 OA
ATOM     11  H   UNL     1       5.251  -0.532  -0.667  0.00  0.00    +0.292 HD
ENDBRANCH   7  10
ENDBRANCH   1   2
BRANCH   1  12
ATOM     12  O   UNL     1      -1.029   0.613   2.011  0.00  0.00    -0.382 OA
ATOM     13  H   UNL     1      -1.983   0.563   2.181  0.00  0.00    +0.211 HD
ENDBRANCH   1  12
BRANCH   1  14
ATOM     14  C   UNL     1      -1.580   0.481  -0.378  0.00  0.00    -0.030 C 
BRANCH  14  15
ATOM     15  N   UNL     1      -3.005   0.310  -0.067  0.00  0.00    +0.388 N 
ATOM     16  H   UNL     1      -3.562   0.608  -0.868  0.00  0.00    -0.084 HD
ATOM     17  H   UNL     1      -3.235   0.875   0.751  0.00  0.00    -0.084 HD
BRANCH  15  18
ATOM     18  C   UNL     1      -3.299  -1.082   0.227  0.00  0.00    -0.062 C 
ATOM     19  C   UNL     1      -2.962  -1.959  -0.976  0.00  0.00    -0.023 C 
ATOM     20  C   UNL     1      -4.768  -1.221   0.612  0.00  0.00    -0.023 C 
ENDBRANCH  15  18
ENDBRANCH  14  15
BRANCH  14  21
ATOM     21  C   UNL     1      -1.300   1.963  -0.696  0.00  0.00    -0.019 C 
ATOM     22  C   UNL     1      -2.164   2.508  -1.828  0.00  0.00    -0.002 C 
ENDBRANCH  14  21
ENDBRANCH   1  14
TORSDOF 8
