REMARK  Name = 2179
REMARK  5 active torsions:
REMARK  status: ('A' for Active; 'I' for Inactive)
REMARK    1  A    between atoms: N_1  and  C_4
REMARK    2  A    between atoms: N_1  and  C_17
REMARK    3  A    between atoms: C_18  and  O_23
REMARK    4  A    between atoms: C_19  and  N_25
REMARK    5  A    between atoms: N_25  and  S_27
REMARK                            x       y       z     vdW  Elec       q    Type
REMARK                         _______ _______ _______ _____ _____    ______ ____
ROOT
ATOM      1  N   UNL     1       0.582  -0.254   1.056  0.00  0.00    -0.313 N 
ATOM      2  H   UNL     1       0.634  -0.291   2.038  0.00  0.00    +0.152 HD
ENDROOT
BRANCH   1   4
ATOM      3  N   UNL     1       4.269   0.438  -0.813  0.00  0.00    -0.406 NA
ATOM      4  C   UNL     1       1.833  -0.019   0.422  0.00  0.00    +0.038 C 
ATOM      5  C   UNL     1       2.639  -1.102   0.057  0.00  0.00    +0.110 C 
ATOM      6  C   UNL     1       2.246   1.292   0.169  0.00  0.00    +0.040 C 
ATOM      7  C   UNL     1       3.866  -0.824  -0.567  0.00  0.00    +0.118 C 
ATOM      8  C   UNL     1       3.489   1.477  -0.460  0.00  0.00    +0.132 C 
ATOM      9  C   UNL     1       2.248  -2.431   0.300  0.00  0.00    -0.014 C 
ATOM     10  C   UNL     1       1.456   2.399   0.525  0.00  0.00    +0.003 C 
ATOM     11  C   UNL     1       4.674  -1.898  -0.932  0.00  0.00    +0.028 C 
ATOM     12  C   UNL     1       3.906   2.781  -0.714  0.00  0.00    +0.032 C 
ATOM     13  C   UNL     1       3.074  -3.487  -0.076  0.00  0.00    -0.004 C 
ATOM     14  C   UNL     1       1.895   3.692   0.259  0.00  0.00    +0.000 C 
ATOM     15  C   UNL     1       4.289  -3.219  -0.693  0.00  0.00    +0.002 C 
ATOM     16  C   UNL     1       3.123   3.883  -0.362  0.00  0.00    +0.003 C 
ENDBRANCH   1   4
BRANCH   1  17
ATOM     17  C   UNL     1      -0.711  -0.443   0.550  0.00  0.00    +0.083 C 
ATOM     18  C   UNL     1      -1.796  -0.662   1.407  0.00  0.00    +0.153 C 
ATOM     19  C   UNL     1      -3.284  -0.819  -0.490  0.00  0.00    +0.068 C 
ATOM     20  C   UNL     1      -0.927  -0.414  -0.833  0.00  0.00    +0.019 C 
ATOM     21  C   UNL     1      -3.078  -0.850   0.889  0.00  0.00    +0.054 C 
ATOM     22  C   UNL     1      -2.208  -0.602  -1.351  0.00  0.00    +0.017 C 
BRANCH  18  23
ATOM     23  O   UNL     1      -1.615  -0.697   2.758  0.00  0.00    -0.470 OA
ATOM     24  C   UNL     1      -1.734   0.539   3.459  0.00  0.00    +0.253 C 
ENDBRANCH  18  23
BRANCH  19  25
ATOM     25  N   UNL     1      -4.595  -1.012  -1.020  0.00  0.00    -0.219 N 
ATOM     26  H   UNL     1      -4.829  -1.837  -1.504  0.00  0.00    +0.173 HD
BRANCH  25  27
ATOM     27  S   UNL     1      -5.757   0.238  -0.790  0.00  0.00    +0.056 S 
ATOM     28  O   UNL     1      -7.061  -0.273  -1.170  0.00  0.00    -0.154 OA
ATOM     29  O   UNL     1      -5.566   0.895   0.488  0.00  0.00    -0.154 OA
ATOM     30  C   UNL     1      -5.256   1.372  -2.066  0.00  0.00    +0.200 C 
ENDBRANCH  25  27
ENDBRANCH  19  25
ENDBRANCH   1  17
TORSDOF 5
