REMARK  Name = 54477
REMARK  6 active torsions:
REMARK  status: ('A' for Active; 'I' for Inactive)
REMARK    1  A    between atoms: N_2  and  C_16
REMARK    2  A    between atoms: C_3  and  C_6
REMARK    3  A    between atoms: C_7  and  O_12
REMARK    4  A    between atoms: C_8  and  O_14
REMARK    5  A    between atoms: C_16  and  C_18
REMARK    6  A    between atoms: N_17  and  C_23
REMARK                            x       y       z     vdW  Elec       q    Type
REMARK                         _______ _______ _______ _____ _____    ______ ____
ROOT
ATOM      1  O   UNL     1       0.147  -1.139  -1.401  0.00  0.00    -0.270 OA
ATOM      2  N   UNL     1      -0.451  -0.646   0.786  0.00  0.00    -0.303 N 
ATOM      3  C   UNL     1       0.443  -0.739  -0.279  0.00  0.00    +0.252 C 
ATOM      4  H   UNL     1      -0.120  -0.313   1.651  0.00  0.00    +0.150 HD
ENDROOT
BRANCH   3   6
ATOM      5 BR   UNL     1       4.133   3.129  -0.151  0.00  0.00    -0.046 Br
ATOM      6  C   UNL     1       1.846  -0.342   0.004  0.00  0.00    +0.122 C 
ATOM      7  C   UNL     1       2.225   0.973  -0.183  0.00  0.00    +0.152 C 
ATOM      8  C   UNL     1       2.735  -1.303   0.447  0.00  0.00    +0.146 C 
ATOM      9  C   UNL     1       3.544   1.342   0.084  0.00  0.00    +0.069 C 
ATOM     10  C   UNL     1       4.054  -0.934   0.714  0.00  0.00    +0.038 C 
ATOM     11  C   UNL     1       4.458   0.389   0.532  0.00  0.00    +0.013 C 
BRANCH   7  12
ATOM     12  O   UNL     1       1.323   1.899  -0.622  0.00  0.00    -0.471 OA
ATOM     13  C   UNL     1       1.212   2.074  -2.032  0.00  0.00    +0.252 C 
ENDBRANCH   7  12
BRANCH   8  14
ATOM     14  O   UNL     1       2.362  -2.601   0.632  0.00  0.00    -0.471 OA
ATOM     15  C   UNL     1       2.501  -3.479  -0.483  0.00  0.00    +0.252 C 
ENDBRANCH   8  14
ENDBRANCH   3   6
BRANCH   2  16
ATOM     16  C   UNL     1      -1.831  -1.016   0.676  0.00  0.00    +0.069 C 
BRANCH  16  18
ATOM     17  N   UNL     1      -4.123  -0.128   0.215  0.00  0.00    +0.389 N 
ATOM     18  C   UNL     1      -2.685   0.170   0.246  0.00  0.00    -0.038 C 
ATOM     19  C   UNL     1      -2.601   1.323   1.249  0.00  0.00    -0.021 C 
ATOM     20  C   UNL     1      -3.978   1.979   1.225  0.00  0.00    -0.025 C 
ATOM     21  C   UNL     1      -4.780   1.182   0.210  0.00  0.00    -0.077 C 
ATOM     22  H   UNL     1      -4.391  -0.697   1.017  0.00  0.00    -0.080 HD
BRANCH  17  23
ATOM     23  C   UNL     1      -4.522  -0.929  -0.936  0.00  0.00    -0.077 C 
ATOM     24  C   UNL     1      -6.011  -1.205  -0.931  0.00  0.00    -0.025 C 
ENDBRANCH  17  23
ENDBRANCH  16  18
ENDBRANCH   2  16
TORSDOF 6
