REMARK  Name = 10100
REMARK  9 active torsions:
REMARK  status: ('A' for Active; 'I' for Inactive)
REMARK    1  A    between atoms: C_1  and  C_2
REMARK    2  A    between atoms: C_1  and  C_8
REMARK    3  A    between atoms: C_1  and  O_15
REMARK    4  A    between atoms: C_1  and  C_20
REMARK    5  A    between atoms: C_8  and  C_10
REMARK    6  A    between atoms: C_10  and  N_11
REMARK    7  A    between atoms: O_15  and  C_17
REMARK    8  A    between atoms: C_17  and  C_18
REMARK    9  A    between atoms: C_20  and  C_21
REMARK                            x       y       z     vdW  Elec       q    Type
REMARK                         _______ _______ _______ _____ _____    ______ ____
ROOT
ATOM      1  C   UNL     1       0.292   0.040   0.256  0.00  0.00    +0.156 C 
ENDROOT
BRANCH   1   2
ATOM      2  C   UNL     1       1.739   0.377   0.655  0.00  0.00    +0.014 C 
ATOM      3  C   UNL     1       2.688   0.443  -0.333  0.00  0.00    -0.001 C 
ATOM      4  C   UNL     1       2.014   0.595   1.982  0.00  0.00    -0.001 C 
ATOM      5  C   UNL     1       4.000   0.748   0.030  0.00  0.00    -0.000 C 
ATOM      6  C   UNL     1       3.325   0.900   2.345  0.00  0.00    -0.000 C 
ATOM      7  C   UNL     1       4.319   0.976   1.369  0.00  0.00    -0.000 C 
ENDBRANCH   1   2
BRANCH   1   8
ATOM      8  C   UNL     1       0.083  -1.528   0.191  0.00  0.00    +0.020 C 
ATOM      9  C   UNL     1       0.294  -2.215   1.555  0.00  0.00    +0.002 C 
BRANCH   8  10
ATOM     10  C   UNL     1       1.008  -2.178  -0.875  0.00  0.00    -0.074 C 
BRANCH  10  11
ATOM     11  N   UNL     1       0.718  -3.594  -1.093  0.00  0.00    +0.384 N 
ATOM     12  C   UNL     1       1.568  -4.133  -2.154  0.00  0.00    -0.101 C 
ATOM     13  C   UNL     1      -0.694  -3.782  -1.424  0.00  0.00    -0.101 C 
ATOM     14  H   UNL     1       0.918  -4.099  -0.230  0.00  0.00    -0.080 HD
ENDBRANCH  10  11
ENDBRANCH   8  10
ENDBRANCH   1   8
BRANCH   1  15
ATOM     15  O   UNL     1       0.019   0.552  -1.057  0.00  0.00    -0.451 OA
BRANCH  15  17
ATOM     16  O   UNL     1       0.471   2.690  -0.315  0.00  0.00    -0.250 OA
ATOM     17  C   UNL     1       0.149   1.903  -1.195  0.00  0.00    +0.317 C 
BRANCH  17  18
ATOM     18  C   UNL     1      -0.170   2.277  -2.624  0.00  0.00    +0.110 C 
ATOM     19  C   UNL     1      -0.066   3.774  -2.860  0.00  0.00    +0.012 C 
ENDBRANCH  17  18
ENDBRANCH  15  17
ENDBRANCH   1  15
BRANCH   1  20
ATOM     20  C   UNL     1      -0.708   0.717   1.247  0.00  0.00    +0.071 C 
BRANCH  20  21
ATOM     21  C   UNL     1      -2.177   0.467   0.969  0.00  0.00    -0.018 C 
ATOM     22  C   UNL     1      -2.862   1.337   0.141  0.00  0.00    -0.004 C 
ATOM     23  C   UNL     1      -2.795  -0.625   1.550  0.00  0.00    -0.004 C 
ATOM     24  C   UNL     1      -4.214   1.106  -0.115  0.00  0.00    -0.000 C 
ATOM     25  C   UNL     1      -4.147  -0.856   1.293  0.00  0.00    -0.000 C 
ATOM     26  C   UNL     1      -4.856   0.010   0.461  0.00  0.00    -0.000 C 
ENDBRANCH  20  21
ENDBRANCH   1  20
TORSDOF 9
