REMARK  Name = 6834
REMARK  5 active torsions:
REMARK  status: ('A' for Active; 'I' for Inactive)
REMARK    1  A    between atoms: C_1  and  C_3
REMARK    2  A    between atoms: C_1  and  C_10
REMARK    3  A    between atoms: C_1  and  C_15
REMARK    4  A    between atoms: C_15  and  C_16
REMARK    5  A    between atoms: C_16  and  N_17
REMARK                            x       y       z     vdW  Elec       q    Type
REMARK                         _______ _______ _______ _____ _____    ______ ____
ROOT
ATOM      1  C   UNL     1      -0.299   0.447  -0.059  0.00  0.00    +0.060 C 
ENDROOT
BRANCH   1   3
ATOM      2 BR   UNL     1       5.869   0.253  -0.153  0.00  0.00    -0.049 Br
ATOM      3  C   UNL     1       1.226   0.398  -0.082  0.00  0.00    -0.017 C 
ATOM      4  C   UNL     1       1.864   0.172  -1.283  0.00  0.00    -0.003 C 
ATOM      5  C   UNL     1       1.914   0.581   1.098  0.00  0.00    -0.003 C 
ATOM      6  C   UNL     1       3.258   0.128  -1.304  0.00  0.00    +0.006 C 
ATOM      7  C   UNL     1       3.308   0.537   1.076  0.00  0.00    +0.006 C 
ATOM      8  C   UNL     1       3.980   0.310  -0.124  0.00  0.00    +0.035 C 
ENDBRANCH   1   3
BRANCH   1  10
ATOM      9  N   UNL     1      -0.621  -1.682   1.050  0.00  0.00    -0.248 NA
ATOM     10  C   UNL     1      -0.895  -0.955  -0.040  0.00  0.00    +0.063 C 
ATOM     11  C   UNL     1      -1.648  -1.353  -1.114  0.00  0.00    +0.015 C 
ATOM     12  C   UNL     1      -2.179  -2.637  -1.066  0.00  0.00    +0.003 C 
ATOM     13  C   UNL     1      -1.153  -2.924   1.061  0.00  0.00    +0.098 C 
ATOM     14  C   UNL     1      -1.931  -3.445   0.039  0.00  0.00    +0.021 C 
ENDBRANCH   1  10
BRANCH   1  15
ATOM     15  C   UNL     1      -0.862   1.379   1.046  0.00  0.00    -0.012 C 
BRANCH  15  16
ATOM     16  C   UNL     1      -2.391   1.475   1.010  0.00  0.00    -0.077 C 
BRANCH  16  17
ATOM     17  N   UNL     1      -2.833   1.988  -0.283  0.00  0.00    +0.384 N 
ATOM     18  C   UNL     1      -2.312   3.337  -0.506  0.00  0.00    -0.101 C 
ATOM     19  C   UNL     1      -4.295   1.989  -0.364  0.00  0.00    -0.101 C 
ATOM     20  H   UNL     1      -2.469   1.375  -1.011  0.00  0.00    -0.080 HD
ENDBRANCH  16  17
ENDBRANCH  15  16
ENDBRANCH   1  15
TORSDOF 5
