REMARK  Name = 6306
REMARK  5 active torsions:
REMARK  status: ('A' for Active; 'I' for Inactive)
REMARK    1  A    between atoms: CA_1  and  N_2
REMARK    2  A    between atoms: CA_1  and  C_7
REMARK    3  A    between atoms: CA_1  and  CB_10
REMARK    4  A    between atoms: C_7  and  O_8
REMARK    5  A    between atoms: CB_10  and  CG1_12
REMARK                            x       y       z     vdW  Elec       q    Type
REMARK                         _______ _______ _______ _____ _____    ______ ____
ROOT
ATOM      1  CA  ILE A   1       0.560  -0.801  -0.293  0.00  0.00    +0.036 C 
ENDROOT
BRANCH   1   2
ATOM      2  N   ILE A   1       0.628  -1.611   0.926  0.00  0.00    +0.389 N 
ATOM      3  H1  ILE A   1      -0.047  -2.373   0.867  0.00  0.00    -0.088 HD
ATOM      4  H2  ILE A   1       0.412  -1.028   1.735  0.00  0.00    -0.088 HD
ATOM      5  H3  ILE A   1       1.568  -1.996   1.027  0.00  0.00    -0.088 HD
ENDBRANCH   1   2
BRANCH   1   7
ATOM      6  OXT ILE A   1       2.259   0.478   0.901  0.00  0.00    -0.253 OA
ATOM      7  C   ILE A   1       1.595   0.301  -0.112  0.00  0.00    +0.293 C 
BRANCH   7   8
ATOM      8  O   ILE A   1       1.732   1.071  -1.223  0.00  0.00    -0.482 OA
ATOM      9  H   ILE A   1       1.204   0.902  -1.978  0.00  0.00    +0.295 HD
ENDBRANCH   7   8
ENDBRANCH   1   7
BRANCH   1  10
ATOM     10  CB  ILE A   1      -0.850  -0.197  -0.511  0.00  0.00    -0.010 C 
ATOM     11  CG2 ILE A   1      -1.891  -1.295  -0.779  0.00  0.00    -0.002 C 
BRANCH  10  12
ATOM     12  CG1 ILE A   1      -1.328   0.716   0.642  0.00  0.00    -0.002 C 
ATOM     13  CD1 ILE A   1      -2.705   1.337   0.449  0.00  0.00    -0.000 C 
ENDBRANCH  10  12
ENDBRANCH   1  10
TORSDOF 5
