REMARK  Name = 2708
REMARK  10 active torsions:
REMARK  status: ('A' for Active; 'I' for Inactive)
REMARK    1  A    between atoms: C_1  and  N_7
REMARK    2  A    between atoms: C_2  and  C_14
REMARK    3  A    between atoms: N_7  and  C_8
REMARK    4  A    between atoms: N_7  and  C_11
REMARK    5  A    between atoms: C_8  and  C_10
REMARK    6  A    between atoms: C_11  and  C_13
REMARK    7  A    between atoms: C_14  and  C_15
REMARK    8  A    between atoms: C_15  and  C_16
REMARK    9  A    between atoms: C_16  and  C_18
REMARK   10  A    between atoms: C_18  and  O_19
REMARK                            x       y       z     vdW  Elec       q    Type
REMARK                         _______ _______ _______ _____ _____    ______ ____
ROOT
ATOM      1  C   UNL     1       1.398   0.001   0.365  0.00  0.00    +0.048 C 
ATOM      2  C   UNL     1      -1.169  -0.059   1.417  0.00  0.00    -0.022 C 
ATOM      3  C   UNL     1       0.888   1.120   1.024  0.00  0.00    +0.014 C 
ATOM      4  C   UNL     1       0.617  -1.148   0.236  0.00  0.00    +0.014 C 
ATOM      5  C   UNL     1      -0.403   1.090   1.553  0.00  0.00    -0.003 C 
ATOM      6  C   UNL     1      -0.673  -1.178   0.765  0.00  0.00    -0.003 C 
ENDROOT
BRANCH   1   7
ATOM      7  N   UNL     1       2.702   0.031  -0.170  0.00  0.00    -0.305 N 
BRANCH   7   8
ATOM      8  C   UNL     1       3.241  -1.126  -0.857  0.00  0.00    +0.108 C 
BRANCH   8  10
ATOM      9 CL   UNL     1       4.401  -3.594  -0.698  0.00  0.00    -0.112 Cl
ATOM     10  C   UNL     1       3.746  -2.162   0.134  0.00  0.00    +0.116 C 
ENDBRANCH   8  10
ENDBRANCH   7   8
BRANCH   7  11
ATOM     11  C   UNL     1       3.516   1.225  -0.053  0.00  0.00    +0.108 C 
BRANCH  11  13
ATOM     12 CL   UNL     1       4.120   3.728  -0.966  0.00  0.00    -0.112 Cl
ATOM     13  C   UNL     1       3.133   2.252  -1.107  0.00  0.00    +0.116 C 
ENDBRANCH  11  13
ENDBRANCH   7  11
ENDBRANCH   1   7
BRANCH   2  14
ATOM     14  C   UNL     1      -2.563  -0.091   1.989  0.00  0.00    +0.027 C 
BRANCH  14  15
ATOM     15  C   UNL     1      -3.659   0.377   1.021  0.00  0.00    +0.016 C 
BRANCH  15  16
ATOM     16  C   UNL     1      -3.777  -0.479  -0.244  0.00  0.00    +0.110 C 
BRANCH  16  18
ATOM     17  O   UNL     1      -5.603   0.939  -1.008  0.00  0.00    -0.250 OA
ATOM     18  C   UNL     1      -4.885  -0.037  -1.176  0.00  0.00    +0.314 C 
BRANCH  18  19
ATOM     19  O   UNL     1      -5.029  -0.888  -2.224  0.00  0.00    -0.480 OA
ATOM     20  H   UNL     1      -4.456  -1.624  -2.313  0.00  0.00    +0.295 HD
ENDBRANCH  18  19
ENDBRANCH  16  18
ENDBRANCH  15  16
ENDBRANCH  14  15
ENDBRANCH   2  14
TORSDOF 10
