REMARK  Name = 4114
REMARK  1 active torsions:
REMARK  status: ('A' for Active; 'I' for Inactive)
REMARK    1  A    between atoms: C_8  and  O_15
REMARK                            x       y       z     vdW  Elec       q    Type
REMARK                         _______ _______ _______ _____ _____    ______ ____
ROOT
ATOM      1  O   UNL     1       2.926  -0.684   0.185  0.00  0.00    -0.447 OA
ATOM      2  O   UNL     1      -1.907  -0.902   0.137  0.00  0.00    -0.418 OA
ATOM      3  O   UNL     1      -4.197  -0.899   0.104  0.00  0.00    -0.244 OA
ATOM      4  C   UNL     1       1.710   1.208  -0.034  0.00  0.00    +0.041 C 
ATOM      5  C   UNL     1       1.664  -0.176   0.112  0.00  0.00    +0.182 C 
ATOM      6  C   UNL     1      -0.711   1.210  -0.070  0.00  0.00    +0.038 C 
ATOM      7  C   UNL     1      -0.694  -0.177   0.078  0.00  0.00    +0.185 C 
ATOM      8  C   UNL     1       0.487  -0.918   0.174  0.00  0.00    +0.207 C 
ATOM      9  C   UNL     1       0.498   1.920  -0.128  0.00  0.00    +0.006 C 
ATOM     10  C   UNL     1       3.089   1.547  -0.050  0.00  0.00    +0.044 C 
ATOM     11  C   UNL     1      -1.994   1.888  -0.161  0.00  0.00    +0.010 C 
ATOM     12  C   UNL     1       3.781   0.367   0.086  0.00  0.00    +0.180 C 
ATOM     13  C   UNL     1      -3.133   1.193  -0.103  0.00  0.00    +0.082 C 
ATOM     14  C   UNL     1      -3.144  -0.273   0.052  0.00  0.00    +0.346 C 
ENDROOT
BRANCH   8  15
ATOM     15  O   UNL     1       0.486  -2.272   0.318  0.00  0.00    -0.465 OA
ATOM     16  C   UNL     1       1.137  -3.033  -0.699  0.00  0.00    +0.253 C 
ENDBRANCH   8  15
TORSDOF 1
