REMARK  Name = 71384
REMARK  3 active torsions:
REMARK  status: ('A' for Active; 'I' for Inactive)
REMARK    1  A    between atoms: C_1  and  N_5
REMARK    2  A    between atoms: C_1  and  C_13
REMARK    3  A    between atoms: C_13  and  N_16
REMARK                            x       y       z     vdW  Elec       q    Type
REMARK                         _______ _______ _______ _____ _____    ______ ____
ROOT
ATOM      1  C   UNL     1       0.478  -0.651   0.246  0.00  0.00    -0.078 C 
ATOM      2  C   UNL     1       0.286  -1.700   1.340  0.00  0.00    -0.025 C 
ENDROOT
BRANCH   1   5
ATOM      3  O   UNL     1       5.100  -1.536   0.698  0.00  0.00    -0.277 OA
ATOM      4  O   UNL     1       3.753   2.534  -0.972  0.00  0.00    -0.277 OA
ATOM      5  N   UNL     1       1.861  -0.173   0.294  0.00  0.00    +0.399 N 
ATOM      6  N   UNL     1       4.428   0.512  -0.105  0.00  0.00    -0.259 N 
ATOM      7  C   UNL     1       2.787  -1.293   0.125  0.00  0.00    +0.011 C 
ATOM      8  C   UNL     1       2.085   0.831  -0.746  0.00  0.00    +0.011 C 
ATOM      9  C   UNL     1       4.204  -0.797   0.292  0.00  0.00    +0.207 C 
ATOM     10  C   UNL     1       3.480   1.391  -0.606  0.00  0.00    +0.207 C 
ATOM     11  H   UNL     1       2.029   0.255   1.204  0.00  0.00    -0.078 HD
ATOM     12  H   UNL     1       5.349   0.850  -0.023  0.00  0.00    +0.157 HD
ENDBRANCH   1   5
BRANCH   1  13
ATOM     13  C   UNL     1      -0.465   0.553   0.395  0.00  0.00    -0.097 C 
BRANCH  13  16
ATOM     14  O   UNL     1      -3.949  -1.912  -1.638  0.00  0.00    -0.277 OA
ATOM     15  O   UNL     1      -5.015   1.509   1.248  0.00  0.00    -0.277 OA
ATOM     16  N   UNL     1      -1.874   0.161   0.339  0.00  0.00    +0.397 N 
ATOM     17  N   UNL     1      -4.484  -0.224  -0.169  0.00  0.00    -0.259 N 
ATOM     18  C   UNL     1      -2.174  -0.458  -0.952  0.00  0.00    +0.011 C 
ATOM     19  C   UNL     1      -2.730   1.327   0.553  0.00  0.00    +0.011 C 
ATOM     20  C   UNL     1      -3.600  -0.956  -0.947  0.00  0.00    +0.207 C 
ATOM     21  C   UNL     1      -4.173   0.883   0.605  0.00  0.00    +0.207 C 
ATOM     22  H   UNL     1      -2.056  -0.519   1.078  0.00  0.00    -0.078 HD
ATOM     23  H   UNL     1      -5.423  -0.520  -0.165  0.00  0.00    +0.157 HD
ENDBRANCH  13  16
ENDBRANCH   1  13
TORSDOF 3
