REMARK  Name = 6057
REMARK  6 active torsions:
REMARK  status: ('A' for Active; 'I' for Inactive)
REMARK    1  A    between atoms: CB_1  and  CG_2
REMARK    2  A    between atoms: CB_1  and  CA_10
REMARK    3  A    between atoms: CZ_7  and  OH_8
REMARK    4  A    between atoms: CA_10  and  N_11
REMARK    5  A    between atoms: CA_10  and  C_16
REMARK    6  A    between atoms: C_16  and  O_17
REMARK                            x       y       z     vdW  Elec       q    Type
REMARK                         _______ _______ _______ _____ _____    ______ ____
ROOT
ATOM      1  CB  TYR A   1      -1.049   1.021   0.763  0.00  0.00    +0.015 C 
ENDROOT
BRANCH   1   2
ATOM      2  CG  TYR A   1       0.362   0.577   0.453  0.00  0.00    -0.024 C 
ATOM      3  CD1 TYR A   1       0.780  -0.680   0.855  0.00  0.00    -0.001 C 
ATOM      4  CD2 TYR A   1       1.208   1.437  -0.228  0.00  0.00    -0.001 C 
ATOM      5  CE1 TYR A   1       2.083  -1.089   0.569  0.00  0.00    +0.036 C 
ATOM      6  CE2 TYR A   1       2.510   1.028  -0.514  0.00  0.00    +0.036 C 
ATOM      7  CZ  TYR A   1       2.948  -0.235  -0.116  0.00  0.00    +0.134 C 
BRANCH   7   8
ATOM      8  OH  TYR A   1       4.218  -0.635  -0.395  0.00  0.00    -0.506 OA
ATOM      9  HH  TYR A   1       4.512  -1.484  -0.127  0.00  0.00    +0.292 HD
ENDBRANCH   7   8
ENDBRANCH   1   2
BRANCH   1  10
ATOM     10  CA  TYR A   1      -2.048   0.655  -0.346  0.00  0.00    +0.040 C 
BRANCH  10  11
ATOM     11  N   TYR A   1      -3.239   1.495  -0.235  0.00  0.00    +0.389 N 
ATOM     12  H1  TYR A   1      -2.970   2.476  -0.302  0.00  0.00    -0.088 HD
ATOM     13  H2  TYR A   1      -3.691   1.327   0.664  0.00  0.00    -0.088 HD
ATOM     14  H3  TYR A   1      -3.887   1.267  -0.989  0.00  0.00    -0.088 HD
ENDBRANCH  10  11
BRANCH  10  16
ATOM     15  OXT TYR A   1      -3.480  -1.158   0.423  0.00  0.00    -0.253 OA
ATOM     16  C   TYR A   1      -2.520  -0.785  -0.238  0.00  0.00    +0.293 C 
BRANCH  16  17
ATOM     17  O   TYR A   1      -1.773  -1.631  -0.993  0.00  0.00    -0.482 OA
ATOM     18  H   TYR A   1      -1.045  -1.303  -1.484  0.00  0.00    +0.295 HD
ENDBRANCH  16  17
ENDBRANCH  10  16
ENDBRANCH   1  10
TORSDOF 6
