REMARK  Name = 2726
REMARK  4 active torsions:
REMARK  status: ('A' for Active; 'I' for Inactive)
REMARK    1  A    between atoms: N_3  and  C_16
REMARK    2  A    between atoms: C_16  and  C_17
REMARK    3  A    between atoms: C_17  and  C_18
REMARK    4  A    between atoms: C_18  and  N_19
REMARK                            x       y       z     vdW  Elec       q    Type
REMARK                         _______ _______ _______ _____ _____    ______ ____
ROOT
ATOM      1 CL   UNL     1      -5.053  -1.397  -0.955  0.00  0.00    -0.082 Cl
ATOM      2  S   UNL     1      -0.472   2.168   1.474  0.00  0.00    -0.084 S 
ATOM      3  N   UNL     1      -0.057  -0.075  -0.637  0.00  0.00    -0.286 N 
ATOM      4  C   UNL     1      -1.393   0.124  -0.206  0.00  0.00    +0.058 C 
ATOM      5  C   UNL     1       0.978   0.890  -0.554  0.00  0.00    +0.058 C 
ATOM      6  C   UNL     1      -1.712   1.126   0.731  0.00  0.00    +0.043 C 
ATOM      7  C   UNL     1       0.894   1.969   0.348  0.00  0.00    +0.043 C 
ATOM      8  C   UNL     1      -2.465  -0.641  -0.715  0.00  0.00    +0.027 C 
ATOM      9  C   UNL     1       2.116   0.840  -1.388  0.00  0.00    +0.015 C 
ATOM     10  C   UNL     1      -3.040   1.324   1.150  0.00  0.00    +0.009 C 
ATOM     11  C   UNL     1       1.920   2.928   0.421  0.00  0.00    +0.008 C 
ATOM     12  C   UNL     1      -3.784  -0.437  -0.299  0.00  0.00    +0.059 C 
ATOM     13  C   UNL     1       3.131   1.798  -1.316  0.00  0.00    +0.001 C 
ATOM     14  C   UNL     1      -4.071   0.545   0.637  0.00  0.00    +0.012 C 
ATOM     15  C   UNL     1       3.034   2.842  -0.408  0.00  0.00    +0.001 C 
ENDROOT
BRANCH   3  16
ATOM     16  C   UNL     1       0.261  -1.354  -1.285  0.00  0.00    +0.093 C 
BRANCH  16  17
ATOM     17  C   UNL     1       0.135  -2.509  -0.292  0.00  0.00    -0.001 C 
BRANCH  17  18
ATOM     18  C   UNL     1       1.018  -2.379   0.952  0.00  0.00    -0.076 C 
BRANCH  18  19
ATOM     19  N   UNL     1       2.431  -2.266   0.609  0.00  0.00    +0.384 N 
ATOM     20  C   UNL     1       2.894  -3.475  -0.073  0.00  0.00    -0.101 C 
ATOM     21  C   UNL     1       3.235  -2.020   1.807  0.00  0.00    -0.101 C 
ATOM     22  H   UNL     1       2.542  -1.474  -0.024  0.00  0.00    -0.080 HD
ENDBRANCH  18  19
ENDBRANCH  17  18
ENDBRANCH  16  17
ENDBRANCH   3  16
TORSDOF 4
