REMARK  Name = 20279
REMARK  4 active torsions:
REMARK  status: ('A' for Active; 'I' for Inactive)
REMARK    1  A    between atoms: N_2  and  C1*_12
REMARK    2  A    between atoms: C3*_13  and  O3*_16
REMARK    3  A    between atoms: C4*_15  and  C5*_18
REMARK    4  A    between atoms: C5*_18  and  O5*_19
REMARK                            x       y       z     vdW  Elec       q    Type
REMARK                         _______ _______ _______ _____ _____    ______ ____
ROOT
ATOM      1 CL   UNL     1       1.633   3.374   0.309  0.00  0.00    +0.024 Cl
ATOM      2  N   UNL     1       0.005  -1.346  -0.224  0.00  0.00    -0.238 N 
ATOM      3  N   UNL     1       2.019  -2.309  -0.187  0.00  0.00    -0.240 NA
ATOM      4  N   UNL     1       0.656   0.981   0.028  0.00  0.00    -0.314 NA
ATOM      5  N   UNL     1       3.079   1.213   0.199  0.00  0.00    -0.314 NA
ATOM      6  C   UNL     1       0.911  -0.332  -0.076  0.00  0.00    +0.221 C 
ATOM      7  C   UNL     1       0.722  -2.514  -0.285  0.00  0.00    +0.224 C 
ATOM      8  C   UNL     1       2.151  -0.950  -0.056  0.00  0.00    +0.167 C 
ATOM      9  C   UNL     1       3.262  -0.125   0.088  0.00  0.00    +0.212 C 
ATOM     10  C   UNL     1       1.807   1.676   0.163  0.00  0.00    +0.207 C 
ATOM     11  N   UNL     1       4.559  -0.665   0.118  0.00  0.00    -0.331 N 
ATOM     12  H   UNL     1       5.338  -0.071   0.220  0.00  0.00    +0.145 HD
ATOM     13  H   UNL     1       4.689  -1.638   0.037  0.00  0.00    +0.145 HD
ENDROOT
BRANCH   2  15
ATOM     14  O4* UNL     1      -1.800   0.006  -0.962  0.00  0.00    -0.335 OA
ATOM     15  C1* UNL     1      -1.446  -1.222  -0.301  0.00  0.00    +0.198 C 
ATOM     16  C3* UNL     1      -3.415  -0.453   0.729  0.00  0.00    +0.144 C 
ATOM     17  C2* UNL     1      -2.146  -1.209   1.050  0.00  0.00    +0.083 C 
ATOM     18  C4* UNL     1      -2.960   0.566  -0.311  0.00  0.00    +0.173 C 
BRANCH  16  19
ATOM     19  O3* UNL     1      -4.342  -1.360   0.135  0.00  0.00    -0.382 OA
ATOM     20  H3* UNL     1      -4.630  -2.007   0.798  0.00  0.00    +0.210 HD
ENDBRANCH  16  19
BRANCH  18  21
ATOM     21  C5* UNL     1      -2.556   1.897   0.309  0.00  0.00    +0.169 C 
BRANCH  21  22
ATOM     22  O5* UNL     1      -2.140   2.771  -0.726  0.00  0.00    -0.379 OA
ATOM     23  H5* UNL     1      -1.880   3.623  -0.343  0.00  0.00    +0.211 HD
ENDBRANCH  21  22
ENDBRANCH  18  21
ENDBRANCH   2  15
TORSDOF 4
