REMARK  Name = 6049
REMARK  15 active torsions:
REMARK  status: ('A' for Active; 'I' for Inactive)
REMARK    1  A    between atoms: C_1  and  N_2
REMARK    2  A    between atoms: C_1  and  C_14
REMARK    3  A    between atoms: N_2  and  C_4
REMARK    4  A    between atoms: N_2  and  C_9
REMARK    5  A    between atoms: C_4  and  C_6
REMARK    6  A    between atoms: C_6  and  O_7
REMARK    7  A    between atoms: C_9  and  C_11
REMARK    8  A    between atoms: C_11  and  O_12
REMARK    9  A    between atoms: C_14  and  N_15
REMARK   10  A    between atoms: N_15  and  C_17
REMARK   11  A    between atoms: N_15  and  C_22
REMARK   12  A    between atoms: C_17  and  C_19
REMARK   13  A    between atoms: C_19  and  O_20
REMARK   14  A    between atoms: C_22  and  C_24
REMARK   15  A    between atoms: C_24  and  O_25
REMARK                            x       y       z     vdW  Elec       q    Type
REMARK                         _______ _______ _______ _____ _____    ______ ____
ROOT
ATOM      1  C   UNL     1       0.456  -0.260   0.612  0.00  0.00    -0.099 C 
ENDROOT
BRANCH   1   2
ATOM      2  N   UNL     1       1.859  -0.255   0.199  0.00  0.00    +0.400 N 
ATOM      3  H   UNL     1       1.954   0.354  -0.614  0.00  0.00    -0.078 HD
BRANCH   2   4
ATOM      4  C   UNL     1       2.285  -1.602  -0.179  0.00  0.00    +0.035 C 
BRANCH   4   6
ATOM      5  O   UNL     1       3.673  -0.550  -1.845  0.00  0.00    -0.253 OA
ATOM      6  C   UNL     1       3.478  -1.492  -1.088  0.00  0.00    +0.293 C 
BRANCH   6   7
ATOM      7  O   UNL     1       4.301  -2.569  -1.014  0.00  0.00    -0.482 OA
ATOM      8  H   UNL     1       4.108  -3.266  -0.417  0.00  0.00    +0.295 HD
ENDBRANCH   6   7
ENDBRANCH   4   6
ENDBRANCH   2   4
BRANCH   2   9
ATOM      9  C   UNL     1       2.706   0.267   1.270  0.00  0.00    +0.035 C 
BRANCH   9  11
ATOM     10  O   UNL     1       2.355   2.447   0.302  0.00  0.00    -0.253 OA
ATOM     11  C   UNL     1       2.582   1.766   1.294  0.00  0.00    +0.293 C 
BRANCH  11  12
ATOM     12  O   UNL     1       2.789   2.295   2.527  0.00  0.00    -0.482 OA
ATOM     13  H   UNL     1       2.960   1.731   3.256  0.00  0.00    +0.295 HD
ENDBRANCH  11  12
ENDBRANCH   9  11
ENDBRANCH   2   9
ENDBRANCH   1   2
BRANCH   1  14
ATOM     14  C   UNL     1      -0.453  -0.229  -0.613  0.00  0.00    -0.099 C 
BRANCH  14  15
ATOM     15  N   UNL     1      -1.853  -0.252  -0.201  0.00  0.00    +0.400 N 
ATOM     16  H   UNL     1      -1.955   0.350   0.616  0.00  0.00    -0.078 HD
BRANCH  15  17
ATOM     17  C   UNL     1      -2.259  -1.609   0.166  0.00  0.00    +0.035 C 
BRANCH  17  19
ATOM     18  O   UNL     1      -3.658  -0.591   1.844  0.00  0.00    -0.253 OA
ATOM     19  C   UNL     1      -3.451  -1.524   1.079  0.00  0.00    +0.293 C 
BRANCH  19  20
ATOM     20  O   UNL     1      -4.259  -2.611   0.997  0.00  0.00    -0.482 OA
ATOM     21  H   UNL     1      -4.058  -3.300   0.394  0.00  0.00    +0.295 HD
ENDBRANCH  19  20
ENDBRANCH  17  19
ENDBRANCH  15  17
BRANCH  15  22
ATOM     22  C   UNL     1      -2.712   0.265  -1.268  0.00  0.00    +0.035 C 
BRANCH  22  24
ATOM     23  O   UNL     1      -2.393   2.443  -0.287  0.00  0.00    -0.253 OA
ATOM     24  C   UNL     1      -2.612   1.765  -1.282  0.00  0.00    +0.293 C 
BRANCH  24  25
ATOM     25  O   UNL     1      -2.831   2.298  -2.511  0.00  0.00    -0.482 OA
ATOM     26  H   UNL     1      -2.995   1.736  -3.243  0.00  0.00    +0.295 HD
ENDBRANCH  24  25
ENDBRANCH  22  24
ENDBRANCH  15  22
ENDBRANCH  14  15
ENDBRANCH   1  14
TORSDOF 15
