REMARK  Name = 28864
REMARK  3 active torsions:
REMARK  status: ('A' for Active; 'I' for Inactive)
REMARK    1  A    between atoms: C_6  and  N_21
REMARK    2  A    between atoms: N_22  and  C_25
REMARK    3  A    between atoms: N_22  and  C_27
REMARK                            x       y       z     vdW  Elec       q    Type
REMARK                         _______ _______ _______ _____ _____    ______ ____
ROOT
ATOM      1  N   UNL     1      -0.343  -2.145  -0.254  0.00  0.00    +0.391 N 
ATOM      2  N   UNL     1       5.051  -0.109   1.402  0.00  0.00    -0.312 N 
ATOM      3  C   UNL     1       1.021  -1.555  -0.350  0.00  0.00    -0.030 C 
ATOM      4  C   UNL     1       1.014  -0.059  -0.785  0.00  0.00    -0.044 C 
ATOM      5  C   UNL     1       1.790  -1.797   1.002  0.00  0.00    +0.011 C 
ATOM      6  C   UNL     1      -1.389  -0.216  -1.405  0.00  0.00    +0.074 C 
ATOM      7  C   UNL     1      -1.184  -1.735  -1.391  0.00  0.00    -0.052 C 
ATOM      8  C   UNL     1       3.052  -1.013   1.044  0.00  0.00    -0.008 C 
ATOM      9  C   UNL     1       2.284   0.693  -0.673  0.00  0.00    -0.005 C 
ATOM     10  C   UNL     1       3.192   0.134   0.235  0.00  0.00    +0.010 C 
ATOM     11  C   UNL     1      -0.107   0.536  -1.230  0.00  0.00    -0.015 C 
ATOM     12  C   UNL     1       4.437   0.695   0.466  0.00  0.00    +0.048 C 
ATOM     13  C   UNL     1      -0.310  -3.610  -0.179  0.00  0.00    -0.100 C 
ATOM     14  C   UNL     1       4.218  -1.146   1.761  0.00  0.00    +0.058 C 
ATOM     15  C   UNL     1       2.684   1.854  -1.345  0.00  0.00    -0.000 C 
ATOM     16  C   UNL     1       4.852   1.851  -0.196  0.00  0.00    +0.015 C 
ATOM     17  C   UNL     1       3.946   2.418  -1.107  0.00  0.00    +0.001 C 
ATOM     18  H   UNL     1      -0.748  -1.789   0.612  0.00  0.00    -0.079 HD
ATOM     19  H   UNL     1       5.956   0.037   1.762  0.00  0.00    +0.152 HD
ENDROOT
BRANCH   6  21
ATOM     20  O   UNL     1      -4.197  -0.033  -1.650  0.00  0.00    -0.253 OA
ATOM     21  N   UNL     1      -2.301   0.209  -0.371  0.00  0.00    -0.289 N 
ATOM     22  N   UNL     1      -4.420   0.718   0.538  0.00  0.00    -0.264 N 
ATOM     23  C   UNL     1      -3.679   0.272  -0.572  0.00  0.00    +0.304 C 
ATOM     24  H   UNL     1      -1.937   0.464   0.507  0.00  0.00    +0.151 HD
BRANCH  22  25
ATOM     25  C   UNL     1      -5.870   0.853   0.496  0.00  0.00    +0.095 C 
ATOM     26  C   UNL     1      -6.554  -0.434   0.926  0.00  0.00    +0.023 C 
ENDBRANCH  22  25
BRANCH  22  27
ATOM     27  C   UNL     1      -3.783   1.074   1.804  0.00  0.00    +0.095 C 
ATOM     28  C   UNL     1      -3.406   2.545   1.834  0.00  0.00    +0.023 C 
ENDBRANCH  22  27
ENDBRANCH   6  21
TORSDOF 3
