REMARK  Name = 3033
REMARK  5 active torsions:
REMARK  status: ('A' for Active; 'I' for Inactive)
REMARK    1  A    between atoms: C_1  and  C_17
REMARK    2  A    between atoms: C_2  and  N_7
REMARK    3  A    between atoms: N_7  and  C_11
REMARK    4  A    between atoms: C_17  and  C_19
REMARK    5  A    between atoms: C_19  and  O_20
REMARK                            x       y       z     vdW  Elec       q    Type
REMARK                         _______ _______ _______ _____ _____    ______ ____
ROOT
ATOM      1  C   UNL     1      -2.064   0.514  -0.377  0.00  0.00    +0.002 C 
ATOM      2  C   UNL     1      -0.731   0.718  -0.019  0.00  0.00    +0.045 C 
ATOM      3  C   UNL     1      -3.038   1.435   0.008  0.00  0.00    -0.002 C 
ATOM      4  C   UNL     1      -0.373   1.843   0.723  0.00  0.00    +0.014 C 
ATOM      5  C   UNL     1      -2.680   2.560   0.751  0.00  0.00    -0.000 C 
ATOM      6  C   UNL     1      -1.347   2.764   1.108  0.00  0.00    +0.001 C 
ENDROOT
BRANCH   2   7
ATOM      7  N   UNL     1       0.268  -0.205  -0.399  0.00  0.00    -0.311 N 
ATOM      8  H   UNL     1      -0.075  -0.968  -0.919  0.00  0.00    +0.152 HD
BRANCH   7  11
ATOM      9 CL   UNL     1       1.954   1.150  -2.508  0.00  0.00    -0.081 Cl
ATOM     10 CL   UNL     1       1.138  -1.639   2.114  0.00  0.00    -0.081 Cl
ATOM     11  C   UNL     1       1.657  -0.248  -0.179  0.00  0.00    +0.070 C 
ATOM     12  C   UNL     1       2.535   0.348  -1.092  0.00  0.00    +0.072 C 
ATOM     13  C   UNL     1       2.174  -0.886   0.953  0.00  0.00    +0.072 C 
ATOM     14  C   UNL     1       3.912   0.306  -0.874  0.00  0.00    +0.013 C 
ATOM     15  C   UNL     1       3.551  -0.928   1.171  0.00  0.00    +0.013 C 
ATOM     16  C   UNL     1       4.420  -0.332   0.258  0.00  0.00    +0.002 C 
ENDBRANCH   7  11
ENDBRANCH   2   7
BRANCH   1  17
ATOM     17  C   UNL     1      -2.476  -0.683  -1.170  0.00  0.00    +0.137 C 
BRANCH  17  19
ATOM     18  O   UNL     1      -2.791  -1.911   0.909  0.00  0.00    -0.250 OA
ATOM     19  C   UNL     1      -2.848  -1.875  -0.312  0.00  0.00    +0.318 C 
BRANCH  19  20
ATOM     20  O   UNL     1      -3.262  -2.928  -1.065  0.00  0.00    -0.480 OA
ATOM     21  H   UNL     1      -3.290  -2.855  -1.998  0.00  0.00    +0.295 HD
ENDBRANCH  19  20
ENDBRANCH  17  19
ENDBRANCH   1  17
TORSDOF 5
