REMARK  Name = 3435
REMARK  4 active torsions:
REMARK  status: ('A' for Active; 'I' for Inactive)
REMARK    1  A    between atoms: C_2  and  C_10
REMARK    2  A    between atoms: C_4  and  N_8
REMARK    3  A    between atoms: N_9  and  C_10
REMARK    4  A    between atoms: N_9  and  N_13
REMARK                            x       y       z     vdW  Elec       q    Type
REMARK                         _______ _______ _______ _____ _____    ______ ____
ROOT
ATOM      1  O   UNL     1       1.933  -0.535   0.090  0.00  0.00    -0.436 OA
ATOM      2  C   UNL     1       0.940   0.347  -0.121  0.00  0.00    +0.144 C 
ATOM      3  C   UNL     1       1.397   1.601  -0.359  0.00  0.00    +0.040 C 
ATOM      4  C   UNL     1       3.083   0.181  -0.016  0.00  0.00    +0.289 C 
ATOM      5  C   UNL     1       2.807   1.500  -0.291  0.00  0.00    +0.066 C 
ENDROOT
BRANCH   4   8
ATOM      6  O   UNL     1       5.379   0.045   0.087  0.00  0.00    -0.123 OA
ATOM      7  O   UNL     1       4.203  -1.783   0.418  0.00  0.00    -0.123 OA
ATOM      8  N   UNL     1       4.262  -0.544   0.169  0.00  0.00    +0.093 N 
ENDBRANCH   4   8
BRANCH   2   9
ATOM      9  C   UNL     1      -0.418  -0.169  -0.063  0.00  0.00    +0.176 C 
BRANCH   9  10
ATOM     10  N   UNL     1      -1.448   0.591  -0.250  0.00  0.00    -0.117 NA
BRANCH  10  13
ATOM     11  O   UNL     1      -4.771  -0.390   0.291  0.00  0.00    -0.432 OA
ATOM     12  O   UNL     1      -3.932   1.718   0.596  0.00  0.00    -0.225 OA
ATOM     13  N   UNL     1      -2.617  -0.056  -0.159  0.00  0.00    -0.169 N 
ATOM     14  C   UNL     1      -2.773  -1.455  -0.348  0.00  0.00    +0.164 C 
ATOM     15  C   UNL     1      -4.277  -1.602  -0.313  0.00  0.00    +0.233 C 
ATOM     16  C   UNL     1      -3.770   0.551   0.268  0.00  0.00    +0.420 C 
ENDBRANCH  10  13
ENDBRANCH   9  10
ENDBRANCH   2   9
TORSDOF 4
