REMARK  Name = 2022
REMARK  5 active torsions:
REMARK  status: ('A' for Active; 'I' for Inactive)
REMARK    1  A    between atoms: N_2  and  C_15
REMARK    2  A    between atoms: C_15  and  O_16
REMARK    3  A    between atoms: O_16  and  C_17
REMARK    4  A    between atoms: C_17  and  C_18
REMARK    5  A    between atoms: C_18  and  O_19
REMARK                            x       y       z     vdW  Elec       q    Type
REMARK                         _______ _______ _______ _____ _____    ______ ____
ROOT
ATOM      1  O   UNL     1      -3.800   0.936  -0.981  0.00  0.00    -0.208 OA
ATOM      2  N   UNL     1       0.433   0.997   0.603  0.00  0.00    -0.206 NA
ATOM      3  N   UNL     1      -0.695  -1.158   0.586  0.00  0.00    -0.279 N 
ATOM      4  N   UNL     1      -1.243   2.215  -0.260  0.00  0.00    -0.241 NA
ATOM      5  N   UNL     1      -2.937  -1.095  -0.272  0.00  0.00    -0.301 NA
ATOM      6  N   UNL     1      -1.947  -3.098   0.481  0.00  0.00    -0.320 N 
ATOM      7  C   UNL     1      -0.602   0.157   0.371  0.00  0.00    +0.191 C 
ATOM      8  C   UNL     1      -1.616   0.904  -0.153  0.00  0.00    +0.183 C 
ATOM      9  C   UNL     1      -0.004   2.240   0.203  0.00  0.00    +0.205 C 
ATOM     10  C   UNL     1      -2.876   0.284  -0.510  0.00  0.00    +0.224 C 
ATOM     11  C   UNL     1      -1.909  -1.747   0.240  0.00  0.00    +0.245 C 
ATOM     12  H   UNL     1       0.050  -1.679   0.966  0.00  0.00    +0.152 HD
ATOM     13  H   UNL     1      -1.162  -3.552   0.863  0.00  0.00    +0.146 HD
ATOM     14  H   UNL     1      -2.760  -3.612   0.271  0.00  0.00    +0.146 HD
ENDROOT
BRANCH   2  15
ATOM     15  C   UNL     1       1.730   0.682   1.150  0.00  0.00    +0.223 C 
BRANCH  15  16
ATOM     16  O   UNL     1       2.584   0.352   0.064  0.00  0.00    -0.335 OA
BRANCH  16  17
ATOM     17  C   UNL     1       3.900   0.053   0.509  0.00  0.00    +0.176 C 
BRANCH  17  18
ATOM     18  C   UNL     1       4.762  -0.290  -0.690  0.00  0.00    +0.169 C 
BRANCH  18  19
ATOM     19  O   UNL     1       4.219  -1.432  -1.341  0.00  0.00    -0.379 OA
ATOM     20  H   UNL     1       4.766  -1.657  -2.109  0.00  0.00    +0.211 HD
ENDBRANCH  18  19
ENDBRANCH  17  18
ENDBRANCH  16  17
ENDBRANCH  15  16
ENDBRANCH   2  15
TORSDOF 5
