REMARK  Name = 4842
REMARK  4 active torsions:
REMARK  status: ('A' for Active; 'I' for Inactive)
REMARK    1  A    between atoms: C_9  and  C_11
REMARK    2  A    between atoms: C_10  and  C_14
REMARK    3  A    between atoms: C_11  and  C_13
REMARK    4  A    between atoms: C_14  and  C_16
REMARK                            x       y       z     vdW  Elec       q    Type
REMARK                         _______ _______ _______ _____ _____    ______ ____
ROOT
ATOM      1  O   UNL     1       3.019   1.922  -0.053  0.00  0.00    -0.275 OA
ATOM      2  O   UNL     1      -3.010  -1.913   0.127  0.00  0.00    -0.275 OA
ATOM      3  N   UNL     1       1.333   0.368   0.316  0.00  0.00    -0.276 N 
ATOM      4  N   UNL     1      -1.332  -0.367  -0.307  0.00  0.00    -0.276 N 
ATOM      5  C   UNL     1       0.274   1.380   0.357  0.00  0.00    +0.115 C 
ATOM      6  C   UNL     1       0.878  -1.003   0.583  0.00  0.00    +0.115 C 
ATOM      7  C   UNL     1      -0.876   1.004  -0.574  0.00  0.00    +0.115 C 
ATOM      8  C   UNL     1      -0.272  -1.379  -0.348  0.00  0.00    +0.115 C 
ATOM      9  C   UNL     1       2.655   0.754   0.107  0.00  0.00    +0.227 C 
ATOM     10  C   UNL     1      -2.654  -0.753  -0.096  0.00  0.00    +0.227 C 
ENDROOT
BRANCH   9  11
ATOM     11  C   UNL     1       3.683  -0.349   0.075  0.00  0.00    +0.097 C 
BRANCH  11  13
ATOM     12 BR   UNL     1       6.411  -1.188  -0.111  0.00  0.00    -0.080 Br
ATOM     13  C   UNL     1       5.063   0.219  -0.159  0.00  0.00    +0.077 C 
ENDBRANCH  11  13
ENDBRANCH   9  11
BRANCH  10  14
ATOM     14  C   UNL     1      -3.692   0.340  -0.146  0.00  0.00    +0.097 C 
BRANCH  14  16
ATOM     15 BR   UNL     1      -6.409   1.191   0.128  0.00  0.00    -0.080 Br
ATOM     16  C   UNL     1      -5.070  -0.226   0.100  0.00  0.00    +0.077 C 
ENDBRANCH  14  16
ENDBRANCH  10  14
TORSDOF 4
