REMARK  Name = 208902
REMARK  4 active torsions:
REMARK  status: ('A' for Active; 'I' for Inactive)
REMARK    1  A    between atoms: C_2  and  C_13
REMARK    2  A    between atoms: C_13  and  C_14
REMARK    3  A    between atoms: C_14  and  N_16
REMARK    4  A    between atoms: C_17  and  C_19
REMARK                            x       y       z     vdW  Elec       q    Type
REMARK                         _______ _______ _______ _____ _____    ______ ____
ROOT
ATOM      1  O   UNL     1       3.442  -2.353  -0.082  0.00  0.00    -0.475 OA
ATOM      2  C   UNL     1      -0.107   1.063  -0.111  0.00  0.00    +0.024 C 
ATOM      3  C   UNL     1       1.280   0.505   0.031  0.00  0.00    -0.027 C 
ATOM      4  C   UNL     1       0.198   2.573  -0.227  0.00  0.00    +0.009 C 
ATOM      5  C   UNL     1       1.475   2.825   0.585  0.00  0.00    +0.026 C 
ATOM      6  C   UNL     1       2.179   1.514   0.422  0.00  0.00    -0.026 C 
ATOM      7  C   UNL     1       1.751  -0.779  -0.109  0.00  0.00    +0.011 C 
ATOM      8  C   UNL     1       1.081  -2.029  -0.523  0.00  0.00    +0.076 C 
ATOM      9  C   UNL     1       3.101  -1.036   0.109  0.00  0.00    +0.134 C 
ATOM     10  C   UNL     1       3.530   1.254   0.649  0.00  0.00    -0.001 C 
ATOM     11  C   UNL     1       2.167  -3.032  -0.138  0.00  0.00    +0.210 C 
ATOM     12  C   UNL     1       4.005  -0.047   0.476  0.00  0.00    +0.036 C 
ENDROOT
BRANCH   2  13
ATOM     13  C   UNL     1      -0.907   0.564  -1.304  0.00  0.00    +0.026 C 
BRANCH  13  14
ATOM     14  C   UNL     1      -2.296   1.188  -1.387  0.00  0.00    +0.090 C 
BRANCH  14  16
ATOM     15  O   UNL     1      -4.017  -1.092  -0.923  0.00  0.00    -0.275 OA
ATOM     16  N   UNL     1      -3.069   0.885  -0.163  0.00  0.00    -0.304 N 
ATOM     17  C   UNL     1      -3.854  -0.232  -0.061  0.00  0.00    +0.222 C 
ATOM     18  H   UNL     1      -3.018   1.505   0.600  0.00  0.00    +0.149 HD
BRANCH  17  19
ATOM     19  C   UNL     1      -4.523  -0.284   1.300  0.00  0.00    +0.085 C 
ATOM     20  C   UNL     1      -5.435  -1.487   1.457  0.00  0.00    +0.010 C 
ENDBRANCH  17  19
ENDBRANCH  14  16
ENDBRANCH  13  14
ENDBRANCH   2  13
TORSDOF 4
