REMARK  Name = 5324346
REMARK  11 active torsions:
REMARK  status: ('A' for Active; 'I' for Inactive)
REMARK    1  A    between atoms: N_1  and  O_13
REMARK    2  A    between atoms: C_2  and  C_3
REMARK    3  A    between atoms: C_2  and  C_20
REMARK    4  A    between atoms: C_6  and  C_12
REMARK    5  A    between atoms: O_13  and  C_14
REMARK    6  A    between atoms: C_14  and  C_15
REMARK    7  A    between atoms: C_15  and  N_16
REMARK    8  A    between atoms: C_20  and  C_21
REMARK    9  A    between atoms: C_21  and  C_22
REMARK   10  A    between atoms: C_22  and  C_23
REMARK   11  A    between atoms: C_23  and  O_24
REMARK                            x       y       z     vdW  Elec       q    Type
REMARK                         _______ _______ _______ _____ _____    ______ ____
ROOT
ATOM      1  N   UNL     1       0.975   1.962  -0.026  0.00  0.00    -0.088 NA
ATOM      2  C   UNL     1       0.560   0.802   0.394  0.00  0.00    +0.097 C 
ENDROOT
BRANCH   2   3
ATOM      3  C   UNL     1      -0.892   0.474   0.243  0.00  0.00    +0.017 C 
ATOM      4  C   UNL     1      -1.845   1.492   0.275  0.00  0.00    +0.001 C 
ATOM      5  C   UNL     1      -1.294  -0.851   0.069  0.00  0.00    +0.001 C 
ATOM      6  C   UNL     1      -3.599  -0.139  -0.040  0.00  0.00    +0.071 C 
ATOM      7  C   UNL     1      -3.198   1.186   0.134  0.00  0.00    +0.004 C 
ATOM      8  C   UNL     1      -2.647  -1.157  -0.072  0.00  0.00    +0.004 C 
BRANCH   6  12
ATOM      9  F   UNL     1      -5.292  -1.800  -0.351  0.00  0.00    -0.166 F 
ATOM     10  F   UNL     1      -5.806  -0.092   0.882  0.00  0.00    -0.166 F 
ATOM     11  F   UNL     1      -5.614   0.143  -1.271  0.00  0.00    -0.166 F 
ATOM     12  C   UNL     1      -5.046  -0.466  -0.190  0.00  0.00    +0.419 C 
ENDBRANCH   6  12
ENDBRANCH   2   3
BRANCH   1  13
ATOM     13  O   UNL     1       2.347   2.136   0.185  0.00  0.00    -0.380 OA
BRANCH  13  14
ATOM     14  C   UNL     1       2.709   3.420  -0.300  0.00  0.00    +0.215 C 
BRANCH  14  15
ATOM     15  C   UNL     1       4.199   3.624  -0.077  0.00  0.00    -0.035 C 
BRANCH  15  16
ATOM     16  N   UNL     1       4.619   4.925  -0.577  0.00  0.00    +0.383 N 
ATOM     17  H   UNL     1       5.620   5.042  -0.418  0.00  0.00    -0.089 HD
ATOM     18  H   UNL     1       4.109   5.659  -0.086  0.00  0.00    -0.089 HD
ATOM     19  H   UNL     1       4.424   4.984  -1.576  0.00  0.00    -0.089 HD
ENDBRANCH  15  16
ENDBRANCH  14  15
ENDBRANCH  13  14
ENDBRANCH   1  13
BRANCH   2  20
ATOM     20  C   UNL     1       1.482  -0.235   1.034  0.00  0.00    +0.049 C 
BRANCH  20  21
ATOM     21  C   UNL     1       2.134  -1.124  -0.025  0.00  0.00    +0.009 C 
BRANCH  21  22
ATOM     22  C   UNL     1       3.025  -2.186   0.615  0.00  0.00    +0.032 C 
BRANCH  22  23
ATOM     23  C   UNL     1       3.645  -3.103  -0.430  0.00  0.00    +0.142 C 
BRANCH  23  24
ATOM     24  O   UNL     1       4.471  -4.054   0.227  0.00  0.00    -0.351 OA
ATOM     25  C   UNL     1       5.067  -4.955  -0.698  0.00  0.00    +0.174 C 
ENDBRANCH  23  24
ENDBRANCH  22  23
ENDBRANCH  21  22
ENDBRANCH  20  21
ENDBRANCH   2  20
TORSDOF 11
