REMARK  Name = 2723601
REMARK  0 active torsions:
REMARK  status: ('A' for Active; 'I' for Inactive)
REMARK                            x       y       z     vdW  Elec       q    Type
REMARK                         _______ _______ _______ _____ _____    ______ ____
ROOT
ATOM      1  S   UNL     1      -0.138   3.029   0.000  0.00  0.00    +0.025 S 
ATOM      2  N   UNL     1      -0.693  -1.451  -0.001  0.00  0.00    -0.263 N 
ATOM      3  N   UNL     1       2.051   0.635   0.001  0.00  0.00    -0.307 N 
ATOM      4  N   UNL     1       1.727  -1.575   0.000  0.00  0.00    -0.303 N 
ATOM      5  N   UNL     1      -1.659   0.767   0.000  0.00  0.00    -0.330 NA
ATOM      6  N   UNL     1      -2.977  -1.172   0.001  0.00  0.00    -0.320 N 
ATOM      7  C   UNL     1       0.693   0.457   0.000  0.00  0.00    +0.138 C 
ATOM      8  C   UNL     1       0.538  -0.909  -0.001  0.00  0.00    +0.124 C 
ATOM      9  C   UNL     1      -0.413   1.378   0.000  0.00  0.00    +0.059 C 
ATOM     10  C   UNL     1      -1.753  -0.547   0.000  0.00  0.00    +0.246 C 
ATOM     11  C   UNL     1       2.625  -0.612   0.001  0.00  0.00    +0.183 C 
ATOM     12  H   UNL     1      -0.836  -2.425  -0.002  0.00  0.00    +0.157 HD
ATOM     13  H   UNL     1       2.527   1.497   0.001  0.00  0.00    +0.149 HD
ATOM     14  H   UNL     1       1.879  -2.547   0.000  0.00  0.00    +0.150 HD
ATOM     15  H   UNL     1      -3.028  -2.155   0.001  0.00  0.00    +0.146 HD
ATOM     16  H   UNL     1      -3.803  -0.636   0.002  0.00  0.00    +0.146 HD
ENDROOT
TORSDOF 0
