33624
  -OEChem-10051719133D

 45 46  0     1  0  0  0  0  0999 V2000
    2.5419   -3.1441   -1.1465 S   0  0  0  0  0  0  0  0  0  0  0  0
    2.7129    3.2229    0.3632 O   0  0  0  0  0  0  0  0  0  0  0  0
    0.1405   -1.0084    0.6462 O   0  0  0  0  0  0  0  0  0  0  0  0
   -1.3506   -0.5842    2.9905 O   0  0  0  0  0  0  0  0  0  0  0  0
   -3.2635   -0.4536   -0.1728 N   0  0  0  0  0  0  0  0  0  0  0  0
    2.4544    0.5088   -0.3330 N   0  0  0  0  0  0  0  0  0  0  0  0
    3.2006   -1.6016   -1.1928 N   0  0  0  0  0  0  0  0  0  0  0  0
    1.1295   -2.8432   -0.2921 N   0  0  0  0  0  0  0  0  0  0  0  0
   -3.8380    0.6731   -0.9155 C   0  0  0  0  0  0  0  0  0  0  0  0
   -2.5709    0.0174    1.0146 C   0  0  0  0  0  0  0  0  0  0  0  0
   -1.9536   -1.1321    1.8146 C   0  0  1  0  0  0  0  0  0  0  0  0
    1.3762    1.4568   -0.6369 C   0  0  0  0  0  0  0  0  0  0  0  0
    3.7813    1.1281   -0.2147 C   0  0  0  0  0  0  0  0  0  0  0  0
   -2.7152    1.6249   -1.3448 C   0  0  0  0  0  0  0  0  0  0  0  0
   -4.8285    1.4045   -0.0034 C   0  0  0  0  0  0  0  0  0  0  0  0
   -4.5644    0.1256   -2.1486 C   0  0  0  0  0  0  0  0  0  0  0  0
    1.4215    2.6133    0.3572 C   0  0  0  0  0  0  0  0  0  0  0  0
    3.7135    2.2881    0.7703 C   0  0  0  0  0  0  0  0  0  0  0  0
   -0.8926   -1.9077    1.0368 C   0  0  0  0  0  0  0  0  0  0  0  0
    2.3157   -0.8457   -0.5389 C   0  0  0  0  0  0  0  0  0  0  0  0
    1.1892   -1.5428   -0.0535 C   0  0  0  0  0  0  0  0  0  0  0  0
   -2.6164   -0.9584   -0.7770 H   0  0  0  0  0  0  0  0  0  0  0  0
   -1.7685    0.7289    0.7971 H   0  0  0  0  0  0  0  0  0  0  0  0
   -3.2517    0.5231    1.7073 H   0  0  0  0  0  0  0  0  0  0  0  0
   -2.7350   -1.8283    2.1425 H   0  0  0  0  0  0  0  0  0  0  0  0
    1.5413    1.8426   -1.6509 H   0  0  0  0  0  0  0  0  0  0  0  0
    0.3815    1.0057   -0.6288 H   0  0  0  0  0  0  0  0  0  0  0  0
    4.0908    1.4887   -1.2030 H   0  0  0  0  0  0  0  0  0  0  0  0
    4.5294    0.4071    0.1351 H   0  0  0  0  0  0  0  0  0  0  0  0
   -1.8942    1.0883   -1.8347 H   0  0  0  0  0  0  0  0  0  0  0  0
   -3.0961    2.3513   -2.0736 H   0  0  0  0  0  0  0  0  0  0  0  0
   -2.3018    2.2188   -0.5232 H   0  0  0  0  0  0  0  0  0  0  0  0
   -4.3472    2.0142    0.7686 H   0  0  0  0  0  0  0  0  0  0  0  0
   -5.5238    0.7095    0.4826 H   0  0  0  0  0  0  0  0  0  0  0  0
   -5.4393    2.1005   -0.5922 H   0  0  0  0  0  0  0  0  0  0  0  0
   -5.3636   -0.5692   -1.8649 H   0  0  0  0  0  0  0  0  0  0  0  0
   -5.0215    0.9340   -2.7307 H   0  0  0  0  0  0  0  0  0  0  0  0
   -3.8764   -0.4104   -2.8130 H   0  0  0  0  0  0  0  0  0  0  0  0
    0.6915    3.3777    0.0728 H   0  0  0  0  0  0  0  0  0  0  0  0
    1.1730    2.2765    1.3710 H   0  0  0  0  0  0  0  0  0  0  0  0
    3.4942    1.9400    1.7869 H   0  0  0  0  0  0  0  0  0  0  0  0
    4.6732    2.8137    0.7971 H   0  0  0  0  0  0  0  0  0  0  0  0
   -0.4690   -2.6689    1.7052 H   0  0  0  0  0  0  0  0  0  0  0  0
   -1.3371   -2.4005    0.1645 H   0  0  0  0  0  0  0  0  0  0  0  0
   -2.0523   -0.1526    3.5070 H   0  0  0  0  0  0  0  0  0  0  0  0
  1  7  1  0  0  0  0
  1  8  1  0  0  0  0
  2 17  1  0  0  0  0
  2 18  1  0  0  0  0
  3 19  1  0  0  0  0
  3 21  1  0  0  0  0
  4 11  1  0  0  0  0
  4 45  1  0  0  0  0
  5  9  1  0  0  0  0
  5 10  1  0  0  0  0
  5 22  1  0  0  0  0
  6 12  1  0  0  0  0
  6 13  1  0  0  0  0
  6 20  1  0  0  0  0
  7 20  2  0  0  0  0
  8 21  2  0  0  0  0
  9 14  1  0  0  0  0
  9 15  1  0  0  0  0
  9 16  1  0  0  0  0
 10 11  1  0  0  0  0
 10 23  1  0  0  0  0
 10 24  1  0  0  0  0
 11 19  1  0  0  0  0
 11 25  1  0  0  0  0
 12 17  1  0  0  0  0
 12 26  1  0  0  0  0
 12 27  1  0  0  0  0
 13 18  1  0  0  0  0
 13 28  1  0  0  0  0
 13 29  1  0  0  0  0
 14 30  1  0  0  0  0
 14 31  1  0  0  0  0
 14 32  1  0  0  0  0
 15 33  1  0  0  0  0
 15 34  1  0  0  0  0
 15 35  1  0  0  0  0
 16 36  1  0  0  0  0
 16 37  1  0  0  0  0
 16 38  1  0  0  0  0
 17 39  1  0  0  0  0
 17 40  1  0  0  0  0
 18 41  1  0  0  0  0
 18 42  1  0  0  0  0
 19 43  1  0  0  0  0
 19 44  1  0  0  0  0
 20 21  1  0  0  0  0
M  END
> <DATABASE_ID>
DB00373

> <DATABASE_NAME>
drugbank

> <ORIGINAL_SOURCE>
PUBCHEM

> <ORIGINAL_SOURCE_URL>
https://pubchem.ncbi.nlm.nih.gov/rest/pug/compound/inchikey/BLJRIMJGRPQVNF-JTQLQIEISA-N/SDF?record_type=3d

> <SMILES>
[H][C@](O)(CNC(C)(C)C)COC1=NSN=C1N1CCOCC1

> <INCHI_IDENTIFIER>
InChI=1S/C13H24N4O3S/c1-13(2,3)14-8-10(18)9-20-12-11(15-21-16-12)17-4-6-19-7-5-17/h10,14,18H,4-9H2,1-3H3/t10-/m0/s1

> <INCHI_KEY>
BLJRIMJGRPQVNF-JTQLQIEISA-N

> <FORMULA>
C13H24N4O3S

> <MOLECULAR_WEIGHT>
316.42

> <EXACT_MASS>
316.156911344

> <JCHEM_ACCEPTOR_COUNT>
7

> <JCHEM_AVERAGE_POLARIZABILITY>
33.85756109164855

> <JCHEM_BIOAVAILABILITY>
1

> <JCHEM_DONOR_COUNT>
2

> <JCHEM_FORMAL_CHARGE>
0

> <JCHEM_GHOSE_FILTER>
1

> <JCHEM_IUPAC>
(2S)-1-(tert-butylamino)-3-{[4-(morpholin-4-yl)-1,2,5-thiadiazol-3-yl]oxy}propan-2-ol

> <ALOGPS_LOGP>
1.44

> <JCHEM_LOGP>
1.3357059456666662

> <ALOGPS_LOGS>
-3.07

> <JCHEM_MDDR_LIKE_RULE>
0

> <JCHEM_NUMBER_OF_RINGS>
2

> <JCHEM_PHYSIOLOGICAL_CHARGE>
1

> <JCHEM_PKA_STRONGEST_ACIDIC>
14.084202857792672

> <JCHEM_PKA_STRONGEST_BASIC>
9.759473013004843

> <JCHEM_POLAR_SURFACE_AREA>
79.74000000000001

> <JCHEM_REFRACTIVITY>
83.91999999999999

> <JCHEM_ROTATABLE_BOND_COUNT>
7

> <JCHEM_RULE_OF_FIVE>
1

> <ALOGPS_SOLUBILITY>
2.69e-01 g/l

> <JCHEM_TRADITIONAL_IUPAC>
(2S)-1-(tert-butylamino)-3-{[4-(morpholin-4-yl)-1,2,5-thiadiazol-3-yl]oxy}propan-2-ol

> <JCHEM_VEBER_RULE>
0

> <DRUGBANK_ID>
DB00373

> <SECONDARY_ACCESSION_NUMBERS>
APRD00229; DB08625

> <DRUG_GROUPS>
approved

> <GENERIC_NAME>
Timolol

> <SYNONYMS>
(S)-1-(tert-butylamino)-3-[(4-morpholin-4-yl-1,2,5-thiadiazol-3-yl)oxy]propan-2-ol; Timolol; Timolol anhydrous; Timololo; Timololum

> <PRODUCTS>
Act Dorzotimolol; Act Latanoprost/timolol; Apo-dorzo-timop; Apo-latanoprost-timop; Apo-timop; Apo-timop Gel; Apo-travoprost-timop; Azarga; Beta-tim - 0.25% Liq; Beta-tim - 0.5% Liq; Betimol; Blocadren; Blocadren Tab 10mg; Blocadren Tab 20mg; Blocadren Tab 5mg; Combigan; Cosopt; Cosopt PF; DORZOLAMIDE HYDROCHLORIDE and TIMOLOL MALEATE; Dom-timolol; Dorzolamide HCl /Timolol Maleate; Dorzolamide HCl and Timolol Maleate; Dorzolamide Hydrochloride and Timolol Maleate; Dorzolamide Hydrochloride and Timolol Maleate Ophthalmic Solution; Dorzolamide Hydrochloride and Timolol Maleate Preservative Free; Dorzolamide Hydrochloride-Timolol Maleate; Dorzolamide Hydrochloride-Timolol Maleate Ophthalmic Solution Sterile Ophthalmic Solution; Dorzolamide Hydrochloride-timolol Maleate; Dorzolamide and Timolol; Dorzolamide and Timolol Eye Drops BP; Dorzolamide-timolol; Duotrav Pq; Gd-latanoprost/timolol; Istalol; Jamp Dorzolamide-timolol; Jamp-latanoprost/timolol; Jamp-timolol; Latanoprost and Timolol Ophthalmic Solution; Med Timolol Liq Oph 0.25%; Med Timolol Liq Oph 0.5%; Med-dorzolamide-timolol; Med-latanoprost-timolol; Mint-dorzolamide/timolol; Mint-latanoprost/timolol; Mylan-dorzolamide/timolol; Mylan-latanoprost/timolol; Mylan-timolol; Novo-timol Liq 0.25%; Novo-timol Liq 0.5%; Nu-timolol Tab 10mg; Nu-timolol Tab 20mg; Nu-timolol Tab 5mg; Odan-timolol; PMS-dorzolamide-timolol; PMS-latanoprost-timolol; PMS-timolol; Ratio-timolol Maleate 0.25%; Ratio-timolol Maleate 0.5%; Rhoxal-timolol 0.25%; Rhoxal-timolol 0.5%; Riva-dorzolamide/timolol; Riva-latanoprost/timolol; Sandoz Dorzolamide/timolol; Sandoz Latanoprost/timolol; Sandoz Timolol; Sandoz Travoprost / Timolol Pq; T-LO; Teva-dorzotimol; Teva-latanoprost/timolol; Teva-timolol; Tim-Brim-Dor PF; Tim-Brim-Dor-Lat; Tim-Dor PF; Tim-Dor-Lat; Tim-Lat -PF; Timolide Tab; Timolol; Timolol GFS; Timolol Maleate; Timolol Maleate-EX; Timolol Solution - 0.25%; Timolol Solution - 0.5%; Timolol-10 Tab 10mg; Timolol-20 Tab 20mg; Timolol-5 Tab 5mg; Timoptic; Timoptic PF; Timoptic in Ocudose; Timoptic-XE; Timpilo 2; Timpilo 4; Van-dorzolamide-timolol; Xalacom

> <INTERNATIONAL_BRANDS>
Proflax; Tenopt; Timacar Depot; Timacor; Timoptol

> <SALTS>
Timolol hemihydrate; Timolol maleate

$$$$
