REMARK  Name = 1989
REMARK  4 active torsions:
REMARK  status: ('A' for Active; 'I' for Inactive)
REMARK    1  A    between atoms: S_1  and  N_6
REMARK    2  A    between atoms: S_1  and  C_16
REMARK    3  A    between atoms: N_5  and  C_10
REMARK    4  A    between atoms: C_19  and  C_23
REMARK                            x       y       z     vdW  Elec       q    Type
REMARK                         _______ _______ _______ _____ _____    ______ ____
ROOT
ATOM      1  S   UNL     1       0.603  -2.573  -0.239  0.00  0.00    +0.077 S 
ATOM      2  O   UNL     1       0.544  -3.188   1.073  0.00  0.00    -0.150 OA
ATOM      3  O   UNL     1       0.937  -3.364  -1.407  0.00  0.00    -0.150 OA
ENDROOT
BRANCH   1   6
ATOM      4  O   UNL     1      -1.366  -1.104   1.663  0.00  0.00    -0.251 OA
ATOM      5  N   UNL     1      -2.776  -0.479  -0.059  0.00  0.00    -0.289 N 
ATOM      6  N   UNL     1      -0.851  -1.722  -0.530  0.00  0.00    -0.169 N 
ATOM      7  C   UNL     1      -1.657  -1.092   0.470  0.00  0.00    +0.319 C 
ATOM      8  H   UNL     1      -2.922  -0.525  -1.032  0.00  0.00    +0.151 HD
ATOM      9  H   UNL     1      -1.158  -1.660  -1.464  0.00  0.00    +0.178 HD
BRANCH   5  10
ATOM     10  C   UNL     1      -3.742   0.229   0.751  0.00  0.00    +0.073 C 
ATOM     11  C   UNL     1      -3.338   1.696   0.935  0.00  0.00    +0.020 C 
ATOM     12  C   UNL     1      -5.150   0.111   0.158  0.00  0.00    +0.020 C 
ATOM     13  C   UNL     1      -3.508   2.514  -0.345  0.00  0.00    +0.002 C 
ATOM     14  C   UNL     1      -5.317   0.932  -1.121  0.00  0.00    +0.002 C 
ATOM     15  C   UNL     1      -4.919   2.390  -0.910  0.00  0.00    +0.000 C 
ENDBRANCH   5  10
ENDBRANCH   1   6
BRANCH   1  16
ATOM     16  C   UNL     1       1.766  -1.243  -0.171  0.00  0.00    +0.125 C 
ATOM     17  C   UNL     1       2.029  -0.637   1.045  0.00  0.00    +0.020 C 
ATOM     18  C   UNL     1       2.391  -0.833  -1.336  0.00  0.00    +0.020 C 
ATOM     19  C   UNL     1       3.584   0.840  -0.066  0.00  0.00    +0.035 C 
ATOM     20  C   UNL     1       2.945   0.413   1.098  0.00  0.00    +0.004 C 
ATOM     21  C   UNL     1       3.307   0.217  -1.283  0.00  0.00    +0.004 C 
BRANCH  19  23
ATOM     22  O   UNL     1       5.128   2.338  -1.034  0.00  0.00    -0.291 OA
ATOM     23  C   UNL     1       4.541   1.935  -0.010  0.00  0.00    +0.173 C 
ATOM     24  C   UNL     1       4.849   2.619   1.317  0.00  0.00    +0.077 C 
ENDBRANCH  19  23
ENDBRANCH   1  16
TORSDOF 4
