REMARK  Name = 2913
REMARK  1 active torsions:
REMARK  status: ('A' for Active; 'I' for Inactive)
REMARK    1  A    between atoms: C_2  and  C_7
REMARK                            x       y       z     vdW  Elec       q    Type
REMARK                         _______ _______ _______ _____ _____    ______ ____
ROOT
ATOM      1  C   UNL     1       0.073  -0.006  -0.468  0.00  0.00    -0.037 C 
ATOM      2  C   UNL     1       0.860  -1.256  -0.364  0.00  0.00    -0.007 C 
ATOM      3  C   UNL     1       0.688   1.337  -0.360  0.00  0.00    +0.062 C 
ATOM      4  C   UNL     1       1.720  -1.486   0.726  0.00  0.00    -0.001 C 
ATOM      5  C   UNL     1       1.512   1.675   0.731  0.00  0.00    -0.015 C 
ATOM      6  C   UNL     1       0.770  -2.216  -1.389  0.00  0.00    -0.001 C 
ATOM      7  C   UNL     1       0.473   2.280  -1.382  0.00  0.00    -0.018 C 
ATOM      8  C   UNL     1       1.866  -0.564   1.865  0.00  0.00    -0.000 C 
ATOM      9  C   UNL     1       1.777   0.776   1.868  0.00  0.00    -0.004 C 
ATOM     10  C   UNL     1       2.440  -2.694   0.781  0.00  0.00    -0.000 C 
ATOM     11  C   UNL     1       2.066   2.966   0.790  0.00  0.00    -0.004 C 
ATOM     12  C   UNL     1       1.503  -3.401  -1.325  0.00  0.00    -0.000 C 
ATOM     13  C   UNL     1       1.045   3.550  -1.314  0.00  0.00    -0.004 C 
ATOM     14  C   UNL     1       2.335  -3.641  -0.238  0.00  0.00    -0.000 C 
ATOM     15  C   UNL     1       1.838   3.894  -0.226  0.00  0.00    -0.001 C 
ENDROOT
BRANCH   1  17
ATOM     16  N   UNL     1      -4.023  -0.229   0.228  0.00  0.00    +0.386 N 
ATOM     17  C   UNL     1      -1.258  -0.094  -0.590  0.00  0.00    +0.015 C 
ATOM     18  C   UNL     1      -2.151   1.112  -0.702  0.00  0.00    -0.019 C 
ATOM     19  C   UNL     1      -1.995  -1.405  -0.590  0.00  0.00    -0.019 C 
ATOM     20  C   UNL     1      -3.282   1.039   0.331  0.00  0.00    -0.077 C 
ATOM     21  C   UNL     1      -3.131  -1.382   0.439  0.00  0.00    -0.077 C 
ATOM     22  C   UNL     1      -5.127  -0.255   1.188  0.00  0.00    -0.101 C 
ATOM     23  H   UNL     1      -4.408  -0.296  -0.714  0.00  0.00    -0.080 HD
ENDBRANCH   1  17
TORSDOF 1
