REMARK  Name = 446220
REMARK  5 active torsions:
REMARK  status: ('A' for Active; 'I' for Inactive)
REMARK    1  A    between atoms: C_4  and  C_12
REMARK    2  A    between atoms: C_8  and  O_15
REMARK    3  A    between atoms: C_12  and  O_13
REMARK    4  A    between atoms: O_15  and  C_17
REMARK    5  A    between atoms: C_17  and  C_18
REMARK                            x       y       z     vdW  Elec       q    Type
REMARK                         _______ _______ _______ _____ _____    ______ ____
ROOT
ATOM      1  N   UNL     1       3.200  -0.346  -0.810  0.00  0.00    +0.389 N 
ATOM      2  C   UNL     1       3.091   0.124   0.587  0.00  0.00    -0.044 C 
ATOM      3  C   UNL     1       2.579  -1.681  -0.757  0.00  0.00    -0.055 C 
ATOM      4  C   UNL     1       1.615   0.533   0.825  0.00  0.00    +0.120 C 
ATOM      5  C   UNL     1       3.474  -1.104   1.422  0.00  0.00    -0.022 C 
ATOM      6  C   UNL     1       3.126  -2.302   0.533  0.00  0.00    -0.023 C 
ATOM      7  C   UNL     1       1.056  -1.450  -0.688  0.00  0.00    +0.023 C 
ATOM      8  C   UNL     1       0.642  -0.628   0.543  0.00  0.00    +0.176 C 
ATOM      9  C   UNL     1       4.578  -0.377  -1.294  0.00  0.00    -0.100 C 
ATOM     10  H   UNL     1       2.742   0.278  -1.475  0.00  0.00    -0.080 HD
ENDROOT
BRANCH   4  12
ATOM     11  O   UNL     1       0.398   1.795  -0.834  0.00  0.00    -0.250 OA
ATOM     12  C   UNL     1       1.295   1.749  -0.003  0.00  0.00    +0.318 C 
BRANCH  12  13
ATOM     13  O   UNL     1       2.150   2.760   0.322  0.00  0.00    -0.444 OA
ATOM     14  C   UNL     1       1.956   3.983  -0.395  0.00  0.00    +0.256 C 
ENDBRANCH  12  13
ENDBRANCH   4  12
BRANCH   8  15
ATOM     15  O   UNL     1      -0.692  -0.155   0.407  0.00  0.00    -0.449 OA
BRANCH  15  17
ATOM     16  O   UNL     1      -1.455  -2.310   0.141  0.00  0.00    -0.245 OA
ATOM     17  C   UNL     1      -1.646  -1.106   0.209  0.00  0.00    +0.341 C 
BRANCH  17  18
ATOM     18  C   UNL     1      -2.989  -0.486   0.082  0.00  0.00    +0.076 C 
ATOM     19  C   UNL     1      -3.940  -1.108  -0.701  0.00  0.00    +0.006 C 
ATOM     20  C   UNL     1      -3.245   0.693   0.752  0.00  0.00    +0.006 C 
ATOM     21  C   UNL     1      -5.201  -0.525  -0.821  0.00  0.00    +0.000 C 
ATOM     22  C   UNL     1      -4.507   1.276   0.633  0.00  0.00    +0.000 C 
ATOM     23  C   UNL     1      -5.485   0.666  -0.154  0.00  0.00    +0.000 C 
ENDBRANCH  17  18
ENDBRANCH  15  17
ENDBRANCH   8  15
TORSDOF 5
