REMARK  Name = 2796
REMARK  5 active torsions:
REMARK  status: ('A' for Active; 'I' for Inactive)
REMARK    1  A    between atoms: O_1  and  C_3
REMARK    2  A    between atoms: O_1  and  C_9
REMARK    3  A    between atoms: C_9  and  C_13
REMARK    4  A    between atoms: C_13  and  O_14
REMARK    5  A    between atoms: O_14  and  C_15
REMARK                            x       y       z     vdW  Elec       q    Type
REMARK                         _______ _______ _______ _____ _____    ______ ____
ROOT
ATOM      1  O   UNL     1       0.363   1.135   1.072  0.00  0.00    -0.472 OA
ENDROOT
BRANCH   1   3
ATOM      2 CL   UNL     1      -4.663  -1.416  -0.573  0.00  0.00    -0.082 Cl
ATOM      3  C   UNL     1      -0.810   0.539   0.688  0.00  0.00    +0.139 C 
ATOM      4  C   UNL     1      -0.892  -0.847   0.633  0.00  0.00    +0.038 C 
ATOM      5  C   UNL     1      -1.906   1.328   0.357  0.00  0.00    +0.038 C 
ATOM      6  C   UNL     1      -2.086  -1.453   0.242  0.00  0.00    +0.015 C 
ATOM      7  C   UNL     1      -3.099   0.722  -0.035  0.00  0.00    +0.015 C 
ATOM      8  C   UNL     1      -3.189  -0.669  -0.092  0.00  0.00    +0.058 C 
ENDBRANCH   1   3
BRANCH   1   9
ATOM      9  C   UNL     1       1.295   1.438   0.042  0.00  0.00    +0.221 C 
ATOM     10  C   UNL     1       0.633   2.417  -0.927  0.00  0.00    +0.055 C 
ATOM     11  C   UNL     1       2.527   2.061   0.689  0.00  0.00    +0.055 C 
BRANCH   9  13
ATOM     12  O   UNL     1       1.526  -0.041  -1.876  0.00  0.00    -0.246 OA
ATOM     13  C   UNL     1       1.707   0.159  -0.681  0.00  0.00    +0.353 C 
BRANCH  13  14
ATOM     14  O   UNL     1       2.332  -0.699   0.179  0.00  0.00    -0.446 OA
BRANCH  14  15
ATOM     15  C   UNL     1       2.800  -1.922  -0.398  0.00  0.00    +0.209 C 
ATOM     16  C   UNL     1       3.463  -2.753   0.679  0.00  0.00    +0.051 C 
ENDBRANCH  14  15
ENDBRANCH  13  14
ENDBRANCH   9  13
ENDBRANCH   1   9
TORSDOF 5
