REMARK  Name = 4725
REMARK  7 active torsions:
REMARK  status: ('A' for Active; 'I' for Inactive)
REMARK    1  A    between atoms: N_2  and  C_15
REMARK    2  A    between atoms: C_15  and  C_16
REMARK    3  A    between atoms: C_16  and  C_17
REMARK    4  A    between atoms: C_17  and  C_18
REMARK    5  A    between atoms: C_17  and  C_21
REMARK    6  A    between atoms: C_18  and  O_19
REMARK    7  A    between atoms: C_21  and  O_22
REMARK                            x       y       z     vdW  Elec       q    Type
REMARK                         _______ _______ _______ _____ _____    ______ ____
ROOT
ATOM      1  O   UNL     1      -4.568  -1.045  -0.444  0.00  0.00    -0.208 OA
ATOM      2  N   UNL     1      -0.210  -0.848   0.679  0.00  0.00    -0.232 NA
ATOM      3  N   UNL     1      -1.271   1.260   0.106  0.00  0.00    -0.279 N 
ATOM      4  N   UNL     1      -1.978  -2.176   0.397  0.00  0.00    -0.241 NA
ATOM      5  N   UNL     1      -3.592   1.057  -0.477  0.00  0.00    -0.301 NA
ATOM      6  N   UNL     1      -2.486   3.138  -0.474  0.00  0.00    -0.320 N 
ATOM      7  C   UNL     1      -1.230  -0.061   0.301  0.00  0.00    +0.189 C 
ATOM      8  C   UNL     1      -2.309  -0.878   0.130  0.00  0.00    +0.183 C 
ATOM      9  C   UNL     1      -0.698  -2.124   0.727  0.00  0.00    +0.203 C 
ATOM     10  C   UNL     1      -3.586  -0.330  -0.283  0.00  0.00    +0.224 C 
ATOM     11  C   UNL     1      -2.502   1.779  -0.290  0.00  0.00    +0.245 C 
ATOM     12  H   UNL     1      -0.480   1.832   0.235  0.00  0.00    +0.152 HD
ATOM     13  H   UNL     1      -1.656   3.646  -0.325  0.00  0.00    +0.146 HD
ATOM     14  H   UNL     1      -3.306   3.607  -0.754  0.00  0.00    +0.146 HD
ENDROOT
BRANCH   2  15
ATOM     15  C   UNL     1       1.158  -0.445   0.985  0.00  0.00    +0.076 C 
BRANCH  15  16
ATOM     16  C   UNL     1       2.096  -0.460  -0.228  0.00  0.00    +0.022 C 
BRANCH  16  17
ATOM     17  C   UNL     1       3.575  -0.121   0.076  0.00  0.00    +0.060 C 
BRANCH  17  18
ATOM     18  C   UNL     1       3.669   1.259   0.749  0.00  0.00    +0.140 C 
BRANCH  18  19
ATOM     19  O   UNL     1       5.030   1.583   1.006  0.00  0.00    -0.382 OA
ATOM     20  H   UNL     1       5.080   2.454   1.430  0.00  0.00    +0.210 HD
ENDBRANCH  18  19
ENDBRANCH  17  18
BRANCH  17  21
ATOM     21  C   UNL     1       4.466  -0.152  -1.175  0.00  0.00    +0.140 C 
BRANCH  21  22
ATOM     22  O   UNL     1       4.437  -1.435  -1.784  0.00  0.00    -0.382 OA
ATOM     23  H   UNL     1       5.005  -1.433  -2.570  0.00  0.00    +0.210 HD
ENDBRANCH  21  22
ENDBRANCH  17  21
ENDBRANCH  16  17
ENDBRANCH  15  16
ENDBRANCH   2  15
TORSDOF 7
