REMARK  Name = 65981
REMARK  11 active torsions:
REMARK  status: ('A' for Active; 'I' for Inactive)
REMARK    1  A    between atoms: N_2  and  C_5
REMARK    2  A    between atoms: C_3  and  C_22
REMARK    3  A    between atoms: C_5  and  C_7
REMARK    4  A    between atoms: C_5  and  C_18
REMARK    5  A    between atoms: C_6  and  N_12
REMARK    6  A    between atoms: C_18  and  C_19
REMARK    7  A    between atoms: C_22  and  C_23
REMARK    8  A    between atoms: C_26  and  O_33
REMARK    9  A    between atoms: C_28  and  C_30
REMARK   10  A    between atoms: C_30  and  O_31
REMARK   11  A    between atoms: O_33  and  C_34
REMARK                            x       y       z     vdW  Elec       q    Type
REMARK                         _______ _______ _______ _____ _____    ______ ____
ROOT
ATOM      1  O   UNL     1       0.694   1.480   0.970  0.00  0.00    -0.275 OA
ATOM      2  N   UNL     1       1.202  -0.722   1.501  0.00  0.00    -0.302 N 
ATOM      3  C   UNL     1       0.447   0.437   1.571  0.00  0.00    +0.227 C 
ATOM      4  H   UNL     1       0.916  -1.506   2.024  0.00  0.00    +0.150 HD
ENDROOT
BRANCH   2   5
ATOM      5  C   UNL     1       2.396  -0.824   0.688  0.00  0.00    +0.095 C 
BRANCH   5   7
ATOM      6  C   UNL     1       2.255  -0.316  -1.773  0.00  0.00    +0.045 C 
ATOM      7  C   UNL     1       2.032  -1.202  -0.733  0.00  0.00    +0.009 C 
ATOM      8  C   UNL     1       1.911  -0.689  -3.072  0.00  0.00    +0.014 C 
ATOM      9  C   UNL     1       1.473  -2.450  -0.953  0.00  0.00    -0.001 C 
ATOM     10  C   UNL     1       1.347  -1.943  -3.312  0.00  0.00    +0.001 C 
ATOM     11  C   UNL     1       1.129  -2.823  -2.252  0.00  0.00    -0.000 C 
BRANCH   6  12
ATOM     12  N   UNL     1       2.822   0.945  -1.551  0.00  0.00    -0.308 N 
ATOM     13  C   UNL     1       4.287   1.049  -1.611  0.00  0.00    +0.091 C 
ATOM     14  C   UNL     1       2.067   2.149  -1.917  0.00  0.00    +0.091 C 
ATOM     15  C   UNL     1       4.773   2.248  -0.800  0.00  0.00    +0.021 C 
ATOM     16  C   UNL     1       2.553   3.353  -1.111  0.00  0.00    +0.021 C 
ATOM     17  C   UNL     1       4.063   3.529  -1.219  0.00  0.00    +0.004 C 
ENDBRANCH   6  12
ENDBRANCH   5   7
BRANCH   5  18
ATOM     18  C   UNL     1       3.394  -1.792   1.355  0.00  0.00    +0.024 C 
BRANCH  18  19
ATOM     19  C   UNL     1       3.848  -1.397   2.776  0.00  0.00    +0.002 C 
ATOM     20  C   UNL     1       4.468   0.000   2.823  0.00  0.00    +0.000 C 
ATOM     21  C   UNL     1       4.856  -2.425   3.298  0.00  0.00    +0.000 C 
ENDBRANCH  18  19
ENDBRANCH   5  18
ENDBRANCH   2   5
BRANCH   3  22
ATOM     22  C   UNL     1      -0.748   0.264   2.489  0.00  0.00    +0.111 C 
BRANCH  22  23
ATOM     23  C   UNL     1      -2.068   0.469   1.796  0.00  0.00    -0.010 C 
ATOM     24  C   UNL     1      -2.707  -0.614   1.208  0.00  0.00    +0.033 C 
ATOM     25  C   UNL     1      -2.628   1.738   1.755  0.00  0.00    -0.003 C 
ATOM     26  C   UNL     1      -3.931  -0.423   0.566  0.00  0.00    +0.144 C 
ATOM     27  C   UNL     1      -3.851   1.929   1.113  0.00  0.00    +0.009 C 
ATOM     28  C   UNL     1      -4.503   0.848   0.518  0.00  0.00    +0.109 C 
BRANCH  28  30
ATOM     29  O   UNL     1      -6.686   0.238  -0.245  0.00  0.00    -0.245 OA
ATOM     30  C   UNL     1      -5.779   1.069  -0.148  0.00  0.00    +0.341 C 
BRANCH  30  31
ATOM     31  O   UNL     1      -5.882   2.321  -0.669  0.00  0.00    -0.477 OA
ATOM     32  H   UNL     1      -5.173   2.927  -0.576  0.00  0.00    +0.295 HD
ENDBRANCH  30  31
ENDBRANCH  28  30
BRANCH  26  33
ATOM     33  O   UNL     1      -4.551  -1.492  -0.009  0.00  0.00    -0.475 OA
BRANCH  33  34
ATOM     34  C   UNL     1      -3.842  -2.174  -1.041  0.00  0.00    +0.206 C 
ATOM     35  C   UNL     1      -4.839  -2.778  -2.008  0.00  0.00    +0.051 C 
ENDBRANCH  33  34
ENDBRANCH  26  33
ENDBRANCH  22  23
ENDBRANCH   3  22
TORSDOF 11
