REMARK  Name = 6267
REMARK  5 active torsions:
REMARK  status: ('A' for Active; 'I' for Inactive)
REMARK    1  A    between atoms: CA_1  and  N_2
REMARK    2  A    between atoms: CA_1  and  C_7
REMARK    3  A    between atoms: CA_1  and  CB_10
REMARK    4  A    between atoms: C_7  and  O_8
REMARK    5  A    between atoms: CB_10  and  CG_13
REMARK                            x       y       z     vdW  Elec       q    Type
REMARK                         _______ _______ _______ _____ _____    ______ ____
ROOT
ATOM      1  CA  ASN A   1       0.699   0.744   0.391  0.00  0.00    +0.045 C 
ENDROOT
BRANCH   1   2
ATOM      2  N   ASN A   1       1.780   1.683   0.085  0.00  0.00    +0.389 N 
ATOM      3  H1  ASN A   1       1.470   2.635   0.284  0.00  0.00    -0.088 HD
ATOM      4  H2  ASN A   1       2.030   1.606  -0.900  0.00  0.00    -0.088 HD
ATOM      5  H3  ASN A   1       2.594   1.464   0.661  0.00  0.00    -0.088 HD
ENDBRANCH   1   2
BRANCH   1   7
ATOM      6  OXT ASN A   1       2.019  -0.917  -0.820  0.00  0.00    -0.253 OA
ATOM      7  C   ASN A   1       1.228  -0.646   0.074  0.00  0.00    +0.293 C 
BRANCH   7   8
ATOM      8  O   ASN A   1       0.700  -1.591   0.896  0.00  0.00    -0.482 OA
ATOM      9  H   ASN A   1       0.097  -1.343   1.569  0.00  0.00    +0.295 HD
ENDBRANCH   7   8
ENDBRANCH   1   7
BRANCH   1  10
ATOM     10  CB  ASN A   1      -0.517   1.067  -0.480  0.00  0.00    +0.074 C 
BRANCH  10  13
ATOM     11  OD1 ASN A   1      -2.145  -0.610  -1.060  0.00  0.00    -0.275 OA
ATOM     12  ND2 ASN A   1      -2.103   0.157   1.108  0.00  0.00    -0.329 N 
ATOM     13  CG  ASN A   1      -1.660   0.113  -0.193  0.00  0.00    +0.218 C 
ATOM     14 HD21 ASN A   1      -2.843  -0.426   1.396  0.00  0.00    +0.145 HD
ATOM     15 HD22 ASN A   1      -1.681   0.770   1.752  0.00  0.00    +0.145 HD
ENDBRANCH  10  13
ENDBRANCH   1  10
TORSDOF 5
