REMARK  Name = 8249
REMARK  6 active torsions:
REMARK  status: ('A' for Active; 'I' for Inactive)
REMARK    1  A    between atoms: N_1  and  C_3
REMARK    2  A    between atoms: N_1  and  C_14
REMARK    3  A    between atoms: C_3  and  N_6
REMARK    4  A    between atoms: N_6  and  C_9
REMARK    5  A    between atoms: C_14  and  C_15
REMARK    6  A    between atoms: C_15  and  C_16
REMARK                            x       y       z     vdW  Elec       q    Type
REMARK                         _______ _______ _______ _____ _____    ______ ____
ROOT
ATOM      1  N   UNL     1      -2.711  -1.849   0.866  0.00  0.00    -0.368 N 
ATOM      2  C   UNL     1      -2.120  -0.991  -0.036  0.00  0.00    +0.220 C 
ATOM      3  H   UNL     1      -2.189  -2.585   1.260  0.00  0.00    +0.159 HD
ATOM      4  H   UNL     1      -3.656  -1.727   1.115  0.00  0.00    +0.159 HD
ENDROOT
BRANCH   2   5
ATOM      5  N   UNL     1      -0.903  -1.035  -0.477  0.00  0.00    -0.238 NA
BRANCH   5   6
ATOM      6  C   UNL     1      -0.044  -2.094   0.037  0.00  0.00    +0.133 C 
BRANCH   6   7
ATOM      7  C   UNL     1       1.341  -1.994  -0.597  0.00  0.00    +0.053 C 
BRANCH   7   8
ATOM      8  C   UNL     1       2.036  -0.690  -0.291  0.00  0.00    -0.020 C 
ATOM      9  C   UNL     1       1.861   0.390  -1.143  0.00  0.00    -0.004 C 
ATOM     10  C   UNL     1       2.837  -0.594   0.836  0.00  0.00    -0.004 C 
ATOM     11  C   UNL     1       2.503   1.596  -0.860  0.00  0.00    -0.000 C 
ATOM     12  C   UNL     1       3.479   0.612   1.119  0.00  0.00    -0.000 C 
ATOM     13  C   UNL     1       3.312   1.707   0.271  0.00  0.00    -0.000 C 
ENDBRANCH   7   8
ENDBRANCH   6   7
ENDBRANCH   5   6
ENDBRANCH   2   5
BRANCH   2  14
ATOM     14  N   UNL     1      -2.885   0.028  -0.568  0.00  0.00    -0.180 NA
BRANCH  14  17
ATOM     15  N   UNL     1      -3.628   2.234  -0.417  0.00  0.00    -0.370 N 
ATOM     16  N   UNL     1      -2.193   1.502   1.202  0.00  0.00    -0.370 N 
ATOM     17  C   UNL     1      -2.885   1.178   0.056  0.00  0.00    +0.196 C 
ATOM     18  H   UNL     1      -4.168   2.129  -1.233  0.00  0.00    +0.159 HD
ATOM     19  H   UNL     1      -3.619   3.095   0.060  0.00  0.00    +0.159 HD
ATOM     20  H   UNL     1      -1.623   0.829   1.640  0.00  0.00    +0.159 HD
ATOM     21  H   UNL     1      -2.268   2.406   1.584  0.00  0.00    +0.159 HD
ENDBRANCH  14  17
ENDBRANCH   2  14
TORSDOF 6
