REMARK  Name = 6137
REMARK  6 active torsions:
REMARK  status: ('A' for Active; 'I' for Inactive)
REMARK    1  A    between atoms: CA_1  and  N_2
REMARK    2  A    between atoms: CA_1  and  C_7
REMARK    3  A    between atoms: CA_1  and  CB_10
REMARK    4  A    between atoms: C_7  and  O_8
REMARK    5  A    between atoms: CB_10  and  CG_11
REMARK    6  A    between atoms: CG_11  and  SD_12
REMARK                            x       y       z     vdW  Elec       q    Type
REMARK                         _______ _______ _______ _____ _____    ______ ____
ROOT
ATOM      1  CA  MET A   1      -0.566  -0.653   0.369  0.00  0.00    +0.037 C 
ENDROOT
BRANCH   1   2
ATOM      2  N   MET A   1      -1.363  -1.877   0.499  0.00  0.00    +0.389 N 
ATOM      3  H1  MET A   1      -0.744  -2.669   0.674  0.00  0.00    -0.088 HD
ATOM      4  H2  MET A   1      -1.884  -2.037  -0.364  0.00  0.00    -0.088 HD
ATOM      5  H3  MET A   1      -2.015  -1.778   1.276  0.00  0.00    -0.088 HD
ENDBRANCH   1   2
BRANCH   1   7
ATOM      6  OXT MET A   1      -2.591   0.369  -0.524  0.00  0.00    -0.253 OA
ATOM      7  C   MET A   1      -1.549   0.475   0.111  0.00  0.00    +0.293 C 
BRANCH   7   8
ATOM      8  O   MET A   1      -1.161   1.640   0.692  0.00  0.00    -0.482 OA
ATOM      9  H   MET A   1      -0.356   1.680   1.170  0.00  0.00    +0.295 HD
ENDBRANCH   7   8
ENDBRANCH   1   7
BRANCH   1  10
ATOM     10  CB  MET A   1       0.416  -0.811  -0.801  0.00  0.00    +0.001 C 
BRANCH  10  11
ATOM     11  CG  MET A   1       1.266   0.422  -1.121  0.00  0.00    +0.056 C 
BRANCH  11  12
ATOM     12  SD  MET A   1       2.286   0.970   0.280  0.00  0.00    -0.139 S 
ATOM     13  CE  MET A   1       3.262  -0.535   0.496  0.00  0.00    +0.069 C 
ENDBRANCH  11  12
ENDBRANCH  10  11
ENDBRANCH   1  10
TORSDOF 6
