REMARK  Name = 4463
REMARK  1 active torsions:
REMARK  status: ('A' for Active; 'I' for Inactive)
REMARK    1  A    between atoms: N_2  and  C_19
REMARK                            x       y       z     vdW  Elec       q    Type
REMARK                         _______ _______ _______ _____ _____    ______ ____
ROOT
ATOM      1  O   UNL     1       0.899  -2.839  -1.512  0.00  0.00    -0.270 OA
ATOM      2  N   UNL     1       0.250   1.009  -0.060  0.00  0.00    -0.258 N 
ATOM      3  N   UNL     1      -0.854  -1.714  -0.632  0.00  0.00    -0.278 N 
ATOM      4  N   UNL     1      -1.941   1.581   0.682  0.00  0.00    -0.228 NA
ATOM      5  N   UNL     1       2.458   0.873   0.818  0.00  0.00    -0.229 NA
ATOM      6  C   UNL     1      -1.092   0.620   0.204  0.00  0.00    +0.150 C 
ATOM      7  C   UNL     1       1.400   0.231   0.233  0.00  0.00    +0.141 C 
ATOM      8  C   UNL     1      -1.575  -0.662  -0.050  0.00  0.00    +0.079 C 
ATOM      9  C   UNL     1       1.491  -1.126  -0.059  0.00  0.00    +0.086 C 
ATOM     10  C   UNL     1      -2.937  -0.929   0.184  0.00  0.00    -0.004 C 
ATOM     11  C   UNL     1       0.492  -1.917  -0.800  0.00  0.00    +0.252 C 
ATOM     12  C   UNL     1       2.668  -1.816   0.292  0.00  0.00    +0.009 C 
ATOM     13  C   UNL     1      -3.783   0.046   0.685  0.00  0.00    +0.018 C 
ATOM     14  C   UNL     1      -3.236   1.283   0.917  0.00  0.00    +0.100 C 
ATOM     15  C   UNL     1       3.571   0.181   1.143  0.00  0.00    +0.100 C 
ATOM     16  C   UNL     1      -3.546  -2.275  -0.071  0.00  0.00    +0.032 C 
ATOM     17  C   UNL     1       3.722  -1.163   0.909  0.00  0.00    +0.021 C 
ATOM     18  H   UNL     1      -1.417  -2.441  -0.984  0.00  0.00    +0.155 HD
ENDROOT
BRANCH   2  19
ATOM     19  C   UNL     1       0.484   2.480  -0.228  0.00  0.00    +0.080 C 
ATOM     20  C   UNL     1       0.033   3.170  -1.460  0.00  0.00    +0.022 C 
ATOM     21  C   UNL     1       1.496   2.968  -1.195  0.00  0.00    +0.022 C 
ENDBRANCH   2  19
TORSDOF 1
