REMARK  Name = 6432
REMARK  2 active torsions:
REMARK  status: ('A' for Active; 'I' for Inactive)
REMARK    1  A    between atoms: C_3  and  C_7
REMARK    2  A    between atoms: C_3  and  C_11
REMARK                            x       y       z     vdW  Elec       q    Type
REMARK                         _______ _______ _______ _____ _____    ______ ____
ROOT
ATOM      1  F   UNL     1       0.000   1.409   1.082  0.00  0.00    -0.186 F 
ATOM      2  F   UNL     1       0.000   1.401  -1.097  0.00  0.00    -0.186 F 
ATOM      3  C   UNL     1       0.000   0.595  -0.004  0.00  0.00    +0.434 C 
ENDROOT
BRANCH   3   7
ATOM      4  F   UNL     1       1.333  -1.024  -1.087  0.00  0.00    -0.165 F 
ATOM      5  F   UNL     1       1.317  -1.014   1.094  0.00  0.00    -0.165 F 
ATOM      6  F   UNL     1       2.361   0.561   0.005  0.00  0.00    -0.165 F 
ATOM      7  C   UNL     1       1.264  -0.226  -0.002  0.00  0.00    +0.463 C 
ENDBRANCH   3   7
BRANCH   3  11
ATOM      8  F   UNL     1      -1.319  -1.011   1.096  0.00  0.00    -0.165 F 
ATOM      9  F   UNL     1      -2.361   0.561   0.000  0.00  0.00    -0.165 F 
ATOM     10  F   UNL     1      -1.331  -1.028  -1.085  0.00  0.00    -0.165 F 
ATOM     11  C   UNL     1      -1.264  -0.226  -0.002  0.00  0.00    +0.463 C 
ENDBRANCH   3  11
TORSDOF 2
