REMARK  Name = 5546
REMARK  1 active torsions:
REMARK  status: ('A' for Active; 'I' for Inactive)
REMARK    1  A    between atoms: C_7  and  C_17
REMARK                            x       y       z     vdW  Elec       q    Type
REMARK                         _______ _______ _______ _____ _____    ______ ____
ROOT
ATOM      1  N   UNL     1       0.004   0.720   0.000  0.00  0.00    -0.382 NA
ATOM      2  N   UNL     1      -0.942  -1.881  -0.001  0.00  0.00    -0.320 NA
ATOM      3  N   UNL     1      -3.123  -1.103   0.000  0.00  0.00    -0.259 NA
ATOM      4  N   UNL     1      -3.594   1.249   0.000  0.00  0.00    -0.310 NA
ATOM      5  N   UNL     1       1.288  -2.691   0.000  0.00  0.00    -0.330 N 
ATOM      6  N   UNL     1      -5.334  -0.317   0.001  0.00  0.00    -0.283 N 
ATOM      7  C   UNL     1       0.846  -0.325   0.000  0.00  0.00    +0.177 C 
ATOM      8  C   UNL     1      -1.315   0.448   0.000  0.00  0.00    +0.261 C 
ATOM      9  C   UNL     1      -1.807  -0.859   0.000  0.00  0.00    +0.186 C 
ATOM     10  C   UNL     1       0.378  -1.610   0.000  0.00  0.00    +0.219 C 
ATOM     11  C   UNL     1      -2.264   1.452   0.000  0.00  0.00    +0.232 C 
ATOM     12  C   UNL     1      -3.950  -0.041   0.000  0.00  0.00    +0.208 C 
ATOM     13  H   UNL     1       0.953  -3.616   0.000  0.00  0.00    +0.145 HD
ATOM     14  H   UNL     1       2.257  -2.517   0.000  0.00  0.00    +0.145 HD
ATOM     15  H   UNL     1      -5.650  -1.250   0.001  0.00  0.00    +0.156 HD
ATOM     16  H   UNL     1      -5.984   0.422   0.001  0.00  0.00    +0.156 HD
ATOM     17  N   UNL     1      -1.809   2.797   0.000  0.00  0.00    -0.329 N 
ATOM     18  H   UNL     1      -2.458   3.536   0.000  0.00  0.00    +0.145 HD
ATOM     19  H   UNL     1      -0.843   2.990   0.000  0.00  0.00    +0.145 HD
ENDROOT
BRANCH   7  20
ATOM     20  C   UNL     1       2.247   0.023   0.000  0.00  0.00    +0.034 C 
ATOM     21  C   UNL     1       2.926   0.192  -1.208  0.00  0.00    +0.003 C 
ATOM     22  C   UNL     1       2.927   0.192   1.208  0.00  0.00    +0.003 C 
ATOM     23  C   UNL     1       4.280   0.528  -1.208  0.00  0.00    +0.000 C 
ATOM     24  C   UNL     1       4.281   0.528   1.208  0.00  0.00    +0.000 C 
ATOM     25  C   UNL     1       4.958   0.696   0.000  0.00  0.00    +0.000 C 
ENDBRANCH   7  20
TORSDOF 1
