REMARK  Name = 2249
REMARK  9 active torsions:
REMARK  status: ('A' for Active; 'I' for Inactive)
REMARK    1  A    between atoms: O_1  and  C_2
REMARK    2  A    between atoms: O_1  and  C_14
REMARK    3  A    between atoms: C_3  and  C_8
REMARK    4  A    between atoms: C_8  and  C_11
REMARK    5  A    between atoms: C_14  and  C_15
REMARK    6  A    between atoms: C_15  and  O_16
REMARK    7  A    between atoms: C_15  and  C_18
REMARK    8  A    between atoms: C_18  and  N_19
REMARK    9  A    between atoms: N_19  and  C_22
REMARK                            x       y       z     vdW  Elec       q    Type
REMARK                         _______ _______ _______ _____ _____    ______ ____
ROOT
ATOM      1  O   UNL     1      -1.083  -1.538  -0.366  0.00  0.00    -0.473 OA
ENDROOT
BRANCH   1   2
ATOM      2  C   UNL     1       0.114  -0.895  -0.192  0.00  0.00    +0.139 C 
ATOM      3  C   UNL     1       2.546   0.409   0.158  0.00  0.00    -0.013 C 
ATOM      4  C   UNL     1       0.650  -0.146  -1.234  0.00  0.00    +0.037 C 
ATOM      5  C   UNL     1       0.782  -0.998   1.023  0.00  0.00    +0.037 C 
ATOM      6  C   UNL     1       1.870   0.508  -1.058  0.00  0.00    -0.001 C 
ATOM      7  C   UNL     1       2.002  -0.344   1.198  0.00  0.00    -0.001 C 
BRANCH   3   8
ATOM      8  C   UNL     1       3.849   1.109   0.346  0.00  0.00    +0.111 C 
BRANCH   8  11
ATOM      9  O   UNL     1       4.978  -0.856  -0.523  0.00  0.00    -0.275 OA
ATOM     10  N   UNL     1       6.252   0.913   0.204  0.00  0.00    -0.329 N 
ATOM     11  C   UNL     1       5.057   0.271  -0.040  0.00  0.00    +0.224 C 
ATOM     12  H   UNL     1       7.103   0.467  -0.007  0.00  0.00    +0.145 HD
ATOM     13  H   UNL     1       6.254   1.819   0.590  0.00  0.00    +0.145 HD
ENDBRANCH   8  11
ENDBRANCH   3   8
ENDBRANCH   1   2
BRANCH   1  14
ATOM     14  C   UNL     1      -1.890  -1.711   0.795  0.00  0.00    +0.232 C 
BRANCH  14  15
ATOM     15  C   UNL     1      -3.360  -1.700   0.379  0.00  0.00    +0.133 C 
BRANCH  15  16
ATOM     16  O   UNL     1      -3.575  -2.756  -0.562  0.00  0.00    -0.383 OA
ATOM     17  H   UNL     1      -4.506  -2.760  -0.835  0.00  0.00    +0.210 HD
ENDBRANCH  15  16
BRANCH  15  18
ATOM     18  C   UNL     1      -3.796  -0.385  -0.269  0.00  0.00    -0.048 C 
BRANCH  18  19
ATOM     19  N   UNL     1      -3.577   0.758   0.608  0.00  0.00    +0.387 N 
ATOM     20  H   UNL     1      -2.590   0.797   0.864  0.00  0.00    -0.084 HD
ATOM     21  H   UNL     1      -4.157   0.646   1.439  0.00  0.00    -0.084 HD
BRANCH  19  22
ATOM     22  C   UNL     1      -3.947   2.001  -0.054  0.00  0.00    -0.062 C 
ATOM     23  C   UNL     1      -3.752   3.167   0.910  0.00  0.00    -0.023 C 
ATOM     24  C   UNL     1      -3.120   2.193  -1.322  0.00  0.00    -0.023 C 
ENDBRANCH  19  22
ENDBRANCH  18  19
ENDBRANCH  15  18
ENDBRANCH  14  15
ENDBRANCH   1  14
TORSDOF 9
