REMARK  Name = 123606
REMARK  6 active torsions:
REMARK  status: ('A' for Active; 'I' for Inactive)
REMARK    1  A    between atoms: C_2  and  C_11
REMARK    2  A    between atoms: C_5  and  C_20
REMARK    3  A    between atoms: C_11  and  S_12
REMARK    4  A    between atoms: S_12  and  N_15
REMARK    5  A    between atoms: C_20  and  C_21
REMARK    6  A    between atoms: C_21  and  N_22
REMARK                            x       y       z     vdW  Elec       q    Type
REMARK                         _______ _______ _______ _____ _____    ______ ____
ROOT
ATOM      1  N   UNL     1      -3.038  -2.937  -0.085  0.00  0.00    -0.312 N 
ATOM      2  C   UNL     1       0.676  -1.226   0.390  0.00  0.00    +0.003 C 
ATOM      3  C   UNL     1      -1.742  -1.182   0.380  0.00  0.00    +0.010 C 
ATOM      4  C   UNL     1      -0.514  -0.515   0.562  0.00  0.00    -0.002 C 
ATOM      5  C   UNL     1      -3.106  -0.789   0.469  0.00  0.00    -0.008 C 
ATOM      6  C   UNL     1      -1.727  -2.534   0.031  0.00  0.00    +0.048 C 
ATOM      7  C   UNL     1       0.665  -2.573   0.042  0.00  0.00    -0.001 C 
ATOM      8  C   UNL     1      -0.541  -3.256  -0.144  0.00  0.00    +0.014 C 
ATOM      9  C   UNL     1      -3.879  -1.889   0.178  0.00  0.00    +0.057 C 
ATOM     10  H   UNL     1      -3.329  -3.847  -0.322  0.00  0.00    +0.152 HD
ENDROOT
BRANCH   2  11
ATOM     11  C   UNL     1       1.985  -0.524   0.583  0.00  0.00    +0.195 C 
BRANCH  11  12
ATOM     12  S   UNL     1       2.473   0.152  -0.986  0.00  0.00    +0.048 S 
ATOM     13  O   UNL     1       2.743  -0.959  -1.879  0.00  0.00    -0.157 OA
ATOM     14  O   UNL     1       1.515   1.182  -1.339  0.00  0.00    -0.157 OA
BRANCH  12  15
ATOM     15  N   UNL     1       3.940   0.881  -0.537  0.00  0.00    -0.159 NA
ATOM     16  C   UNL     1       3.907   1.942   0.511  0.00  0.00    +0.095 C 
ATOM     17  C   UNL     1       5.104  -0.009  -0.272  0.00  0.00    +0.095 C 
ATOM     18  C   UNL     1       5.019   1.574   1.485  0.00  0.00    +0.021 C 
ATOM     19  C   UNL     1       6.012   0.828   0.615  0.00  0.00    +0.021 C 
ENDBRANCH  12  15
ENDBRANCH  11  12
ENDBRANCH   2  11
BRANCH   5  20
ATOM     20  C   UNL     1      -3.614   0.555   0.811  0.00  0.00    +0.005 C 
BRANCH  20  21
ATOM     21  C   UNL     1      -3.808   1.456  -0.423  0.00  0.00    -0.073 C 
BRANCH  21  22
ATOM     22  N   UNL     1      -4.282   2.786  -0.057  0.00  0.00    +0.384 N 
ATOM     23  C   UNL     1      -4.413   3.631  -1.245  0.00  0.00    -0.101 C 
ATOM     24  C   UNL     1      -3.376   3.407   0.911  0.00  0.00    -0.101 C 
ATOM     25  H   UNL     1      -5.200   2.690   0.375  0.00  0.00    -0.080 HD
ENDBRANCH  21  22
ENDBRANCH  20  21
ENDBRANCH   5  20
TORSDOF 6
