REMARK  Name = 18381
REMARK  5 active torsions:
REMARK  status: ('A' for Active; 'I' for Inactive)
REMARK    1  A    between atoms: N_2  and  CA_11
REMARK    2  A    between atoms: C_3  and  C_21
REMARK    3  A    between atoms: CA_10  and  C_16
REMARK    4  A    between atoms: C_16  and  O_17
REMARK    5  A    between atoms: C_22  and  C_27
REMARK                            x       y       z     vdW  Elec       q    Type
REMARK                         _______ _______ _______ _____ _____    ______ ____
ROOT
ATOM      1  O   UNL     1       1.497   2.864  -0.534  0.00  0.00    -0.270 OA
ATOM      2  N   UNL     1       0.604   1.188   0.773  0.00  0.00    -0.293 N 
ATOM      3  C   UNL     1       1.618   1.759  -0.006  0.00  0.00    +0.251 C 
ATOM      4  H   UNL     1       0.757   0.301   1.171  0.00  0.00    +0.150 HD
ENDROOT
BRANCH   2  11
ATOM      5  S   UNL     1      -1.323   0.879  -1.597  0.00  0.00    -0.118 S 
ATOM      6  O   UNL     1      -1.757   0.324   2.752  0.00  0.00    -0.273 OA
ATOM      7  N   UNL     1      -2.571   1.077   0.668  0.00  0.00    -0.260 N 
ATOM      8  C   UNL     1      -1.684   1.922  -0.137  0.00  0.00    +0.151 C 
ATOM      9  C   UNL     1      -2.999   0.075  -1.486  0.00  0.00    +0.068 C 
ATOM     10  CA  UNL     1      -3.251  -0.034   0.034  0.00  0.00    +0.184 C 
ATOM     11  CA  UNL     1      -0.679   1.861   1.022  0.00  0.00    +0.178 C 
ATOM     12  C   UNL     1      -1.722   0.976   1.733  0.00  0.00    +0.247 C 
ATOM     13  C   UNL     1      -4.001   0.965  -2.235  0.00  0.00    +0.013 C 
ATOM     14  C   UNL     1      -2.933  -1.306  -2.140  0.00  0.00    +0.013 C 
BRANCH  10  16
ATOM     15  OXT UNL     1      -5.178   0.915   1.135  0.00  0.00    -0.248 OA
ATOM     16  C   UNL     1      -4.686   0.031   0.451  0.00  0.00    +0.333 C 
BRANCH  16  17
ATOM     17  O   UNL     1      -5.373  -1.033  -0.033  0.00  0.00    -0.479 OA
ATOM     18  H   UNL     1      -4.934  -1.677  -0.553  0.00  0.00    +0.295 HD
ENDBRANCH  16  17
ENDBRANCH  10  16
ENDBRANCH   2  11
BRANCH   3  21
ATOM     19  O   UNL     1       4.980   0.491  -0.391  0.00  0.00    -0.358 OA
ATOM     20  N   UNL     1       4.311  -0.722  -0.267  0.00  0.00    -0.077 NA
ATOM     21  C   UNL     1       2.855   0.978  -0.138  0.00  0.00    +0.107 A 
ATOM     22  C   UNL     1       3.025  -0.393  -0.115  0.00  0.00    +0.129 A 
ATOM     23  C   UNL     1       4.083   1.507  -0.310  0.00  0.00    +0.159 A 
ATOM     24  C   UNL     1       4.630   2.866  -0.422  0.00  0.00    +0.076 C 
BRANCH  22  27
ATOM     25 CL   UNL     1       1.754  -1.430  -2.686  0.00  0.00    -0.082 Cl
ATOM     26 CL   UNL     1       2.444  -1.262   2.750  0.00  0.00    -0.082 Cl
ATOM     27  C   UNL     1       2.028  -1.419   0.043  0.00  0.00    +0.042 C 
ATOM     28  C   UNL     1       1.391  -1.957  -1.078  0.00  0.00    +0.060 C 
ATOM     29  C   UNL     1       1.693  -1.882   1.318  0.00  0.00    +0.060 C 
ATOM     30  C   UNL     1       0.425  -2.952  -0.924  0.00  0.00    +0.011 C 
ATOM     31  C   UNL     1       0.727  -2.876   1.471  0.00  0.00    +0.011 C 
ATOM     32  C   UNL     1       0.093  -3.411   0.350  0.00  0.00    +0.002 C 
ENDBRANCH  22  27
ENDBRANCH   3  21
TORSDOF 5
