REMARK  Name = 104758
REMARK  11 active torsions:
REMARK  status: ('A' for Active; 'I' for Inactive)
REMARK    1  A    between atoms: C_2  and  N_21
REMARK    2  A    between atoms: C_3  and  C_8
REMARK    3  A    between atoms: N_7  and  CA_10
REMARK    4  A    between atoms: CA_10  and  C_12
REMARK    5  A    between atoms: CA_10  and  CB_15
REMARK    6  A    between atoms: C_12  and  O_13
REMARK    7  A    between atoms: CB_15  and  CG_16
REMARK    8  A    between atoms: CG_16  and  CD_18
REMARK    9  A    between atoms: CD_18  and  OE1_19
REMARK   10  A    between atoms: N_21  and  C_23
REMARK   11  A    between atoms: C_23  and  C_27
REMARK                            x       y       z     vdW  Elec       q    Type
REMARK                         _______ _______ _______ _____ _____    ______ ____
ROOT
ATOM      1  S   UNL     1       0.426  -1.716   1.215  0.00  0.00    -0.068 S 
ATOM      2  C   UNL     1      -0.462  -2.131  -0.189  0.00  0.00    +0.079 C 
ATOM      3  C   UNL     1       1.524  -0.768   0.306  0.00  0.00    +0.084 C 
ATOM      4  C   UNL     1       0.069  -1.559  -1.324  0.00  0.00    +0.022 C 
ATOM      5  C   UNL     1       1.219  -0.769  -1.037  0.00  0.00    +0.013 C 
ENDROOT
BRANCH   3   8
ATOM      6  O   UNL     1       2.769  -0.145   2.223  0.00  0.00    -0.270 OA
ATOM      7  N   UNL     1       3.475   0.667   0.194  0.00  0.00    -0.293 N 
ATOM      8  C   ACE A   0       2.592  -0.104   0.981  0.00  0.00    +0.252 C 
ATOM      9  H   UNL     1       3.327   0.693  -0.779  0.00  0.00    +0.150 HD
BRANCH   7  10
ATOM     10  CA  UNL     1       4.583   1.420   0.736  0.00  0.00    +0.172 C 
BRANCH  10  12
ATOM     11  OXT UNL     1       4.104   2.931  -1.112  0.00  0.00    -0.248 OA
ATOM     12  C   UNL     1       4.726   2.683  -0.088  0.00  0.00    +0.332 C 
BRANCH  12  13
ATOM     13  O   UNL     1       5.613   3.551   0.465  0.00  0.00    -0.479 OA
ATOM     14  H   UNL     1       6.068   3.320   1.251  0.00  0.00    +0.295 HD
ENDBRANCH  12  13
ENDBRANCH  10  12
BRANCH  10  15
ATOM     15  CB  UNL     1       5.871   0.593   0.829  0.00  0.00    +0.043 C 
BRANCH  15  16
ATOM     16  CG  UNL     1       6.437   0.084  -0.503  0.00  0.00    +0.112 C 
BRANCH  16  18
ATOM     17  OE2 UNL     1       8.253  -1.006   0.702  0.00  0.00    -0.250 OA
ATOM     18  CD  UNL     1       7.700  -0.736  -0.355  0.00  0.00    +0.314 C 
BRANCH  18  19
ATOM     19  OE1 UNL     1       8.192  -1.119  -1.563  0.00  0.00    -0.480 OA
ATOM     20  HE1 UNL     1       7.735  -0.890  -2.349  0.00  0.00    +0.295 HD
ENDBRANCH  18  19
ENDBRANCH  16  18
ENDBRANCH  15  16
ENDBRANCH  10  15
ENDBRANCH   7  10
ENDBRANCH   3   8
BRANCH   2  21
ATOM     21  N   UNL     1      -1.579  -2.954  -0.124  0.00  0.00    -0.297 N 
ATOM     22  C   UNL     1      -1.689  -3.988   0.907  0.00  0.00    +0.113 C 
BRANCH  21  23
ATOM     23  C   UNL     1      -2.680  -2.830  -1.054  0.00  0.00    +0.118 C 
BRANCH  23  27
ATOM     24  O   UNL     1      -3.477   2.239  -1.530  0.00  0.00    -0.209 OA
ATOM     25  N   UNL     1      -6.489   0.969   0.791  0.00  0.00    -0.290 N 
ATOM     26  N   UNL     1      -5.367   2.745  -0.336  0.00  0.00    -0.322 NA
ATOM     27  C   UNL     1      -3.681  -1.837  -0.567  0.00  0.00    -0.002 C 
ATOM     28  C   UNL     1      -4.502   0.429  -0.461  0.00  0.00    +0.108 C 
ATOM     29  C   UNL     1      -3.559  -0.493  -0.922  0.00  0.00    +0.011 C 
ATOM     30  C   UNL     1      -5.567   0.016   0.352  0.00  0.00    +0.062 C 
ATOM     31  C   UNL     1      -4.739  -2.255   0.242  0.00  0.00    -0.001 C 
ATOM     32  C   UNL     1      -5.680  -1.332   0.701  0.00  0.00    +0.015 C 
ATOM     33  C   UNL     1      -4.407   1.872  -0.818  0.00  0.00    +0.207 C 
ATOM     34  C   UNL     1      -6.323   2.281   0.415  0.00  0.00    +0.174 C 
ATOM     35  C   UNL     1      -7.352   3.262   0.923  0.00  0.00    +0.085 C 
ATOM     36  H   UNL     1      -7.246   0.705   1.362  0.00  0.00    +0.154 HD
ENDBRANCH  23  27
ENDBRANCH  21  23
ENDBRANCH   2  21
TORSDOF 11
