REMARK  Name = 4679
REMARK  7 active torsions:
REMARK  status: ('A' for Active; 'I' for Inactive)
REMARK    1  A    between atoms: C_4  and  S_12
REMARK    2  A    between atoms: C_8  and  O_25
REMARK    3  A    between atoms: S_12  and  C_14
REMARK    4  A    between atoms: C_14  and  C_16
REMARK    5  A    between atoms: C_17  and  O_21
REMARK    6  A    between atoms: C_18  and  O_23
REMARK    7  A    between atoms: O_25  and  C_28
REMARK                            x       y       z     vdW  Elec       q    Type
REMARK                         _______ _______ _______ _____ _____    ______ ____
ROOT
ATOM      1  N   UNL     1       1.758   0.845  -0.795  0.00  0.00    -0.307 N 
ATOM      2  N   UNL     1       0.885  -0.888   0.288  0.00  0.00    -0.307 N 
ATOM      3  C   UNL     1       2.830   0.119  -0.344  0.00  0.00    +0.063 C 
ATOM      4  C   UNL     1       0.620   0.204  -0.393  0.00  0.00    +0.226 C 
ATOM      5  C   UNL     1       2.259  -0.958   0.330  0.00  0.00    +0.060 C 
ATOM      6  C   UNL     1       4.207   0.306  -0.462  0.00  0.00    +0.053 C 
ATOM      7  C   UNL     1       3.098  -1.915   0.926  0.00  0.00    +0.019 C 
ATOM      8  C   UNL     1       5.027  -0.656   0.137  0.00  0.00    +0.146 C 
ATOM      9  C   UNL     1       4.484  -1.748   0.819  0.00  0.00    +0.038 C 
ATOM     10  H   UNL     1       1.800   1.680  -1.316  0.00  0.00    +0.149 HD
ATOM     11  H   UNL     1       0.242  -1.520   0.683  0.00  0.00    +0.149 HD
ENDROOT
BRANCH   4  12
ATOM     12  S   UNL     1      -1.036   0.780  -0.748  0.00  0.00    +0.085 S 
ATOM     13  O   UNL     1      -1.057   2.293  -0.654  0.00  0.00    -0.252 OA
BRANCH  12  14
ATOM     14  C   UNL     1      -1.918   0.143   0.706  0.00  0.00    +0.144 C 
BRANCH  14  16
ATOM     15  N   UNL     1      -3.712   1.665   1.245  0.00  0.00    -0.244 NA
ATOM     16  C   UNL     1      -3.378   0.493   0.667  0.00  0.00    +0.109 C 
ATOM     17  C   UNL     1      -4.274  -0.367   0.063  0.00  0.00    +0.187 C 
ATOM     18  C   UNL     1      -5.615   0.002   0.051  0.00  0.00    +0.175 C 
ATOM     19  C   UNL     1      -6.005   1.202   0.636  0.00  0.00    +0.061 C 
ATOM     20  C   UNL     1      -5.024   1.990   1.214  0.00  0.00    +0.102 C 
BRANCH  17  21
ATOM     21  O   UNL     1      -3.870  -1.535  -0.503  0.00  0.00    -0.467 OA
ATOM     22  C   UNL     1      -4.409  -2.741   0.002  0.00  0.00    +0.253 C 
ENDBRANCH  17  21
BRANCH  18  23
ATOM     23  O   UNL     1      -6.551  -0.799  -0.529  0.00  0.00    -0.468 OA
ATOM     24  C   UNL     1      -6.835  -0.602  -1.899  0.00  0.00    +0.253 C 
ENDBRANCH  18  23
ENDBRANCH  14  16
ENDBRANCH  12  14
ENDBRANCH   4  12
BRANCH   8  25
ATOM     25  O   UNL     1       6.382  -0.525   0.053  0.00  0.00    -0.424 OA
BRANCH  25  28
ATOM     26  F   UNL     1       8.135   0.780   0.549  0.00  0.00    -0.155 F 
ATOM     27  F   UNL     1       7.093   1.120  -1.330  0.00  0.00    -0.155 F 
ATOM     28  C   UNL     1       6.905   0.794  -0.027  0.00  0.00    +0.509 C 
ENDBRANCH  25  28
ENDBRANCH   8  25
TORSDOF 7
