REMARK  Name = 681
REMARK  5 active torsions:
REMARK  status: ('A' for Active; 'I' for Inactive)
REMARK    1  A    between atoms: C_1  and  C_11
REMARK    2  A    between atoms: C_4  and  O_7
REMARK    3  A    between atoms: C_6  and  O_9
REMARK    4  A    between atoms: C_11  and  C_12
REMARK    5  A    between atoms: C_12  and  N_13
REMARK                            x       y       z     vdW  Elec       q    Type
REMARK                         _______ _______ _______ _____ _____    ______ ____
ROOT
ATOM      1  C   UNL     1       0.704  -0.160  -0.385  0.00  0.00    -0.021 C 
ATOM      2  C   UNL     1      -0.100   0.976  -0.292  0.00  0.00    +0.035 C 
ATOM      3  C   UNL     1       0.143  -1.427  -0.219  0.00  0.00    -0.001 C 
ATOM      4  C   UNL     1      -1.464   0.846  -0.033  0.00  0.00    +0.167 C 
ATOM      5  C   UNL     1      -1.221  -1.557   0.041  0.00  0.00    +0.039 C 
ATOM      6  C   UNL     1      -2.025  -0.421   0.134  0.00  0.00    +0.167 C 
ENDROOT
BRANCH   4   7
ATOM      7  O   UNL     1      -2.239   1.963   0.055  0.00  0.00    -0.503 OA
ATOM      8  H   UNL     1      -1.855   2.810  -0.058  0.00  0.00    +0.292 HD
ENDBRANCH   4   7
BRANCH   6   9
ATOM      9  O   UNL     1      -3.356  -0.561   0.387  0.00  0.00    -0.503 OA
ATOM     10  H   UNL     1      -3.903   0.197   0.451  0.00  0.00    +0.292 HD
ENDBRANCH   6   9
BRANCH   1  11
ATOM     11  C   UNL     1       2.163  -0.021  -0.661  0.00  0.00    +0.003 C 
BRANCH  11  12
ATOM     12  C   UNL     1       2.986   0.101   0.629  0.00  0.00    -0.081 C 
BRANCH  12  13
ATOM     13  N   UNL     1       4.408   0.262   0.344  0.00  0.00    +0.381 N 
ATOM     14  H   UNL     1       4.924   0.340   1.221  0.00  0.00    -0.089 HD
ATOM     15  H   UNL     1       4.550   1.107  -0.209  0.00  0.00    -0.089 HD
ATOM     16  H   UNL     1       4.745  -0.547  -0.177  0.00  0.00    -0.089 HD
ENDBRANCH  12  13
ENDBRANCH  11  12
ENDBRANCH   1  11
TORSDOF 5
