REMARK  Name = 3715
REMARK  5 active torsions:
REMARK  status: ('A' for Active; 'I' for Inactive)
REMARK    1  A    between atoms: C_3  and  C_22
REMARK    2  A    between atoms: C_10  and  C_14
REMARK    3  A    between atoms: C_11  and  O_20
REMARK    4  A    between atoms: C_22  and  C_24
REMARK    5  A    between atoms: C_24  and  O_25
REMARK                            x       y       z     vdW  Elec       q    Type
REMARK                         _______ _______ _______ _____ _____    ______ ____
ROOT
ATOM      1  O   UNL     1      -1.027   3.055   0.223  0.00  0.00    -0.267 OA
ATOM      2  N   UNL     1       0.142   1.117   0.260  0.00  0.00    -0.279 N 
ATOM      3  C   UNL     1       2.340   0.709   0.506  0.00  0.00    +0.003 A 
ATOM      4  C   UNL     1       1.682  -0.535   0.360  0.00  0.00    +0.017 A 
ATOM      5  C   UNL     1       0.314  -0.270   0.211  0.00  0.00    +0.066 A 
ATOM      6  C   UNL     1       1.385   1.693   0.448  0.00  0.00    +0.041 A 
ATOM      7  C   UNL     1       2.138  -1.870   0.344  0.00  0.00    +0.038 C 
ATOM      8  C   UNL     1      -0.606  -1.322   0.036  0.00  0.00    +0.021 C 
ATOM      9  C   UNL     1       1.608   3.154   0.561  0.00  0.00    +0.050 C 
ATOM     10  C   UNL     1      -1.073   1.830   0.173  0.00  0.00    +0.264 C 
ATOM     11  C   UNL     1       1.223  -2.910   0.176  0.00  0.00    +0.139 C 
ATOM     12  C   UNL     1      -0.130  -2.638   0.023  0.00  0.00    +0.038 C 
ENDROOT
BRANCH  10  14
ATOM     13 CL   UNL     1      -6.460  -0.687  -0.475  0.00  0.00    -0.082 Cl
ATOM     14  C   UNL     1      -2.402   1.209   0.012  0.00  0.00    +0.057 C 
ATOM     15  C   UNL     1      -3.144   0.861   1.138  0.00  0.00    +0.006 C 
ATOM     16  C   UNL     1      -2.909   0.975  -1.264  0.00  0.00    +0.006 C 
ATOM     17  C   UNL     1      -4.401   0.275   0.987  0.00  0.00    +0.012 C 
ATOM     18  C   UNL     1      -4.165   0.388  -1.415  0.00  0.00    +0.012 C 
ATOM     19  C   UNL     1      -4.911   0.038  -0.289  0.00  0.00    +0.058 C 
ENDBRANCH  10  14
BRANCH  11  20
ATOM     20  O   UNL     1       1.662  -4.200   0.160  0.00  0.00    -0.471 OA
ATOM     21  C   UNL     1       0.678  -5.217  -0.018  0.00  0.00    +0.252 C 
ENDBRANCH  11  20
BRANCH   3  22
ATOM     22  C   UNL     1       3.792   0.913   0.692  0.00  0.00    +0.137 C 
BRANCH  22  24
ATOM     23  O   UNL     1       4.188   0.466  -1.653  0.00  0.00    -0.250 OA
ATOM     24  C   UNL     1       4.507   1.064  -0.632  0.00  0.00    +0.318 C 
BRANCH  24  25
ATOM     25  O   UNL     1       5.571   1.902  -0.564  0.00  0.00    -0.480 OA
ATOM     26  H   UNL     1       5.774   2.337   0.241  0.00  0.00    +0.295 HD
ENDBRANCH  24  25
ENDBRANCH  22  24
ENDBRANCH   3  22
TORSDOF 5
