REMARK  Name = 2756
REMARK  6 active torsions:
REMARK  status: ('A' for Active; 'I' for Inactive)
REMARK    1  A    between atoms: C_1  and  S_2
REMARK    2  A    between atoms: C_1  and  C_12
REMARK    3  A    between atoms: S_2  and  C_3
REMARK    4  A    between atoms: C_3  and  C_6
REMARK    5  A    between atoms: C_12  and  N_13
REMARK    6  A    between atoms: N_14  and  C_21
REMARK                            x       y       z     vdW  Elec       q    Type
REMARK                         _______ _______ _______ _____ _____    ______ ____
ROOT
ATOM      1  C   UNL     1      -0.383  -1.622   1.148  0.00  0.00    +0.082 C 
ENDROOT
BRANCH   1   2
ATOM      2  S   UNL     1       0.742  -0.847  -0.055  0.00  0.00    -0.132 S 
BRANCH   2   3
ATOM      3  C   UNL     1       2.276  -1.006   0.887  0.00  0.00    +0.099 C 
BRANCH   3   6
ATOM      4  N   UNL     1       4.974   0.824  -0.681  0.00  0.00    -0.319 N 
ATOM      5  N   UNL     1       4.157  -1.241  -0.692  0.00  0.00    -0.318 N 
ATOM      6  C   UNL     1       3.438  -0.438   0.140  0.00  0.00    +0.043 C 
ATOM      7  C   UNL     1       3.909   0.839   0.174  0.00  0.00    +0.033 C 
ATOM      8  C   UNL     1       3.493   2.050   0.898  0.00  0.00    +0.048 C 
ATOM      9  C   UNL     1       5.084  -0.445  -1.177  0.00  0.00    +0.181 C 
ATOM     10  H   UNL     1       5.556   1.588  -0.900  0.00  0.00    +0.148 HD
ATOM     11  H   UNL     1       4.015  -2.196  -0.885  0.00  0.00    +0.148 HD
ENDBRANCH   3   6
ENDBRANCH   2   3
ENDBRANCH   1   2
BRANCH   1  12
ATOM     12  C   UNL     1      -1.810  -1.725   0.623  0.00  0.00    +0.112 C 
BRANCH  12  13
ATOM     13  N   UNL     1      -2.367  -0.419   0.352  0.00  0.00    -0.344 N 
ATOM     14  N   UNL     1      -4.037   1.173  -0.338  0.00  0.00    -0.263 N 
ATOM     15  N   UNL     1      -4.467  -1.185  -0.371  0.00  0.00    -0.237 NA
ATOM     16  C   UNL     1      -3.651  -0.205  -0.125  0.00  0.00    +0.208 C 
ATOM     17  C   UNL     1      -5.803  -0.904  -0.871  0.00  0.00    +0.155 C 
ATOM     18  H   UNL     1      -1.799   0.368   0.518  0.00  0.00    +0.163 HD
ATOM     19  H   UNL     1      -4.935   1.393  -0.676  0.00  0.00    +0.181 HD
BRANCH  14  21
ATOM     20  N   UNL     1      -2.399   3.000   0.159  0.00  0.00    -0.171 NA
ATOM     21  C   UNL     1      -3.155   2.149  -0.070  0.00  0.00    +0.184 C 
ENDBRANCH  14  21
ENDBRANCH  12  13
ENDBRANCH   1  12
TORSDOF 6
