REMARK  Name = 6992086
REMARK  5 active torsions:
REMARK  status: ('A' for Active; 'I' for Inactive)
REMARK    1  A    between atoms: CA_1  and  N_2
REMARK    2  A    between atoms: CA_1  and  C_8
REMARK    3  A    between atoms: CA_1  and  CB_9
REMARK    4  A    between atoms: CB_9  and  CG_10
REMARK    5  A    between atoms: CG_10  and  CD_13
REMARK                            x       y       z     vdW  Elec       q    Type
REMARK                         _______ _______ _______ _____ _____    ______ ____
ROOT
ATOM      1  CA  GLN A   1      -1.318   0.581  -0.531  0.00  0.00    +0.041 C 
ENDROOT
BRANCH   1   2
ATOM      2  N   GLN A   1      -2.083   1.847  -0.291  0.00  0.00    +0.389 N 
ATOM      3  H1  GLN A   1      -1.616   2.621  -0.765  0.00  0.00    -0.088 HD
ATOM      4  H2  GLN A   1      -2.123   2.036   0.710  0.00  0.00    -0.088 HD
ATOM      5  H3  GLN A   1      -3.030   1.747  -0.657  0.00  0.00    -0.088 HD
ENDBRANCH   1   2
BRANCH   1   8
ATOM      6  O   GLN A   1      -2.011  -0.578   1.428  0.00  0.00    -0.248 OA
ATOM      7  OXT GLN A   1      -2.423  -1.503  -0.621  0.00  0.00    -0.248 OA
ATOM      8  C   GLN A   1      -1.988  -0.614   0.166  0.00  0.00    +0.345 C 
ENDBRANCH   1   8
BRANCH   1   9
ATOM      9  CB  GLN A   1       0.125   0.845  -0.090  0.00  0.00    -0.001 C 
BRANCH   9  10
ATOM     10  CG  GLN A   1       1.045  -0.342  -0.382  0.00  0.00    +0.083 C 
BRANCH  10  13
ATOM     11  OE1 GLN A   1       2.864   0.979   0.530  0.00  0.00    -0.275 OA
ATOM     12  NE2 GLN A   1       3.309  -1.143  -0.236  0.00  0.00    -0.329 N 
ATOM     13  CD  GLN A   1       2.480  -0.073   0.026  0.00  0.00    +0.219 C 
ATOM     14 HE21 GLN A   1       4.267  -1.090  -0.016  0.00  0.00    +0.145 HD
ATOM     15 HE22 GLN A   1       2.942  -1.960  -0.645  0.00  0.00    +0.145 HD
ENDBRANCH  10  13
ENDBRANCH   9  10
ENDBRANCH   1   9
TORSDOF 5
