REMARK  Name = 5962
REMARK  8 active torsions:
REMARK  status: ('A' for Active; 'I' for Inactive)
REMARK    1  A    between atoms: CA_1  and  N_2
REMARK    2  A    between atoms: CA_1  and  C_7
REMARK    3  A    between atoms: CA_1  and  CB_10
REMARK    4  A    between atoms: C_7  and  O_8
REMARK    5  A    between atoms: CB_10  and  CG_11
REMARK    6  A    between atoms: CG_11  and  CD_12
REMARK    7  A    between atoms: CD_12  and  CE_13
REMARK    8  A    between atoms: CE_13  and  NZ_14
REMARK                            x       y       z     vdW  Elec       q    Type
REMARK                         _______ _______ _______ _____ _____    ______ ____
ROOT
ATOM      1  CA  LYS A   1      -1.413   0.353  -0.432  0.00  0.00    +0.036 C 
ENDROOT
BRANCH   1   2
ATOM      2  N   LYS A   1      -1.503   1.769  -0.072  0.00  0.00    +0.389 N 
ATOM      3  H1  LYS A   1      -0.651   2.249  -0.365  0.00  0.00    -0.088 HD
ATOM      4  H2  LYS A   1      -1.612   1.856   0.939  0.00  0.00    -0.088 HD
ATOM      5  H3  LYS A   1      -2.307   2.189  -0.538  0.00  0.00    -0.088 HD
ENDBRANCH   1   2
BRANCH   1   7
ATOM      6  OXT LYS A   1      -3.564   0.262   0.661  0.00  0.00    -0.253 OA
ATOM      7  C   LYS A   1      -2.694  -0.318   0.019  0.00  0.00    +0.293 C 
BRANCH   7   8
ATOM      8  O   LYS A   1      -2.791  -1.623  -0.332  0.00  0.00    -0.482 OA
ATOM      9  H   LYS A   1      -2.103  -2.029  -0.823  0.00  0.00    +0.295 HD
ENDBRANCH   7   8
ENDBRANCH   1   7
BRANCH   1  10
ATOM     10  CB  LYS A   1      -0.155  -0.296   0.159  0.00  0.00    -0.011 C 
BRANCH  10  11
ATOM     11  CG  LYS A   1       1.167   0.329  -0.305  0.00  0.00    -0.004 C 
BRANCH  11  12
ATOM     12  CD  LYS A   1       2.407  -0.383   0.243  0.00  0.00    -0.024 C 
BRANCH  12  13
ATOM     13  CE  LYS A   1       3.688   0.301  -0.233  0.00  0.00    -0.086 C 
BRANCH  13  14
ATOM     14  NZ  LYS A   1       4.858  -0.394   0.292  0.00  0.00    +0.380 N 
ATOM     15  HZ1 LYS A   1       5.705   0.072  -0.034  0.00  0.00    -0.089 HD
ATOM     16  HZ2 LYS A   1       4.854  -1.360  -0.035  0.00  0.00    -0.089 HD
ATOM     17  HZ3 LYS A   1       4.833  -0.380   1.311  0.00  0.00    -0.089 HD
ENDBRANCH  13  14
ENDBRANCH  12  13
ENDBRANCH  11  12
ENDBRANCH  10  11
ENDBRANCH   1  10
TORSDOF 8
