REMARK  Name = 2576
REMARK  9 active torsions:
REMARK  status: ('A' for Active; 'I' for Inactive)
REMARK    1  A    between atoms: C_1  and  C_3
REMARK    2  A    between atoms: C_1  and  C_6
REMARK    3  A    between atoms: C_1  and  C_15
REMARK    4  A    between atoms: C_3  and  C_4
REMARK    5  A    between atoms: C_6  and  O_7
REMARK    6  A    between atoms: O_7  and  C_10
REMARK    7  A    between atoms: N_9  and  C_12
REMARK    8  A    between atoms: C_15  and  O_16
REMARK    9  A    between atoms: O_16  and  C_19
REMARK                            x       y       z     vdW  Elec       q    Type
REMARK                         _______ _______ _______ _____ _____    ______ ____
ROOT
ATOM      1  C   UNL     1      -1.663  -0.935   0.283  0.00  0.00    +0.081 C 
ATOM      2  C   UNL     1      -2.744  -1.201   1.349  0.00  0.00    +0.007 C 
ENDROOT
BRANCH   1   3
ATOM      3  C   UNL     1      -1.514  -2.160  -0.667  0.00  0.00    +0.007 C 
BRANCH   3   4
ATOM      4  C   UNL     1      -1.161  -3.488   0.015  0.00  0.00    +0.000 C 
ATOM      5  C   UNL     1      -1.094  -4.625  -0.996  0.00  0.00    +0.000 C 
ENDBRANCH   3   4
ENDBRANCH   1   3
BRANCH   1   6
ATOM      6  C   UNL     1      -0.336  -0.606   1.008  0.00  0.00    +0.213 C 
BRANCH   6   7
ATOM      7  O   UNL     1       0.714  -0.340   0.088  0.00  0.00    -0.435 OA
BRANCH   7  10
ATOM      8  O   UNL     1       2.160   0.015   1.836  0.00  0.00    -0.226 OA
ATOM      9  N   UNL     1       2.855   0.198  -0.370  0.00  0.00    -0.272 N 
ATOM     10  C   UNL     1       1.936  -0.036   0.631  0.00  0.00    +0.402 C 
ATOM     11  H   UNL     1       2.553   0.125  -1.304  0.00  0.00    +0.153 HD
BRANCH   9  12
ATOM     12  C   UNL     1       4.237   0.542  -0.125  0.00  0.00    +0.075 C 
ATOM     13  C   UNL     1       4.389   2.051   0.011  0.00  0.00    +0.021 C 
ATOM     14  C   UNL     1       5.128  -0.005  -1.233  0.00  0.00    +0.021 C 
ENDBRANCH   9  12
ENDBRANCH   7  10
ENDBRANCH   6   7
ENDBRANCH   1   6
BRANCH   1  15
ATOM     15  C   UNL     1      -2.127   0.287  -0.554  0.00  0.00    +0.213 C 
BRANCH  15  16
ATOM     16  O   UNL     1      -2.300   1.446   0.251  0.00  0.00    -0.435 OA
BRANCH  16  19
ATOM     17  O   UNL     1      -2.930   2.652  -1.605  0.00  0.00    -0.227 OA
ATOM     18  N   UNL     1      -2.841   3.626   0.476  0.00  0.00    -0.295 N 
ATOM     19  C   UNL     1      -2.709   2.578  -0.401  0.00  0.00    +0.398 C 
ATOM     20  H   UNL     1      -2.647   3.494   1.432  0.00  0.00    +0.148 HD
ATOM     21  H   UNL     1      -3.130   4.508   0.149  0.00  0.00    +0.148 HD
ENDBRANCH  16  19
ENDBRANCH  15  16
ENDBRANCH   1  15
TORSDOF 9
