REMARK  Name = 5073
REMARK  4 active torsions:
REMARK  status: ('A' for Active; 'I' for Inactive)
REMARK    1  A    between atoms: N_1  and  C_18
REMARK    2  A    between atoms: C_2  and  C_11
REMARK    3  A    between atoms: C_18  and  C_19
REMARK    4  A    between atoms: C_19  and  C_23
REMARK                            x       y       z     vdW  Elec       q    Type
REMARK                         _______ _______ _______ _____ _____    ______ ____
ROOT
ATOM      1  N   UNL     1      -0.046   1.019   0.334  0.00  0.00    +0.387 N 
ATOM      2  C   UNL     1       2.792   0.281   0.224  0.00  0.00    +0.039 C 
ATOM      3  C   UNL     1       1.884   0.259  -1.017  0.00  0.00    -0.017 C 
ATOM      4  C   UNL     1       2.236   1.273   1.259  0.00  0.00    -0.017 C 
ATOM      5  C   UNL     1       0.423   0.015  -0.632  0.00  0.00    -0.077 C 
ATOM      6  C   UNL     1       0.762   0.992   1.561  0.00  0.00    -0.077 C 
ATOM      7  H   UNL     1       0.060   1.939  -0.093  0.00  0.00    -0.080 HD
ENDROOT
BRANCH   2  11
ATOM      8  F   UNL     1       9.191  -1.783   0.149  0.00  0.00    -0.204 F 
ATOM      9  O   UNL     1       5.952   1.624  -0.866  0.00  0.00    -0.354 OA
ATOM     10  N   UNL     1       4.577   1.700  -0.687  0.00  0.00    -0.081 NA
ATOM     11  C   UNL     1       4.241   0.544  -0.118  0.00  0.00    +0.100 A 
ATOM     12  C   UNL     1       5.337  -0.305   0.091  0.00  0.00    +0.054 A 
ATOM     13  C   UNL     1       6.404   0.427  -0.402  0.00  0.00    +0.179 A 
ATOM     14  C   UNL     1       5.575  -1.581   0.623  0.00  0.00    +0.007 C 
ATOM     15  C   UNL     1       7.723  -0.017  -0.410  0.00  0.00    +0.070 C 
ATOM     16  C   UNL     1       6.893  -2.060   0.632  0.00  0.00    +0.030 C 
ATOM     17  C   UNL     1       7.945  -1.291   0.124  0.00  0.00    +0.143 C 
ENDBRANCH   2  11
BRANCH   1  18
ATOM     18  C   UNL     1      -1.459   0.806   0.647  0.00  0.00    -0.076 C 
BRANCH  18  19
ATOM     19  C   UNL     1      -2.289   0.890  -0.626  0.00  0.00    -0.007 C 
BRANCH  19  23
ATOM     20  O   UNL     1      -3.441  -1.640  -0.753  0.00  0.00    -0.274 OA
ATOM     21  N   UNL     1      -5.581  -0.934  -0.163  0.00  0.00    -0.237 N 
ATOM     22  N   UNL     1      -5.981   1.368   0.211  0.00  0.00    -0.399 NA
ATOM     23  C   UNL     1      -3.744   0.669  -0.331  0.00  0.00    +0.123 C 
ATOM     24  C   UNL     1      -6.109  -2.291  -0.339  0.00  0.00    +0.100 C 
ATOM     25  C   UNL     1      -7.462  -2.534   0.303  0.00  0.00    +0.022 C 
ATOM     26  C   UNL     1      -6.397   0.144   0.130  0.00  0.00    +0.165 C 
ATOM     27  C   UNL     1      -8.404  -1.414  -0.086  0.00  0.00    +0.011 C 
ATOM     28  C   UNL     1      -7.860  -0.105   0.448  0.00  0.00    +0.075 C 
ATOM     29  C   UNL     1      -4.224  -0.745  -0.435  0.00  0.00    +0.237 C 
ATOM     30  C   UNL     1      -4.649   1.617  -0.018  0.00  0.00    +0.096 C 
ATOM     31  C   UNL     1      -4.288   3.070   0.146  0.00  0.00    +0.062 C 
ENDBRANCH  19  23
ENDBRANCH  18  19
ENDBRANCH   1  18
TORSDOF 4
