REMARK  Name = 10917
REMARK  5 active torsions:
REMARK  status: ('A' for Active; 'I' for Inactive)
REMARK    1  A    between atoms: C_1  and  O_2
REMARK    2  A    between atoms: C_1  and  C_4
REMARK    3  A    between atoms: C_1  and  C_9
REMARK    4  A    between atoms: C_4  and  N_5
REMARK    5  A    between atoms: C_9  and  C_12
REMARK                            x       y       z     vdW  Elec       q    Type
REMARK                         _______ _______ _______ _____ _____    ______ ____
ROOT
ATOM      1  C   UNL     1      -0.200  -0.610   0.728  0.00  0.00    +0.102 C 
ENDROOT
BRANCH   1   2
ATOM      2  O   UNL     1      -0.083  -1.588  -0.306  0.00  0.00    -0.386 OA
ATOM      3  H   UNL     1       0.855  -1.752  -0.491  0.00  0.00    +0.210 HD
ENDBRANCH   1   2
BRANCH   1   4
ATOM      4  C   UNL     1       0.571   0.632   0.284  0.00  0.00    -0.043 C 
BRANCH   4   5
ATOM      5  N   UNL     1       2.015   0.288  -0.051  0.00  0.00    +0.387 N 
ATOM      6  C   UNL     1       2.691  -0.313   1.173  0.00  0.00    -0.096 C 
ATOM      7  C   UNL     1       2.046  -0.718  -1.193  0.00  0.00    -0.096 C 
ATOM      8  C   UNL     1       2.754   1.552  -0.469  0.00  0.00    -0.096 C 
ENDBRANCH   4   5
ENDBRANCH   1   4
BRANCH   1   9
ATOM      9  C   UNL     1      -1.676  -0.344   1.027  0.00  0.00    +0.141 C 
BRANCH   9  12
ATOM     10  O   UNL     1      -3.430   1.011   0.234  0.00  0.00    -0.246 OA
ATOM     11  O   UNL     1      -2.183  -0.139  -1.295  0.00  0.00    -0.246 OA
ATOM     12  C   UNL     1      -2.505   0.228  -0.132  0.00  0.00    +0.367 C 
ENDBRANCH   9  12
ENDBRANCH   1   9
TORSDOF 5
