REMARK  Name = 3052
REMARK  2 active torsions:
REMARK  status: ('A' for Active; 'I' for Inactive)
REMARK    1  A    between atoms: N_4  and  C_12
REMARK    2  A    between atoms: N_4  and  C_14
REMARK                            x       y       z     vdW  Elec       q    Type
REMARK                         _______ _______ _______ _____ _____    ______ ____
ROOT
ATOM      1  O   UNL     1      -0.897  -0.253  -1.988  0.00  0.00    -0.252 OA
ATOM      2  N   UNL     1       0.362  -0.588  -0.089  0.00  0.00    -0.268 N 
ATOM      3  N   UNL     1       3.119   0.014   0.394  0.00  0.00    +0.388 N 
ATOM      4  N   UNL     1      -1.928   0.101   0.041  0.00  0.00    -0.264 N 
ATOM      5  C   UNL     1       0.777  -0.052   1.212  0.00  0.00    +0.072 C 
ATOM      6  C   UNL     1       1.419  -1.299  -0.805  0.00  0.00    +0.072 C 
ATOM      7  C   UNL     1       2.058   0.778   1.069  0.00  0.00    -0.055 C 
ATOM      8  C   UNL     1       2.670  -0.432  -0.934  0.00  0.00    -0.055 C 
ATOM      9  C   UNL     1      -0.824  -0.245  -0.752  0.00  0.00    +0.307 C 
ATOM     10  C   UNL     1       4.337   0.815   0.282  0.00  0.00    -0.101 C 
ATOM     11  H   UNL     1       3.327  -0.811   0.957  0.00  0.00    -0.080 HD
ENDROOT
BRANCH   4  12
ATOM     12  C   UNL     1      -2.908   1.044  -0.481  0.00  0.00    +0.095 C 
ATOM     13  C   UNL     1      -2.548   2.472  -0.127  0.00  0.00    +0.023 C 
ENDBRANCH   4  12
BRANCH   4  14
ATOM     14  C   UNL     1      -2.330  -0.619   1.247  0.00  0.00    +0.095 C 
ATOM     15  C   UNL     1      -3.305  -1.734   0.929  0.00  0.00    +0.023 C 
ENDBRANCH   4  14
TORSDOF 2
