REMARK  Name = 3345
REMARK  6 active torsions:
REMARK  status: ('A' for Active; 'I' for Inactive)
REMARK    1  A    between atoms: N_1  and  C_19
REMARK    2  A    between atoms: C_2  and  N_9
REMARK    3  A    between atoms: N_9  and  C_11
REMARK    4  A    between atoms: C_10  and  C_17
REMARK    5  A    between atoms: C_19  and  C_20
REMARK    6  A    between atoms: C_20  and  C_21
REMARK                            x       y       z     vdW  Elec       q    Type
REMARK                         _______ _______ _______ _____ _____    ______ ____
ROOT
ATOM      1  N   UNL     1       1.291  -0.111  -0.478  0.00  0.00    +0.387 N 
ATOM      2  C   UNL     1      -1.477  -1.020  -0.202  0.00  0.00    +0.076 C 
ATOM      3  C   UNL     1      -0.940  -0.420  -1.502  0.00  0.00    -0.003 C 
ATOM      4  C   UNL     1      -0.660  -0.516   0.988  0.00  0.00    -0.003 C 
ATOM      5  C   UNL     1       0.566  -0.648  -1.639  0.00  0.00    -0.076 C 
ATOM      6  C   UNL     1       0.837  -0.742   0.769  0.00  0.00    -0.076 C 
ATOM      7  H   UNL     1       1.091   0.887  -0.417  0.00  0.00    -0.080 HD
ENDROOT
BRANCH   2   9
ATOM      8  O   UNL     1      -3.700  -2.940  -0.031  0.00  0.00    -0.275 OA
ATOM      9  N   UNL     1      -2.876  -0.718  -0.036  0.00  0.00    -0.260 N 
ATOM     10  C   UNL     1      -3.887  -1.723   0.036  0.00  0.00    +0.229 C 
BRANCH   9  11
ATOM     11  C   UNL     1      -3.280   0.684   0.062  0.00  0.00    +0.054 C 
ATOM     12  C   UNL     1      -3.321   1.243   1.305  0.00  0.00    +0.015 C 
ATOM     13  C   UNL     1      -3.585   1.335  -1.095  0.00  0.00    +0.015 C 
ATOM     14  C   UNL     1      -3.705   2.580   1.398  0.00  0.00    +0.001 C 
ATOM     15  C   UNL     1      -3.968   2.673  -1.001  0.00  0.00    +0.001 C 
ATOM     16  C   UNL     1      -4.029   3.296   0.245  0.00  0.00    +0.000 C 
ENDBRANCH   9  11
BRANCH  10  17
ATOM     17  C   UNL     1      -5.313  -1.194   0.165  0.00  0.00    +0.086 C 
ATOM     18  C   UNL     1      -6.348  -2.306   0.253  0.00  0.00    +0.010 C 
ENDBRANCH  10  17
ENDBRANCH   2   9
BRANCH   1  19
ATOM     19  C   UNL     1       2.733  -0.292  -0.648  0.00  0.00    -0.073 C 
BRANCH  19  20
ATOM     20  C   UNL     1       3.506   0.379   0.488  0.00  0.00    +0.004 C 
BRANCH  20  21
ATOM     21  C   UNL     1       4.995   0.219   0.314  0.00  0.00    -0.024 C 
ATOM     22  C   UNL     1       5.632  -0.881   0.867  0.00  0.00    -0.004 C 
ATOM     23  C   UNL     1       5.704   1.176  -0.397  0.00  0.00    -0.004 C 
ATOM     24  C   UNL     1       7.010  -1.029   0.706  0.00  0.00    -0.000 C 
ATOM     25  C   UNL     1       7.081   1.029  -0.559  0.00  0.00    -0.000 C 
ATOM     26  C   UNL     1       7.734  -0.074  -0.007  0.00  0.00    -0.000 C 
ENDBRANCH  20  21
ENDBRANCH  19  20
ENDBRANCH   1  19
TORSDOF 6
