REMARK  Name = 3826
REMARK  4 active torsions:
REMARK  status: ('A' for Active; 'I' for Inactive)
REMARK    1  A    between atoms: C_2  and  C_10
REMARK    2  A    between atoms: C_6  and  C_14
REMARK    3  A    between atoms: C_10  and  O_11
REMARK    4  A    between atoms: C_14  and  C_15
REMARK                            x       y       z     vdW  Elec       q    Type
REMARK                         _______ _______ _______ _____ _____    ______ ____
ROOT
ATOM      1  N   UNL     1      -0.966  -0.713   0.280  0.00  0.00    -0.287 N 
ATOM      2  C   UNL     1      -3.259  -0.229   0.305  0.00  0.00    +0.136 C 
ATOM      3  C   UNL     1      -2.718  -0.301   1.758  0.00  0.00    +0.039 C 
ATOM      4  C   UNL     1      -1.180  -0.279   1.645  0.00  0.00    +0.096 C 
ATOM      5  C   UNL     1      -2.097  -0.690  -0.482  0.00  0.00    +0.039 C 
ATOM      6  C   UNL     1       0.102  -1.145  -0.421  0.00  0.00    +0.091 C 
ATOM      7  C   UNL     1      -1.764  -1.123  -1.738  0.00  0.00    +0.012 C 
ATOM      8  C   UNL     1      -0.364  -1.411  -1.700  0.00  0.00    +0.019 C 
ENDROOT
BRANCH   2  10
ATOM      9  O   UNL     1      -3.006   1.762  -0.984  0.00  0.00    -0.250 OA
ATOM     10  C   UNL     1      -3.590   1.174  -0.087  0.00  0.00    +0.319 C 
BRANCH  10  11
ATOM     11  O   UNL     1      -4.594   1.694   0.658  0.00  0.00    -0.480 OA
ATOM     12  H   UNL     1      -4.994   1.179   1.331  0.00  0.00    +0.295 HD
ENDBRANCH  10  11
ENDBRANCH   2  10
BRANCH   6  14
ATOM     13  O   UNL     1       1.816  -2.354   0.613  0.00  0.00    -0.285 OA
ATOM     14  C   UNL     1       1.428  -1.283   0.091  0.00  0.00    +0.209 C 
BRANCH  14  15
ATOM     15  C   UNL     1       2.450  -0.175   0.048  0.00  0.00    +0.040 C 
ATOM     16  C   UNL     1       2.082   1.019  -0.510  0.00  0.00    +0.003 C 
ATOM     17  C   UNL     1       3.691  -0.424   0.571  0.00  0.00    +0.003 C 
ATOM     18  C   UNL     1       3.028   2.044  -0.549  0.00  0.00    +0.000 C 
ATOM     19  C   UNL     1       4.636   0.601   0.531  0.00  0.00    +0.000 C 
ATOM     20  C   UNL     1       4.305   1.834  -0.029  0.00  0.00    +0.000 C 
ENDBRANCH  14  15
ENDBRANCH   6  14
TORSDOF 4
