REMARK  Name = 5355
REMARK  7 active torsions:
REMARK  status: ('A' for Active; 'I' for Inactive)
REMARK    1  A    between atoms: C_1  and  C_9
REMARK    2  A    between atoms: C_3  and  O_26
REMARK    3  A    between atoms: C_4  and  S_20
REMARK    4  A    between atoms: N_8  and  C_11
REMARK    5  A    between atoms: C_11  and  C_13
REMARK    6  A    between atoms: N_12  and  C_18
REMARK    7  A    between atoms: S_20  and  N_23
REMARK                            x       y       z     vdW  Elec       q    Type
REMARK                         _______ _______ _______ _____ _____    ______ ____
ROOT
ATOM      1  C   UNL     1       1.240  -0.157   0.424  0.00  0.00    +0.089 C 
ATOM      2  C   UNL     1       2.294   0.709   0.214  0.00  0.00    +0.027 C 
ATOM      3  C   UNL     1       1.402  -1.528   0.412  0.00  0.00    +0.143 C 
ATOM      4  C   UNL     1       3.564   0.182  -0.019  0.00  0.00    +0.122 C 
ATOM      5  C   UNL     1       2.672  -2.055   0.179  0.00  0.00    +0.038 C 
ATOM      6  C   UNL     1       3.754  -1.200  -0.037  0.00  0.00    +0.023 C 
ENDROOT
BRANCH   1   9
ATOM      7  O   UNL     1      -0.442   0.694   1.820  0.00  0.00    -0.270 OA
ATOM      8  N   UNL     1      -0.873   0.640  -0.457  0.00  0.00    -0.303 N 
ATOM      9  C   UNL     1      -0.105   0.425   0.670  0.00  0.00    +0.249 C 
ATOM     10  H   UNL     1      -0.510   0.389  -1.336  0.00  0.00    +0.150 HD
BRANCH   8  11
ATOM     11  C   UNL     1      -2.203   1.228  -0.383  0.00  0.00    +0.069 C 
BRANCH  11  13
ATOM     12  N   UNL     1      -4.640   0.676  -0.267  0.00  0.00    +0.389 N 
ATOM     13  C   UNL     1      -3.268   0.151  -0.219  0.00  0.00    -0.038 C 
ATOM     14  C   UNL     1      -3.248  -0.849  -1.377  0.00  0.00    -0.021 C 
ATOM     15  C   UNL     1      -4.702  -1.264  -1.575  0.00  0.00    -0.025 C 
ATOM     16  C   UNL     1      -5.482  -0.495  -0.522  0.00  0.00    -0.077 C 
ATOM     17  H   UNL     1      -4.729   1.388  -0.992  0.00  0.00    -0.080 HD
BRANCH  12  18
ATOM     18  C   UNL     1      -5.038   1.363   0.955  0.00  0.00    -0.077 C 
ATOM     19  C   UNL     1      -6.466   1.874   0.858  0.00  0.00    -0.025 C 
ENDBRANCH  12  18
ENDBRANCH  11  13
ENDBRANCH   8  11
ENDBRANCH   1   9
BRANCH   4  20
ATOM     20  S   UNL     1       4.918   1.252  -0.289  0.00  0.00    +0.057 S 
ATOM     21  O   UNL     1       4.618   2.536   0.328  0.00  0.00    -0.153 OA
ATOM     22  O   UNL     1       6.142   0.547   0.065  0.00  0.00    -0.153 OA
BRANCH  20  23
ATOM     23  N   UNL     1       4.859   1.429  -1.988  0.00  0.00    -0.203 NA
ATOM     24  H   UNL     1       5.612   2.045  -2.292  0.00  0.00    +0.144 HD
ATOM     25  H   UNL     1       3.961   1.832  -2.256  0.00  0.00    +0.144 HD
ENDBRANCH  20  23
ENDBRANCH   4  20
BRANCH   3  26
ATOM     26  O   UNL     1       0.358  -2.380   0.621  0.00  0.00    -0.471 OA
ATOM     27  C   UNL     1       0.645  -3.776   0.586  0.00  0.00    +0.252 C 
ENDBRANCH   3  26
TORSDOF 7
