REMARK  Name = 34359
REMARK  8 active torsions:
REMARK  status: ('A' for Active; 'I' for Inactive)
REMARK    1  A    between atoms: C_1  and  C_4
REMARK    2  A    between atoms: C_1  and  N_7
REMARK    3  A    between atoms: C_1  and  C_12
REMARK    4  A    between atoms: C_4  and  O_5
REMARK    5  A    between atoms: N_7  and  N_9
REMARK    6  A    between atoms: C_12  and  C_13
REMARK    7  A    between atoms: C_16  and  O_19
REMARK    8  A    between atoms: C_18  and  O_21
REMARK                            x       y       z     vdW  Elec       q    Type
REMARK                         _______ _______ _______ _____ _____    ______ ____
ROOT
ATOM      1  C   UNL     1      -2.025  -0.399  -0.132  0.00  0.00    +0.148 C 
ATOM      2  C   UNL     1      -2.009  -1.409   1.026  0.00  0.00    +0.029 C 
ENDROOT
BRANCH   1   4
ATOM      3  O   UNL     1      -2.432   2.007  -0.134  0.00  0.00    -0.249 OA
ATOM      4  C   UNL     1      -1.938   1.028   0.414  0.00  0.00    +0.328 C 
BRANCH   4   5
ATOM      5  O   UNL     1      -1.239   1.132   1.574  0.00  0.00    -0.479 OA
ATOM      6  H   UNL     1      -0.872   0.365   1.970  0.00  0.00    +0.295 HD
ENDBRANCH   4   5
ENDBRANCH   1   4
BRANCH   1   7
ATOM      7  N   UNL     1      -3.335  -0.539  -0.786  0.00  0.00    -0.241 NA
ATOM      8  H   UNL     1      -3.412   0.128  -1.554  0.00  0.00    +0.142 HD
BRANCH   7   9
ATOM      9  N   UNL     1      -4.338  -0.274   0.189  0.00  0.00    -0.269 NA
ATOM     10  H   UNL     1      -4.254  -0.945   0.953  0.00  0.00    +0.137 HD
ATOM     11  H   UNL     1      -5.259  -0.360  -0.240  0.00  0.00    +0.137 HD
ENDBRANCH   7   9
ENDBRANCH   1   7
BRANCH   1  12
ATOM     12  C   UNL     1      -0.919  -0.696  -1.173  0.00  0.00    +0.053 C 
BRANCH  12  13
ATOM     13  C   UNL     1       0.502  -0.561  -0.670  0.00  0.00    -0.017 C 
ATOM     14  C   UNL     1       1.141   0.662  -0.772  0.00  0.00    +0.036 C 
ATOM     15  C   UNL     1       1.132  -1.664  -0.120  0.00  0.00    -0.001 C 
ATOM     16  C   UNL     1       2.451   0.786  -0.308  0.00  0.00    +0.167 C 
ATOM     17  C   UNL     1       2.441  -1.540   0.343  0.00  0.00    +0.039 C 
ATOM     18  C   UNL     1       3.101  -0.315   0.249  0.00  0.00    +0.167 C 
BRANCH  16  19
ATOM     19  O   UNL     1       3.085   1.988  -0.405  0.00  0.00    -0.503 OA
ATOM     20  H   UNL     1       2.642   2.723  -0.781  0.00  0.00    +0.292 HD
ENDBRANCH  16  19
BRANCH  18  21
ATOM     21  O   UNL     1       4.380  -0.206   0.706  0.00  0.00    -0.503 OA
ATOM     22  H   UNL     1       4.830   0.614   0.646  0.00  0.00    +0.292 HD
ENDBRANCH  18  21
ENDBRANCH  12  13
ENDBRANCH   1  12
TORSDOF 8
