REMARK  Name = 5816
REMARK  6 active torsions:
REMARK  status: ('A' for Active; 'I' for Inactive)
REMARK    1  A    between atoms: C_1  and  C_11
REMARK    2  A    between atoms: C_4  and  O_7
REMARK    3  A    between atoms: C_6  and  O_9
REMARK    4  A    between atoms: C_11  and  O_12
REMARK    5  A    between atoms: C_11  and  C_14
REMARK    6  A    between atoms: C_14  and  N_15
REMARK                            x       y       z     vdW  Elec       q    Type
REMARK                         _______ _______ _______ _____ _____    ______ ____
ROOT
ATOM      1  C   UNL     1       0.268  -0.687   0.121  0.00  0.00    +0.005 C 
ATOM      2  C   UNL     1      -0.366  -0.010  -0.921  0.00  0.00    +0.038 C 
ATOM      3  C   UNL     1      -0.416  -0.934   1.310  0.00  0.00    +0.001 C 
ATOM      4  C   UNL     1      -1.685   0.419  -0.773  0.00  0.00    +0.167 C 
ATOM      5  C   UNL     1      -1.735  -0.505   1.458  0.00  0.00    +0.040 C 
ATOM      6  C   UNL     1      -2.370   0.171   0.417  0.00  0.00    +0.167 C 
ENDROOT
BRANCH   4   7
ATOM      7  O   UNL     1      -2.294   1.078  -1.798  0.00  0.00    -0.503 OA
ATOM      8  H   UNL     1      -1.827   1.241  -2.594  0.00  0.00    +0.292 HD
ENDBRANCH   4   7
BRANCH   6   9
ATOM      9  O   UNL     1      -3.658   0.584   0.572  0.00  0.00    -0.503 OA
ATOM     10  H   UNL     1      -4.092   1.039  -0.123  0.00  0.00    +0.292 HD
ENDBRANCH   6   9
BRANCH   1  11
ATOM     11  C   UNL     1       1.679  -1.145  -0.037  0.00  0.00    +0.112 C 
BRANCH  11  12
ATOM     12  O   UNL     1       1.739  -2.117  -1.089  0.00  0.00    -0.382 OA
ATOM     13  H   UNL     1       1.136  -2.849  -0.888  0.00  0.00    +0.211 HD
ENDBRANCH  11  12
BRANCH  11  14
ATOM     14  C   UNL     1       2.638   0.019  -0.358  0.00  0.00    -0.047 C 
BRANCH  14  15
ATOM     15  N   UNL     1       2.636   1.024   0.703  0.00  0.00    +0.384 N 
ATOM     16  C   UNL     1       3.564   2.101   0.395  0.00  0.00    -0.106 C 
ATOM     17  H   UNL     1       2.913   0.585   1.581  0.00  0.00    -0.085 HD
ATOM     18  H   UNL     1       1.697   1.415   0.782  0.00  0.00    -0.085 HD
ENDBRANCH  14  15
ENDBRANCH  11  14
ENDBRANCH   1  11
TORSDOF 6
