REMARK  Name = 1130
REMARK  5 active torsions:
REMARK  status: ('A' for Active; 'I' for Inactive)
REMARK    1  A    between atoms: C_1  and  C_5
REMARK    2  A    between atoms: C_1  and  N_13
REMARK    3  A    between atoms: C_15  and  C_18
REMARK    4  A    between atoms: C_18  and  C_19
REMARK    5  A    between atoms: C_19  and  O_20
REMARK                            x       y       z     vdW  Elec       q    Type
REMARK                         _______ _______ _______ _____ _____    ______ ____
ROOT
ATOM      1  C   UNL     1      -0.422   0.311  -1.383  0.00  0.00    +0.124 C 
ENDROOT
BRANCH   1   5
ATOM      2  N   UNL     1      -3.720  -0.864   0.040  0.00  0.00    -0.340 NA
ATOM      3  N   UNL     1      -3.347   1.425   0.694  0.00  0.00    -0.186 NA
ATOM      4  N   UNL     1      -2.123  -2.001  -1.294  0.00  0.00    -0.332 N 
ATOM      5  C   UNL     1      -1.720   0.279  -0.660  0.00  0.00    +0.062 C 
ATOM      6  C   UNL     1      -2.541  -0.830  -0.615  0.00  0.00    +0.187 C 
ATOM      7  C   UNL     1      -2.179   1.389   0.019  0.00  0.00    +0.111 C 
ATOM      8  C   UNL     1      -4.057   0.281   0.664  0.00  0.00    +0.066 C 
ATOM      9  C   UNL     1      -5.354   0.283   1.399  0.00  0.00    +0.129 C 
ATOM     10  H   UNL     1      -2.688  -2.807  -1.279  0.00  0.00    +0.145 HD
ATOM     11  H   UNL     1      -1.267  -2.009  -1.781  0.00  0.00    +0.145 HD
ENDBRANCH   1   5
BRANCH   1  13
ATOM     12  S   UNL     1       1.948  -1.403   1.196  0.00  0.00    -0.095 S 
ATOM     13  N   UNL     1       0.665  -0.107  -0.494  0.00  0.00    -0.297 N 
ATOM     14  C   UNL     1       1.855   0.558  -0.419  0.00  0.00    +0.028 C 
ATOM     15  C   UNL     1       2.705  -0.031   0.486  0.00  0.00    +0.016 C 
ATOM     16  C   UNL     1       0.529  -1.153   0.274  0.00  0.00    +0.154 C 
ATOM     17  C   UNL     1       2.065   1.746  -1.260  0.00  0.00    +0.047 C 
BRANCH  15  18
ATOM     18  C   UNL     1       4.076   0.346   0.884  0.00  0.00    +0.065 C 
BRANCH  18  19
ATOM     19  C   UNL     1       5.163  -0.320   0.021  0.00  0.00    +0.142 C 
BRANCH  19  20
ATOM     20  O   UNL     1       6.456   0.091   0.447  0.00  0.00    -0.382 OA
ATOM     21  H   UNL     1       7.129  -0.336  -0.106  0.00  0.00    +0.210 HD
ENDBRANCH  19  20
ENDBRANCH  18  19
ENDBRANCH  15  18
ENDBRANCH   1  13
TORSDOF 5
