REMARK  Name = 1738118
REMARK  10 active torsions:
REMARK  status: ('A' for Active; 'I' for Inactive)
REMARK    1  A    between atoms: C_1  and  O_2
REMARK    2  A    between atoms: C_1  and  C_4
REMARK    3  A    between atoms: C_1  and  CA_13
REMARK    4  A    between atoms: C_4  and  O_5
REMARK    5  A    between atoms: C_4  and  C_7
REMARK    6  A    between atoms: C_7  and  O_8
REMARK    7  A    between atoms: C_7  and  C_10
REMARK    8  A    between atoms: C_10  and  O_11
REMARK    9  A    between atoms: CA_13  and  N_15
REMARK   10  A    between atoms: CA_13  and  C_20
REMARK                            x       y       z     vdW  Elec       q    Type
REMARK                         _______ _______ _______ _____ _____    ______ ____
ROOT
ATOM      1  C   UNL     1       0.277  -1.143  -0.438  0.00  0.00    +0.165 C 
ENDROOT
BRANCH   1   2
ATOM      2  O   UNL     1      -0.177  -1.947  -1.536  0.00  0.00    -0.380 OA
ATOM      3  H   UNL     1       0.588  -2.315  -2.005  0.00  0.00    +0.211 HD
ENDBRANCH   1   2
BRANCH   1   4
ATOM      4  C   UNL     1       1.253  -0.088  -0.998  0.00  0.00    +0.168 C 
BRANCH   4   5
ATOM      5  O   UNL     1       2.252  -0.791  -1.748  0.00  0.00    -0.379 OA
ATOM      6  H   UNL     1       1.822  -1.353  -2.412  0.00  0.00    +0.211 HD
ENDBRANCH   4   5
BRANCH   4   7
ATOM      7  C   UNL     1       1.945   0.799   0.051  0.00  0.00    +0.169 C 
BRANCH   7   8
ATOM      8  O   UNL     1       2.900   1.653  -0.581  0.00  0.00    -0.379 OA
ATOM      9  H   UNL     1       2.456   2.193  -1.254  0.00  0.00    +0.211 HD
ENDBRANCH   7   8
BRANCH   7  10
ATOM     10  C   UNL     1       2.692  -0.026   1.097  0.00  0.00    +0.169 C 
BRANCH  10  11
ATOM     11  O   UNL     1       3.332   0.859   2.012  0.00  0.00    -0.379 OA
ATOM     12  H   UNL     1       3.809   0.343   2.680  0.00  0.00    +0.211 HD
ENDBRANCH  10  11
ENDBRANCH   7  10
ENDBRANCH   4   7
ENDBRANCH   1   4
BRANCH   1  13
ATOM     13  CA  UNL     1      -0.954  -0.576   0.283  0.00  0.00    +0.166 C 
BRANCH  13  15
ATOM     14  O   UNL     1      -2.638   1.600   1.208  0.00  0.00    -0.275 OA
ATOM     15  N   UNL     1      -1.714   0.346  -0.523  0.00  0.00    -0.297 N 
ATOM     16  C   UNL     1      -2.494   1.360   0.012  0.00  0.00    +0.223 C 
ATOM     17  C   UNL     1      -3.160   2.192  -1.051  0.00  0.00    +0.095 C 
ATOM     18  H   UNL     1      -1.677   0.252  -1.502  0.00  0.00    +0.150 HD
ENDBRANCH  13  15
BRANCH  13  20
ATOM     19  O   UNL     1      -1.606  -2.562   1.504  0.00  0.00    -0.286 OA
ATOM     20  C   UNL     1      -1.908  -1.676   0.708  0.00  0.00    +0.229 C 
ENDBRANCH  13  20
ENDBRANCH   1  13
TORSDOF 10
