REMARK  Name = 4033
REMARK  4 active torsions:
REMARK  status: ('A' for Active; 'I' for Inactive)
REMARK    1  A    between atoms: N_1  and  C_4
REMARK    2  A    between atoms: N_1  and  C_7
REMARK    3  A    between atoms: C_4  and  C_6
REMARK    4  A    between atoms: C_7  and  C_9
REMARK                            x       y       z     vdW  Elec       q    Type
REMARK                         _______ _______ _______ _____ _____    ______ ____
ROOT
ATOM      1  N   UNL     1       0.001  -0.236  -0.254  0.00  0.00    +0.387 N 
ATOM      2  C   UNL     1      -0.005  -1.570   0.346  0.00  0.00    -0.101 C 
ATOM      3  H   UNL     1       0.004  -0.338  -1.268  0.00  0.00    -0.080 HD
ENDROOT
BRANCH   1   4
ATOM      4  C   UNL     1       1.202   0.498   0.142  0.00  0.00    -0.060 C 
BRANCH   4   6
ATOM      5 CL   UNL     1       3.911   0.641   0.152  0.00  0.00    -0.116 Cl
ATOM      6  C   UNL     1       2.443  -0.236  -0.343  0.00  0.00    +0.072 C 
ENDBRANCH   4   6
ENDBRANCH   1   4
BRANCH   1   7
ATOM      7  C   UNL     1      -1.200   0.503   0.133  0.00  0.00    -0.060 C 
BRANCH   7   9
ATOM      8 CL   UNL     1      -3.909   0.651   0.136  0.00  0.00    -0.116 Cl
ATOM      9  C   UNL     1      -2.443  -0.252  -0.314  0.00  0.00    +0.072 C 
ENDBRANCH   7   9
ENDBRANCH   1   7
TORSDOF 4
