REMARK  Name = 6024
REMARK  8 active torsions:
REMARK  status: ('A' for Active; 'I' for Inactive)
REMARK    1  A    between atoms: CA_5  and  N_11
REMARK    2  A    between atoms: CA_7  and  C_21
REMARK    3  A    between atoms: C_8  and  C_24
REMARK    4  A    between atoms: C_12  and  C_14
REMARK    5  A    between atoms: C_14  and  C_16
REMARK    6  A    between atoms: C_21  and  O_22
REMARK    7  A    between atoms: C_24  and  O_25
REMARK    8  A    between atoms: O_25  and  C_27
REMARK                            x       y       z     vdW  Elec       q    Type
REMARK                         _______ _______ _______ _____ _____    ______ ____
ROOT
ATOM      1  S   UNL     1      -0.667   1.877  -1.505  0.00  0.00    -0.114 S 
ATOM      2  O   UNL     1       1.017  -0.222   2.285  0.00  0.00    -0.273 OA
ATOM      3  N   UNL     1      -0.639   0.606   0.826  0.00  0.00    -0.242 N 
ATOM      4  C   UNL     1      -0.487   1.947   0.291  0.00  0.00    +0.155 C 
ATOM      5  CA  UNL     1       0.957   1.898   0.839  0.00  0.00    +0.178 C 
ATOM      6  C   UNL     1       0.518   0.571   1.521  0.00  0.00    +0.251 C 
ATOM      7  CA  UNL     1      -1.707  -0.192   0.569  0.00  0.00    +0.127 C 
ATOM      8  C   UNL     1      -2.571   0.085  -0.437  0.00  0.00    +0.030 C 
ATOM      9  C   UNL     1      -2.375   1.237  -1.420  0.00  0.00    +0.086 C 
ENDROOT
BRANCH   5  11
ATOM     10  O   UNL     1       3.690   1.204   1.457  0.00  0.00    -0.275 OA
ATOM     11  N   UNL     1       2.059   1.732  -0.107  0.00  0.00    -0.296 N 
ATOM     12  C   UNL     1       3.351   1.394   0.290  0.00  0.00    +0.228 C 
ATOM     13  H   UNL     1       1.881   1.864  -1.067  0.00  0.00    +0.150 HD
BRANCH  12  14
ATOM     14  C   UNL     1       4.326   1.260  -0.862  0.00  0.00    +0.118 C 
BRANCH  14  16
ATOM     15  S   UNL     1       6.529  -0.394  -0.702  0.00  0.00    -0.090 S 
ATOM     16  C   UNL     1       4.858  -0.146  -0.894  0.00  0.00    +0.016 C 
ATOM     17  C   UNL     1       4.153  -1.300  -1.065  0.00  0.00    +0.003 C 
ATOM     18  C   UNL     1       5.010  -2.438  -1.037  0.00  0.00    +0.007 C 
ATOM     19  C   UNL     1       6.329  -2.088  -0.847  0.00  0.00    +0.035 C 
ENDBRANCH  14  16
ENDBRANCH  12  14
ENDBRANCH   5  11
BRANCH   7  21
ATOM     20  OXT UNL     1      -1.325  -2.470   1.128  0.00  0.00    -0.244 OA
ATOM     21  C   UNL     1      -1.847  -1.404   1.389  0.00  0.00    +0.352 C 
BRANCH  21  22
ATOM     22  O   UNL     1      -2.632  -1.138   2.451  0.00  0.00    -0.476 OA
ATOM     23  H   UNL     1      -2.989  -0.280   2.565  0.00  0.00    +0.295 HD
ENDBRANCH  21  22
ENDBRANCH   7  21
BRANCH   8  24
ATOM     24  C   UNL     1      -3.823  -0.705  -0.734  0.00  0.00    +0.233 C 
BRANCH  24  25
ATOM     25  O   UNL     1      -4.947   0.145  -0.637  0.00  0.00    -0.444 OA
BRANCH  25  27
ATOM     26  O   UNL     1      -6.353  -1.608  -1.172  0.00  0.00    -0.250 OA
ATOM     27  C   UNL     1      -6.166  -0.434  -0.882  0.00  0.00    +0.318 C 
ATOM     28  C   UNL     1      -7.259   0.582  -0.744  0.00  0.00    +0.121 C 
ENDBRANCH  25  27
ENDBRANCH  24  25
ENDBRANCH   8  24
TORSDOF 8
