REMARK  Name = 39186
REMARK  7 active torsions:
REMARK  status: ('A' for Active; 'I' for Inactive)
REMARK    1  A    between atoms: N_3  and  C_25
REMARK    2  A    between atoms: C_4  and  C_13
REMARK    3  A    between atoms: C_5  and  O_21
REMARK    4  A    between atoms: C_18  and  O_19
REMARK    5  A    between atoms: O_21  and  C_23
REMARK    6  A    between atoms: C_25  and  C_26
REMARK    7  A    between atoms: C_26  and  N_27
REMARK                            x       y       z     vdW  Elec       q    Type
REMARK                         _______ _______ _______ _____ _____    ______ ____
ROOT
ATOM      1  S   UNL     1       0.084   0.873  -2.077  0.00  0.00    -0.105 S 
ATOM      2  O   UNL     1      -0.062  -0.958   1.629  0.00  0.00    -0.271 OA
ATOM      3  N   UNL     1       1.762  -0.151   0.436  0.00  0.00    -0.257 N 
ATOM      4  C   UNL     1      -0.983   1.347  -0.662  0.00  0.00    +0.123 C 
ATOM      5  C   UNL     1      -0.291   1.241   0.707  0.00  0.00    +0.259 C 
ATOM      6  C   UNL     1       0.455  -0.070   0.945  0.00  0.00    +0.271 C 
ATOM      7  C   UNL     1       2.364   0.837  -0.415  0.00  0.00    +0.059 C 
ATOM      8  C   UNL     1       1.682   1.429  -1.498  0.00  0.00    +0.039 C 
ATOM      9  C   UNL     1       3.700   1.215  -0.179  0.00  0.00    +0.015 C 
ATOM     10  C   UNL     1       2.329   2.398  -2.285  0.00  0.00    +0.007 C 
ATOM     11  C   UNL     1       4.328   2.185  -0.963  0.00  0.00    +0.001 C 
ATOM     12  C   UNL     1       3.639   2.782  -2.011  0.00  0.00    +0.001 C 
ENDROOT
BRANCH   4  13
ATOM     13  C   UNL     1      -2.316   0.614  -0.744  0.00  0.00    -0.008 C 
ATOM     14  C   UNL     1      -2.356  -0.770  -0.593  0.00  0.00    -0.000 C 
ATOM     15  C   UNL     1      -3.489   1.331  -0.968  0.00  0.00    -0.000 C 
ATOM     16  C   UNL     1      -3.577  -1.441  -0.667  0.00  0.00    +0.037 C 
ATOM     17  C   UNL     1      -4.709   0.660  -1.042  0.00  0.00    +0.037 C 
ATOM     18  C   UNL     1      -4.753  -0.726  -0.891  0.00  0.00    +0.139 C 
BRANCH  18  19
ATOM     19  O   UNL     1      -5.945  -1.380  -0.965  0.00  0.00    -0.471 OA
ATOM     20  C   UNL     1      -5.918  -2.797  -0.803  0.00  0.00    +0.252 C 
ENDBRANCH  18  19
ENDBRANCH   4  13
BRANCH   5  21
ATOM     21  O   UNL     1      -1.242   1.398   1.756  0.00  0.00    -0.441 OA
BRANCH  21  23
ATOM     22  O   UNL     1       0.452   1.376   3.327  0.00  0.00    -0.250 OA
ATOM     23  C   UNL     1      -0.732   1.452   3.027  0.00  0.00    +0.318 C 
ATOM     24  C   UNL     1      -1.841   1.619   4.021  0.00  0.00    +0.121 C 
ENDBRANCH  21  23
ENDBRANCH   5  21
BRANCH   3  25
ATOM     25  C   UNL     1       2.607  -1.257   0.885  0.00  0.00    +0.076 C 
BRANCH  25  26
ATOM     26  C   UNL     1       3.108  -2.081  -0.292  0.00  0.00    -0.055 C 
BRANCH  26  27
ATOM     27  N   UNL     1       3.970  -3.159   0.175  0.00  0.00    +0.385 N 
ATOM     28  C   UNL     1       3.248  -4.034   1.101  0.00  0.00    -0.101 C 
ATOM     29  C   UNL     1       4.486  -3.933  -0.956  0.00  0.00    -0.101 C 
ATOM     30  H   UNL     1       4.759  -2.743   0.670  0.00  0.00    -0.080 HD
ENDBRANCH  26  27
ENDBRANCH  25  26
ENDBRANCH   3  25
TORSDOF 7
