REMARK  Name = 115355
REMARK  4 active torsions:
REMARK  status: ('A' for Active; 'I' for Inactive)
REMARK    1  A    between atoms: C_1  and  C_15
REMARK    2  A    between atoms: C_2  and  N_13
REMARK    3  A    between atoms: C_4  and  C_10
REMARK    4  A    between atoms: C_15  and  C_18
REMARK                            x       y       z     vdW  Elec       q    Type
REMARK                         _______ _______ _______ _____ _____    ______ ____
ROOT
ATOM      1  C   UNL     1      -0.147  -0.134  -0.515  0.00  0.00    +0.058 C 
ATOM      2  C   UNL     1      -0.961  -1.117   0.006  0.00  0.00    +0.146 C 
ATOM      3  C   UNL     1      -0.627   1.111  -0.867  0.00  0.00    +0.004 C 
ATOM      4  C   UNL     1      -2.828   0.406  -0.164  0.00  0.00    +0.073 C 
ATOM      5  C   UNL     1      -2.317  -0.844   0.183  0.00  0.00    +0.028 C 
ATOM      6  C   UNL     1      -1.983   1.384  -0.689  0.00  0.00    +0.004 C 
ENDROOT
BRANCH   4  10
ATOM      7  F   UNL     1      -4.638   1.960  -0.357  0.00  0.00    -0.166 F 
ATOM      8  F   UNL     1      -5.101  -0.135  -0.678  0.00  0.00    -0.166 F 
ATOM      9  F   UNL     1      -4.671   0.585   1.328  0.00  0.00    -0.166 F 
ATOM     10  C   UNL     1      -4.278   0.698   0.026  0.00  0.00    +0.419 C 
ENDBRANCH   4  10
BRANCH   2  13
ATOM     11  O   UNL     1      -1.260  -3.248   0.833  0.00  0.00    -0.126 OA
ATOM     12  O   UNL     1       0.755  -2.644   0.206  0.00  0.00    -0.126 OA
ATOM     13  N   UNL     1      -0.464  -2.400   0.366  0.00  0.00    +0.058 N 
ENDBRANCH   2  13
BRANCH   1  15
ATOM     14  O   UNL     1       1.709  -0.846  -1.785  0.00  0.00    -0.290 OA
ATOM     15  C   UNL     1       1.307  -0.387  -0.718  0.00  0.00    +0.188 C 
BRANCH  15  18
ATOM     16  O   UNL     1       1.231   1.729   1.586  0.00  0.00    -0.295 OA
ATOM     17  O   UNL     1       4.026  -1.675   0.124  0.00  0.00    -0.295 OA
ATOM     18  C   UNL     1       2.262  -0.075   0.391  0.00  0.00    +0.176 C 
ATOM     19  C   UNL     1       4.502   1.839   0.210  0.00  0.00    +0.016 C 
ATOM     20  C   UNL     1       3.081   2.378   0.219  0.00  0.00    +0.066 C 
ATOM     21  C   UNL     1       4.586   0.541  -0.575  0.00  0.00    +0.066 C 
ATOM     22  C   UNL     1       2.142   1.370   0.838  0.00  0.00    +0.165 C 
ATOM     23  C   UNL     1       3.674  -0.498   0.034  0.00  0.00    +0.165 C 
ENDBRANCH  15  18
ENDBRANCH   1  15
TORSDOF 4
