REMARK  Name = 5509
REMARK  5 active torsions:
REMARK  status: ('A' for Active; 'I' for Inactive)
REMARK    1  A    between atoms: C_2  and  C_16
REMARK    2  A    between atoms: C_3  and  C_8
REMARK    3  A    between atoms: C_8  and  C_9
REMARK    4  A    between atoms: C_16  and  C_18
REMARK    5  A    between atoms: C_18  and  O_19
REMARK                            x       y       z     vdW  Elec       q    Type
REMARK                         _______ _______ _______ _____ _____    ______ ____
ROOT
ATOM      1  N   UNL     1      -1.680   0.846   0.077  0.00  0.00    -0.286 N 
ATOM      2  C   UNL     1      -2.563   0.060   0.771  0.00  0.00    +0.040 C 
ATOM      3  C   UNL     1      -0.439   0.546   0.498  0.00  0.00    +0.091 C 
ATOM      4  C   UNL     1      -1.835  -0.733   1.631  0.00  0.00    +0.012 C 
ATOM      5  C   UNL     1      -0.468  -0.413   1.448  0.00  0.00    +0.019 C 
ATOM      6  C   UNL     1      -2.042   1.820  -0.931  0.00  0.00    +0.117 C 
ENDROOT
BRANCH   3   8
ATOM      7  O   UNL     1       0.749   2.378  -0.437  0.00  0.00    -0.285 OA
ATOM      8  C   UNL     1       0.773   1.202  -0.035  0.00  0.00    +0.209 C 
BRANCH   8   9
ATOM      9  C   UNL     1       2.045   0.500  -0.092  0.00  0.00    +0.040 C 
ATOM     10  C   UNL     1       2.071  -0.885  -0.257  0.00  0.00    +0.003 C 
ATOM     11  C   UNL     1       3.240   1.212   0.019  0.00  0.00    +0.003 C 
ATOM     12  C   UNL     1       4.486  -0.847  -0.199  0.00  0.00    -0.022 C 
ATOM     13  C   UNL     1       3.292  -1.558  -0.310  0.00  0.00    -0.004 C 
ATOM     14  C   UNL     1       4.460   0.538  -0.035  0.00  0.00    -0.004 C 
ATOM     15  C   UNL     1       5.791  -1.566  -0.258  0.00  0.00    +0.031 C 
ENDBRANCH   8   9
ENDBRANCH   3   8
BRANCH   2  16
ATOM     16  C   UNL     1      -4.022   0.130   0.555  0.00  0.00    +0.151 C 
BRANCH  16  18
ATOM     17  O   UNL     1      -3.646  -1.517  -1.179  0.00  0.00    -0.250 OA
ATOM     18  C   UNL     1      -4.436  -0.846  -0.528  0.00  0.00    +0.320 C 
BRANCH  18  19
ATOM     19  O   UNL     1      -5.777  -0.867  -0.738  0.00  0.00    -0.480 OA
ATOM     20  H   UNL     1      -6.341  -0.334  -0.213  0.00  0.00    +0.295 HD
ENDBRANCH  18  19
ENDBRANCH  16  18
ENDBRANCH   2  16
TORSDOF 5
