REMARK  Name = 5288826
REMARK  2 active torsions:
REMARK  status: ('A' for Active; 'I' for Inactive)
REMARK    1  A    between atoms: C_12  and  O_21
REMARK    2  A    between atoms: C_18  and  O_23
REMARK                            x       y       z     vdW  Elec       q    Type
REMARK                         _______ _______ _______ _____ _____    ______ ____
ROOT
ATOM      1  O   UNL     1      -1.993  -0.474   1.200  0.00  0.00    -0.473 OA
ATOM      2  N   UNL     1       3.178  -0.010   0.447  0.00  0.00    +0.387 N 
ATOM      3  C   UNL     1       0.370  -0.715   0.662  0.00  0.00    +0.061 C 
ATOM      4  C   UNL     1       1.291  -1.305  -0.417  0.00  0.00    +0.010 C 
ATOM      5  C   UNL     1       2.344  -0.202  -0.764  0.00  0.00    -0.049 C 
ATOM      6  C   UNL     1      -0.938  -1.475   0.985  0.00  0.00    +0.200 C 
ATOM      7  C   UNL     1       1.199  -0.391   1.920  0.00  0.00    -0.015 C 
ATOM      8  C   UNL     1      -0.252   0.530   0.120  0.00  0.00    +0.014 C 
ATOM      9  C   UNL     1       1.689   1.105  -1.328  0.00  0.00    +0.006 C 
ATOM     10  C   UNL     1       2.432   0.475   1.613  0.00  0.00    -0.077 C 
ATOM     11  C   UNL     1       0.338   1.431  -0.748  0.00  0.00    -0.025 C 
ATOM     12  C   UNL     1      -1.363  -2.507  -0.092  0.00  0.00    +0.172 C 
ATOM     13  C   UNL     1       0.507  -1.818  -1.597  0.00  0.00    -0.030 C 
ATOM     14  C   UNL     1      -1.567   0.631   0.514  0.00  0.00    +0.168 C 
ATOM     15  C   UNL     1      -0.716  -2.349  -1.442  0.00  0.00    +0.002 C 
ATOM     16  C   UNL     1       4.373   0.792   0.208  0.00  0.00    -0.101 C 
ATOM     17  C   UNL     1      -0.418   2.542  -1.125  0.00  0.00    -0.001 C 
ATOM     18  C   UNL     1      -2.331   1.722   0.162  0.00  0.00    +0.167 C 
ATOM     19  C   UNL     1      -1.738   2.694  -0.654  0.00  0.00    +0.039 C 
ATOM     20  H   UNL     1       3.493  -0.952   0.681  0.00  0.00    -0.080 HD
ENDROOT
BRANCH  12  21
ATOM     21  O   UNL     1      -2.783  -2.517  -0.222  0.00  0.00    -0.377 OA
ATOM     22  H   UNL     1      -3.186  -2.619   0.654  0.00  0.00    +0.211 HD
ENDBRANCH  12  21
BRANCH  18  23
ATOM     23  O   UNL     1      -3.622   1.842   0.558  0.00  0.00    -0.503 OA
ATOM     24  H   UNL     1      -4.008   1.186   1.104  0.00  0.00    +0.292 HD
ENDBRANCH  18  23
TORSDOF 2
