REMARK  Name = 5314
REMARK  11 active torsions:
REMARK  status: ('A' for Active; 'I' for Inactive)
REMARK    1  A    between atoms: C_1  and  C_3
REMARK    2  A    between atoms: C_1  and  C_11
REMARK    3  A    between atoms: C_3  and  O_4
REMARK    4  A    between atoms: O_4  and  C_5
REMARK    5  A    between atoms: C_5  and  C_6
REMARK    6  A    between atoms: C_6  and  N_7
REMARK    7  A    between atoms: C_11  and  C_13
REMARK    8  A    between atoms: C_13  and  O_14
REMARK    9  A    between atoms: O_14  and  C_15
REMARK   10  A    between atoms: C_15  and  C_16
REMARK   11  A    between atoms: C_16  and  N_17
REMARK                            x       y       z     vdW  Elec       q    Type
REMARK                         _______ _______ _______ _____ _____    ______ ____
ROOT
ATOM      1  C   UNL     1       0.636  -0.423  -0.088  0.00  0.00    +0.121 C 
ENDROOT
BRANCH   1   3
ATOM      2  O   UNL     1       1.929   1.640  -0.106  0.00  0.00    -0.250 OA
ATOM      3  C   UNL     1       1.895   0.418  -0.075  0.00  0.00    +0.317 C 
BRANCH   3   4
ATOM      4  O   UNL     1       2.980  -0.412  -0.033  0.00  0.00    -0.451 OA
BRANCH   4   5
ATOM      5  C   UNL     1       4.254   0.240  -0.024  0.00  0.00    +0.186 C 
BRANCH   5   6
ATOM      6  C   UNL     1       5.356  -0.800   0.024  0.00  0.00    -0.025 C 
BRANCH   6   7
ATOM      7  N   UNL     1       6.673  -0.117   0.070  0.00  0.00    +0.388 N 
ATOM      8  C   UNL     1       7.815  -1.139   0.151  0.00  0.00    -0.096 C 
ATOM      9  C   UNL     1       6.767   0.802   1.296  0.00  0.00    -0.096 C 
ATOM     10  C   UNL     1       6.887   0.739  -1.185  0.00  0.00    -0.096 C 
ENDBRANCH   6   7
ENDBRANCH   5   6
ENDBRANCH   4   5
ENDBRANCH   3   4
ENDBRANCH   1   3
BRANCH   1  11
ATOM     11  C   UNL     1      -0.637   0.419  -0.121  0.00  0.00    +0.121 C 
BRANCH  11  13
ATOM     12  O   UNL     1      -1.931  -1.643  -0.111  0.00  0.00    -0.250 OA
ATOM     13  C   UNL     1      -1.896  -0.421  -0.093  0.00  0.00    +0.317 C 
BRANCH  13  14
ATOM     14  O   UNL     1      -2.979   0.411  -0.052  0.00  0.00    -0.451 OA
BRANCH  14  15
ATOM     15  C   UNL     1      -4.254  -0.240  -0.030  0.00  0.00    +0.186 C 
BRANCH  15  16
ATOM     16  C   UNL     1      -5.355   0.801   0.014  0.00  0.00    -0.025 C 
BRANCH  16  17
ATOM     17  N   UNL     1      -6.672   0.119   0.074  0.00  0.00    +0.388 N 
ATOM     18  C   UNL     1      -6.894  -0.749  -1.172  0.00  0.00    -0.096 C 
ATOM     19  C   UNL     1      -6.760  -0.787   1.310  0.00  0.00    -0.096 C 
ATOM     20  C   UNL     1      -7.813   1.143   0.152  0.00  0.00    -0.096 C 
ENDBRANCH  16  17
ENDBRANCH  15  16
ENDBRANCH  14  15
ENDBRANCH  13  14
ENDBRANCH  11  13
ENDBRANCH   1  11
TORSDOF 11
