REMARK  Name = 4011
REMARK  4 active torsions:
REMARK  status: ('A' for Active; 'I' for Inactive)
REMARK    1  A    between atoms: C_1  and  C_17
REMARK    2  A    between atoms: C_17  and  C_18
REMARK    3  A    between atoms: C_18  and  C_19
REMARK    4  A    between atoms: C_19  and  N_20
REMARK                            x       y       z     vdW  Elec       q    Type
REMARK                         _______ _______ _______ _____ _____    ______ ____
ROOT
ATOM      1  C   UNL     1       0.133  -0.451  -0.237  0.00  0.00    +0.037 C 
ATOM      2  C   UNL     1      -2.043   0.747  -1.160  0.00  0.00    +0.044 C 
ATOM      3  C   UNL     1       0.120  -0.429  -1.804  0.00  0.00    +0.009 C 
ATOM      4  C   UNL     1      -1.161   0.277  -2.341  0.00  0.00    +0.009 C 
ATOM      5  C   UNL     1       0.008   1.025   0.187  0.00  0.00    -0.023 C 
ATOM      6  C   UNL     1      -1.180  -1.150   0.166  0.00  0.00    -0.023 C 
ATOM      7  C   UNL     1      -1.163   1.657  -0.315  0.00  0.00    -0.022 C 
ATOM      8  C   UNL     1      -2.340  -0.500  -0.337  0.00  0.00    -0.022 C 
ATOM      9  C   UNL     1       0.889   1.747   0.986  0.00  0.00    -0.004 C 
ATOM     10  C   UNL     1      -1.318  -2.294   0.946  0.00  0.00    -0.004 C 
ATOM     11  C   UNL     1      -1.442   2.987  -0.026  0.00  0.00    -0.004 C 
ATOM     12  C   UNL     1      -3.612  -0.988  -0.066  0.00  0.00    -0.004 C 
ATOM     13  C   UNL     1       0.606   3.085   1.274  0.00  0.00    -0.000 C 
ATOM     14  C   UNL     1      -2.599  -2.784   1.216  0.00  0.00    -0.000 C 
ATOM     15  C   UNL     1      -0.548   3.700   0.773  0.00  0.00    -0.000 C 
ATOM     16  C   UNL     1      -3.736  -2.137   0.715  0.00  0.00    -0.000 C 
ENDROOT
BRANCH   1  17
ATOM     17  C   UNL     1       1.402  -1.149   0.261  0.00  0.00    +0.006 C 
BRANCH  17  18
ATOM     18  C   UNL     1       2.653  -0.478  -0.295  0.00  0.00    -0.023 C 
BRANCH  18  19
ATOM     19  C   UNL     1       3.915  -1.159   0.232  0.00  0.00    -0.082 C 
BRANCH  19  20
ATOM     20  N   UNL     1       5.104  -0.522  -0.322  0.00  0.00    +0.382 N 
ATOM     21  C   UNL     1       6.313  -1.183   0.147  0.00  0.00    -0.106 C 
ATOM     22  H   UNL     1       5.124   0.456  -0.033  0.00  0.00    -0.085 HD
ATOM     23  H   UNL     1       5.067  -0.592  -1.339  0.00  0.00    -0.085 HD
ENDBRANCH  19  20
ENDBRANCH  18  19
ENDBRANCH  17  18
ENDBRANCH   1  17
TORSDOF 4
