REMARK  Name = 5039
REMARK  10 active torsions:
REMARK  status: ('A' for Active; 'I' for Inactive)
REMARK    1  A    between atoms: S_1  and  C_2
REMARK    2  A    between atoms: S_1  and  C_13
REMARK    3  A    between atoms: C_2  and  C_5
REMARK    4  A    between atoms: C_4  and  C_8
REMARK    5  A    between atoms: C_8  and  N_9
REMARK    6  A    between atoms: C_13  and  C_14
REMARK    7  A    between atoms: C_14  and  N_15
REMARK    8  A    between atoms: N_15  and  C_17
REMARK    9  A    between atoms: C_17  and  N_22
REMARK   10  A    between atoms: C_18  and  N_21
REMARK                            x       y       z     vdW  Elec       q    Type
REMARK                         _______ _______ _______ _____ _____    ______ ____
ROOT
ATOM      1  S   UNL     1       0.377   2.292  -1.099  0.00  0.00    -0.130 S 
ENDROOT
BRANCH   1   2
ATOM      2  C   UNL     1       1.173   2.309   0.523  0.00  0.00    +0.122 C 
BRANCH   2   5
ATOM      3  O   UNL     1       2.588   0.340   0.697  0.00  0.00    -0.463 OA
ATOM      4  C   UNL     1       3.895  -0.020   0.600  0.00  0.00    +0.102 C 
ATOM      5  C   UNL     1       2.535   1.678   0.467  0.00  0.00    +0.133 C 
ATOM      6  C   UNL     1       4.676   1.074   0.309  0.00  0.00    +0.034 C 
ATOM      7  C   UNL     1       3.794   2.176   0.223  0.00  0.00    +0.037 C 
BRANCH   4   8
ATOM      8  C   UNL     1       4.195  -1.442   0.815  0.00  0.00    -0.011 C 
BRANCH   8   9
ATOM      9  N   UNL     1       4.145  -2.220  -0.435  0.00  0.00    +0.389 N 
ATOM     10  C   UNL     1       2.761  -2.533  -0.775  0.00  0.00    -0.100 C 
ATOM     11  C   UNL     1       4.935  -3.439  -0.297  0.00  0.00    -0.100 C 
ATOM     12  H   UNL     1       4.543  -1.664  -1.191  0.00  0.00    -0.079 HD
ENDBRANCH   8   9
ENDBRANCH   4   8
ENDBRANCH   2   5
ENDBRANCH   1   2
BRANCH   1  13
ATOM     13  C   UNL     1      -1.181   3.107  -0.632  0.00  0.00    +0.079 C 
BRANCH  13  14
ATOM     14  C   UNL     1      -2.129   2.167   0.103  0.00  0.00    +0.100 C 
BRANCH  14  15
ATOM     15  N   UNL     1      -2.508   1.047  -0.727  0.00  0.00    -0.319 N 
ATOM     16  H   UNL     1      -2.122   1.016  -1.632  0.00  0.00    +0.148 HD
BRANCH  15  17
ATOM     17  C   UNL     1      -3.367   0.004  -0.375  0.00  0.00    +0.118 C 
ATOM     18  C   UNL     1      -3.962  -0.065   0.836  0.00  0.00    +0.194 C 
BRANCH  18  21
ATOM     19  O   UNL     1      -4.351  -2.288   1.114  0.00  0.00    -0.126 OA
ATOM     20  O   UNL     1      -6.002  -0.867   1.442  0.00  0.00    -0.126 OA
ATOM     21  N   UNL     1      -4.829  -1.144   1.151  0.00  0.00    +0.062 N 
ENDBRANCH  18  21
BRANCH  17  22
ATOM     22  N   UNL     1      -3.629  -1.014  -1.300  0.00  0.00    -0.319 N 
ATOM     23  C   UNL     1      -3.115  -1.162  -2.640  0.00  0.00    +0.109 C 
ATOM     24  H   UNL     1      -4.243  -1.720  -0.996  0.00  0.00    +0.148 HD
ENDBRANCH  17  22
ENDBRANCH  15  17
ENDBRANCH  14  15
ENDBRANCH  13  14
ENDBRANCH   1  13
TORSDOF 10
