REMARK  Name = 43815
REMARK  4 active torsions:
REMARK  status: ('A' for Active; 'I' for Inactive)
REMARK    1  A    between atoms: C_2  and  C_10
REMARK    2  A    between atoms: C_3  and  C_16
REMARK    3  A    between atoms: C_16  and  O_17
REMARK    4  A    between atoms: O_17  and  C_20
REMARK                            x       y       z     vdW  Elec       q    Type
REMARK                         _______ _______ _______ _____ _____    ______ ____
ROOT
ATOM      1  N   UNL     1       3.667  -3.182  -0.381  0.00  0.00    +0.384 N 
ATOM      2  C   UNL     1       2.348  -0.668   0.357  0.00  0.00    +0.022 C 
ATOM      3  C   UNL     1       1.925  -1.479  -0.895  0.00  0.00    +0.026 C 
ATOM      4  C   UNL     1       3.809  -0.986   0.728  0.00  0.00    -0.019 C 
ATOM      5  C   UNL     1       2.256  -2.971  -0.702  0.00  0.00    -0.078 C 
ATOM      6  C   UNL     1       4.039  -2.490   0.851  0.00  0.00    -0.081 C 
ATOM      7  H   UNL     1       4.239  -2.827  -1.148  0.00  0.00    -0.085 HD
ATOM      8  H   UNL     1       3.822  -4.181  -0.249  0.00  0.00    -0.085 HD
ENDROOT
BRANCH   2  10
ATOM      9  F   UNL     1       1.625   4.903  -0.187  0.00  0.00    -0.204 F 
ATOM     10  C   UNL     1       2.153   0.833   0.211  0.00  0.00    -0.022 C 
ATOM     11  C   UNL     1       1.784   1.594   1.316  0.00  0.00    -0.002 C 
ATOM     12  C   UNL     1       2.345   1.437  -1.028  0.00  0.00    -0.002 C 
ATOM     13  C   UNL     1       1.605   2.970   1.182  0.00  0.00    +0.029 C 
ATOM     14  C   UNL     1       2.167   2.814  -1.163  0.00  0.00    +0.029 C 
ATOM     15  C   UNL     1       1.797   3.581  -0.058  0.00  0.00    +0.140 C 
ENDBRANCH   2  10
BRANCH   3  16
ATOM     16  C   UNL     1       0.431  -1.324  -1.202  0.00  0.00    +0.203 C 
BRANCH  16  17
ATOM     17  O   UNL     1      -0.302  -1.857  -0.117  0.00  0.00    -0.475 OA
BRANCH  17  20
ATOM     18  O   UNL     1      -4.373   0.326  -1.500  0.00  0.00    -0.435 OA
ATOM     19  O   UNL     1      -5.221   0.361   0.755  0.00  0.00    -0.435 OA
ATOM     20  C   UNL     1      -1.535  -1.306   0.136  0.00  0.00    +0.142 C 
ATOM     21  C   UNL     1      -2.275  -0.778  -0.917  0.00  0.00    +0.077 C 
ATOM     22  C   UNL     1      -2.019  -1.290   1.450  0.00  0.00    +0.040 C 
ATOM     23  C   UNL     1      -3.507  -0.236  -0.613  0.00  0.00    +0.179 C 
ATOM     24  C   UNL     1      -3.992  -0.216   0.675  0.00  0.00    +0.177 C 
ATOM     25  C   UNL     1      -3.271  -0.736   1.730  0.00  0.00    +0.043 C 
ATOM     26  C   UNL     1      -5.457   0.702  -0.626  0.00  0.00    +0.429 C 
ENDBRANCH  17  20
ENDBRANCH  16  17
ENDBRANCH   3  16
TORSDOF 4
