REMARK  Name = 4920903
REMARK  4 active torsions:
REMARK  status: ('A' for Active; 'I' for Inactive)
REMARK    1  A    between atoms: N_1  and  C_3
REMARK    2  A    between atoms: N_1  and  C_9
REMARK    3  A    between atoms: N_1  and  C_16
REMARK    4  A    between atoms: C_16  and  C_19
REMARK                            x       y       z     vdW  Elec       q    Type
REMARK                         _______ _______ _______ _____ _____    ______ ____
ROOT
ATOM      1  N   UNL     1      -0.311   0.278   0.779  0.00  0.00    -0.283 N 
ENDROOT
BRANCH   1   3
ATOM      2  O   UNL     1      -4.177  -2.240  -0.345  0.00  0.00    -0.287 OA
ATOM      3  C   UNL     1      -1.687   0.207   0.392  0.00  0.00    +0.055 C 
ATOM      4  C   UNL     1      -2.277  -1.033   0.210  0.00  0.00    +0.057 C 
ATOM      5  C   UNL     1      -2.397   1.381   0.202  0.00  0.00    +0.015 C 
ATOM      6  C   UNL     1      -3.617  -1.101  -0.172  0.00  0.00    +0.197 C 
ATOM      7  C   UNL     1      -3.737   1.313  -0.180  0.00  0.00    +0.005 C 
ATOM      8  C   UNL     1      -4.347   0.072  -0.367  0.00  0.00    +0.042 C 
ENDBRANCH   1   3
BRANCH   1   9
ATOM      9  C   UNL     1       0.676  -0.697   0.436  0.00  0.00    +0.052 C 
ATOM     10  C   UNL     1       0.548  -1.406  -0.748  0.00  0.00    +0.015 C 
ATOM     11  C   UNL     1       1.742  -0.914   1.294  0.00  0.00    +0.015 C 
ATOM     12  C   UNL     1       2.591  -2.586  -0.229  0.00  0.00    -0.022 C 
ATOM     13  C   UNL     1       1.512  -2.356  -1.082  0.00  0.00    -0.003 C 
ATOM     14  C   UNL     1       2.706  -1.865   0.959  0.00  0.00    -0.003 C 
ATOM     15  C   UNL     1       3.622  -3.603  -0.586  0.00  0.00    +0.031 C 
ENDBRANCH   1   9
BRANCH   1  16
ATOM     16  C   UNL     1       0.186   1.510   1.338  0.00  0.00    +0.136 C 
BRANCH  16  19
ATOM     17  N   UNL     1       2.361   2.367   0.640  0.00  0.00    -0.316 N 
ATOM     18  N   UNL     1       0.697   2.486  -0.833  0.00  0.00    -0.316 N 
ATOM     19  C   UNL     1       1.091   2.128   0.375  0.00  0.00    +0.164 C 
ATOM     20  C   UNL     1       2.983   2.988  -0.534  0.00  0.00    +0.075 C 
ATOM     21  C   UNL     1       1.835   3.069  -1.550  0.00  0.00    +0.075 C 
ATOM     22  H   UNL     1       2.817   2.162   1.488  0.00  0.00    +0.148 HD
ATOM     23  H   UNL     1      -0.213   2.379  -1.193  0.00  0.00    +0.148 HD
ENDBRANCH  16  19
ENDBRANCH   1  16
TORSDOF 4
