REMARK  Name = 3639
REMARK  2 active torsions:
REMARK  status: ('A' for Active; 'I' for Inactive)
REMARK    1  A    between atoms: C_11  and  S_16
REMARK    2  A    between atoms: S_16  and  N_19
REMARK                            x       y       z     vdW  Elec       q    Type
REMARK                         _______ _______ _______ _____ _____    ______ ____
ROOT
ATOM      1 CL   UNL     1       2.701  -2.415  -0.004  0.00  0.00    -0.081 Cl
ATOM      2  S   UNL     1      -2.384   1.239   0.026  0.00  0.00    +0.063 S 
ATOM      3  O   UNL     1      -2.666   1.560   1.411  0.00  0.00    -0.153 OA
ATOM      4  O   UNL     1      -2.159   2.272  -0.965  0.00  0.00    -0.153 OA
ATOM      5  N   UNL     1      -3.578   0.171  -0.569  0.00  0.00    -0.160 NA
ATOM      6  N   UNL     1      -2.350  -1.859  -0.057  0.00  0.00    -0.317 N 
ATOM      7  C   UNL     1      -0.970   0.181   0.040  0.00  0.00    +0.136 C 
ATOM      8  C   UNL     1      -1.125  -1.213   0.001  0.00  0.00    +0.065 C 
ATOM      9  C   UNL     1      -3.605  -1.153   0.079  0.00  0.00    +0.182 C 
ATOM     10  C   UNL     1       0.287   0.792   0.068  0.00  0.00    +0.042 C 
ATOM     11  C   UNL     1       1.431   0.001   0.057  0.00  0.00    +0.134 C 
ATOM     12  C   UNL     1       0.050  -1.983  -0.020  0.00  0.00    +0.028 C 
ATOM     13  C   UNL     1       1.314  -1.386   0.012  0.00  0.00    +0.078 C 
ATOM     14  H   UNL     1      -3.411   0.033  -1.566  0.00  0.00    +0.151 HD
ATOM     15  H   UNL     1      -2.367  -2.833  -0.195  0.00  0.00    +0.148 HD
ENDROOT
BRANCH  11  16
ATOM     16  S   UNL     1       2.988   0.802   0.107  0.00  0.00    +0.058 S 
ATOM     17  O   UNL     1       2.806   2.110   0.718  0.00  0.00    -0.153 OA
ATOM     18  O   UNL     1       3.963  -0.127   0.655  0.00  0.00    -0.153 OA
BRANCH  16  19
ATOM     19  N   UNL     1       3.296   1.006  -1.560  0.00  0.00    -0.203 NA
ATOM     20  H   UNL     1       4.195   1.473  -1.685  0.00  0.00    +0.144 HD
ATOM     21  H   UNL     1       2.558   1.574  -1.975  0.00  0.00    +0.144 HD
ENDBRANCH  16  19
ENDBRANCH  11  16
TORSDOF 2
