REMARK  Name = 5362124
REMARK  11 active torsions:
REMARK  status: ('A' for Active; 'I' for Inactive)
REMARK    1  A    between atoms: N_1  and  C_6
REMARK    2  A    between atoms: N_1  and  C_21
REMARK    3  A    between atoms: N_5  and  C_16
REMARK    4  A    between atoms: C_16  and  C_18
REMARK    5  A    between atoms: C_18  and  O_19
REMARK    6  A    between atoms: C_21  and  C_23
REMARK    7  A    between atoms: C_21  and  C_27
REMARK    8  A    between atoms: C_23  and  O_24
REMARK    9  A    between atoms: O_24  and  C_25
REMARK   10  A    between atoms: C_27  and  C_28
REMARK   11  A    between atoms: C_28  and  C_29
REMARK                            x       y       z     vdW  Elec       q    Type
REMARK                         _______ _______ _______ _____ _____    ______ ____
ROOT
ATOM      1  N   UNL     1       0.225  -0.548   1.751  0.00  0.00    +0.399 N 
ATOM      2  H   UNL     1       0.365  -1.431   2.241  0.00  0.00    -0.083 HD
ATOM      3  H   UNL     1       0.521   0.233   2.337  0.00  0.00    -0.083 HD
ENDROOT
BRANCH   1   6
ATOM      4  O   UNL     1      -0.710   1.963   1.591  0.00  0.00    -0.277 OA
ATOM      5  N   UNL     1      -2.632   1.365   0.422  0.00  0.00    -0.250 N 
ATOM      6  C   UNL     1      -1.198  -0.390   1.440  0.00  0.00    +0.018 C 
ATOM      7  C   UNL     1      -2.043  -0.956   2.577  0.00  0.00    -0.008 C 
ATOM      8  C   UNL     1      -3.506  -0.532   2.516  0.00  0.00    +0.026 C 
ATOM      9  C   UNL     1      -1.485   1.089   1.192  0.00  0.00    +0.210 C 
ATOM     10  C   UNL     1      -4.070  -0.545   1.119  0.00  0.00    -0.009 C 
ATOM     11  C   UNL     1      -3.675   0.411   0.155  0.00  0.00    +0.050 C 
ATOM     12  C   UNL     1      -5.076  -1.474   0.806  0.00  0.00    -0.003 C 
ATOM     13  C   UNL     1      -4.352   0.440  -1.078  0.00  0.00    +0.015 C 
ATOM     14  C   UNL     1      -5.709  -1.449  -0.435  0.00  0.00    -0.000 C 
ATOM     15  C   UNL     1      -5.354  -0.487  -1.372  0.00  0.00    +0.001 C 
BRANCH   5  16
ATOM     16  C   UNL     1      -2.768   2.697  -0.167  0.00  0.00    +0.208 C 
BRANCH  16  18
ATOM     17  O   UNL     1      -2.145   3.831  -2.197  0.00  0.00    -0.248 OA
ATOM     18  C   UNL     1      -2.147   2.800  -1.536  0.00  0.00    +0.335 C 
BRANCH  18  19
ATOM     19  O   UNL     1      -1.593   1.643  -1.967  0.00  0.00    -0.479 OA
ATOM     20  H   UNL     1      -1.621   0.879  -1.424  0.00  0.00    +0.295 HD
ENDBRANCH  18  19
ENDBRANCH  16  18
ENDBRANCH   5  16
ENDBRANCH   1   6
BRANCH   1  21
ATOM     21  C   UNL     1       1.019  -0.546   0.533  0.00  0.00    +0.041 C 
BRANCH  21  23
ATOM     22  O   UNL     1       0.823  -2.981   0.552  0.00  0.00    -0.252 OA
ATOM     23  C   UNL     1       0.923  -1.935  -0.077  0.00  0.00    +0.297 C 
BRANCH  23  24
ATOM     24  O   UNL     1       0.959  -1.829  -1.440  0.00  0.00    -0.450 OA
BRANCH  24  25
ATOM     25  C   UNL     1       0.869  -3.063  -2.159  0.00  0.00    +0.208 C 
ATOM     26  C   UNL     1       0.922  -2.775  -3.644  0.00  0.00    +0.051 C 
ENDBRANCH  24  25
ENDBRANCH  23  24
ENDBRANCH  21  23
BRANCH  21  27
ATOM     27  C   UNL     1       2.491  -0.207   0.815  0.00  0.00    -0.006 C 
BRANCH  27  28
ATOM     28  C   UNL     1       3.401  -0.157  -0.421  0.00  0.00    +0.025 C 
BRANCH  28  29
ATOM     29  C   UNL     1       4.823   0.239  -0.114  0.00  0.00    -0.022 C 
ATOM     30  C   UNL     1       5.193   1.584  -0.135  0.00  0.00    -0.004 C 
ATOM     31  C   UNL     1       5.769  -0.739   0.193  0.00  0.00    -0.004 C 
ATOM     32  C   UNL     1       6.508   1.950   0.149  0.00  0.00    -0.000 C 
ATOM     33  C   UNL     1       7.084  -0.373   0.477  0.00  0.00    -0.000 C 
ATOM     34  C   UNL     1       7.454   0.972   0.455  0.00  0.00    -0.000 C 
ENDBRANCH  28  29
ENDBRANCH  27  28
ENDBRANCH  21  27
ENDBRANCH   1  21
TORSDOF 11
