3435
  -OEChem-08311816013D

 23 24  0     0  0  0  0  0  0999 V2000
   -4.7706   -0.3904    0.2910 O   0  0  0  0  0  0  0  0  0  0  0  0
    1.9333   -0.5355    0.0900 O   0  0  0  0  0  0  0  0  0  0  0  0
   -3.9319    1.7184    0.5958 O   0  0  0  0  0  0  0  0  0  0  0  0
    5.3794    0.0455    0.0866 O   0  5  0  0  0  0  0  0  0  0  0  0
    4.2033   -1.7834    0.4178 O   0  0  0  0  0  0  0  0  0  0  0  0
   -2.6168   -0.0556   -0.1588 N   0  0  0  0  0  0  0  0  0  0  0  0
   -1.4478    0.5914   -0.2504 N   0  0  0  0  0  0  0  0  0  0  0  0
    4.2621   -0.5436    0.1689 N   0  3  0  0  0  0  0  0  0  0  0  0
   -2.7733   -1.4552   -0.3477 C   0  0  0  0  0  0  0  0  0  0  0  0
   -4.2767   -1.6021   -0.3128 C   0  0  0  0  0  0  0  0  0  0  0  0
   -3.7700    0.5513    0.2684 C   0  0  0  0  0  0  0  0  0  0  0  0
    0.9402    0.3466   -0.1210 C   0  0  0  0  0  0  0  0  0  0  0  0
   -0.4176   -0.1688   -0.0625 C   0  0  0  0  0  0  0  0  0  0  0  0
    1.3966    1.6005   -0.3586 C   0  0  0  0  0  0  0  0  0  0  0  0
    3.0831    0.1809   -0.0158 C   0  0  0  0  0  0  0  0  0  0  0  0
    2.8067    1.5000   -0.2910 C   0  0  0  0  0  0  0  0  0  0  0  0
   -2.3483   -2.0006    0.5018 H   0  0  0  0  0  0  0  0  0  0  0  0
   -2.3399   -1.8050   -1.2890 H   0  0  0  0  0  0  0  0  0  0  0  0
   -4.7047   -1.6776   -1.3180 H   0  0  0  0  0  0  0  0  0  0  0  0
   -4.5986   -2.4668    0.2749 H   0  0  0  0  0  0  0  0  0  0  0  0
   -0.4613   -1.2457    0.1721 H   0  0  0  0  0  0  0  0  0  0  0  0
    0.8126    2.4878   -0.5571 H   0  0  0  0  0  0  0  0  0  0  0  0
    3.5266    2.2948   -0.4272 H   0  0  0  0  0  0  0  0  0  0  0  0
  1 10  1  0  0  0  0
  1 11  1  0  0  0  0
  2 12  1  0  0  0  0
  2 15  1  0  0  0  0
  3 11  2  0  0  0  0
  4  8  1  0  0  0  0
  5  8  2  0  0  0  0
  6  7  1  0  0  0  0
  6  9  1  0  0  0  0
  6 11  1  0  0  0  0
  7 13  2  0  0  0  0
  8 15  1  0  0  0  0
  9 10  1  0  0  0  0
  9 17  1  0  0  0  0
  9 18  1  0  0  0  0
 10 19  1  0  0  0  0
 10 20  1  0  0  0  0
 12 13  1  0  0  0  0
 12 14  2  0  0  0  0
 13 21  1  0  0  0  0
 14 16  1  0  0  0  0
 14 22  1  0  0  0  0
 15 16  2  0  0  0  0
 16 23  1  0  0  0  0
M  CHG  2   4  -1   8   1
M  END
> <DATABASE_ID>
DB00614

> <DATABASE_NAME>
drugbank

> <ORIGINAL_SOURCE>
PUBCHEM

> <ORIGINAL_SOURCE_URL>
https://pubchem.ncbi.nlm.nih.gov/rest/pug/compound/inchikey/PLHJDBGFXBMTGZ-UHFFFAOYSA-N/SDF?record_type=3d

> <SMILES>
[H]C(=NN1CCOC1=O)C1=CC=C(O1)[N+]([O-])=O

> <INCHI_IDENTIFIER>
InChI=1S/C8H7N3O5/c12-8-10(3-4-15-8)9-5-6-1-2-7(16-6)11(13)14/h1-2,5H,3-4H2

> <INCHI_KEY>
PLHJDBGFXBMTGZ-UHFFFAOYSA-N

> <FORMULA>
C8H7N3O5

> <MOLECULAR_WEIGHT>
225.1583

> <EXACT_MASS>
225.038570349

> <JCHEM_ACCEPTOR_COUNT>
5

> <JCHEM_ATOM_COUNT>
23

> <JCHEM_AVERAGE_POLARIZABILITY>
19.776286860333208

> <JCHEM_BIOAVAILABILITY>
1

> <JCHEM_DONOR_COUNT>
0

> <JCHEM_FORMAL_CHARGE>
0

> <JCHEM_GHOSE_FILTER>
1

> <JCHEM_IUPAC>
3-{[(5-nitrofuran-2-yl)methylidene]amino}-1,3-oxazolidin-2-one

> <ALOGPS_LOGP>
0.15

> <JCHEM_LOGP>
0.8699244056666666

> <ALOGPS_LOGS>
-2.79

> <JCHEM_MDDR_LIKE_RULE>
0

> <JCHEM_NUMBER_OF_RINGS>
2

> <JCHEM_PHYSIOLOGICAL_CHARGE>
0

> <JCHEM_PKA_STRONGEST_BASIC>
-2.4069771117536334

> <JCHEM_POLAR_SURFACE_AREA>
98.17999999999999

> <JCHEM_REFRACTIVITY>
50.08099999999999

> <JCHEM_ROTATABLE_BOND_COUNT>
3

> <JCHEM_RULE_OF_FIVE>
1

> <ALOGPS_SOLUBILITY>
3.64e-01 g/l

> <JCHEM_TRADITIONAL_IUPAC>
furazolidone

> <JCHEM_VEBER_RULE>
0

> <DRUGBANK_ID>
DB00614

> <SECONDARY_ACCESSION_NUMBERS>
APRD00988

> <DRUG_GROUPS>
experimental; vet_approved

> <GENERIC_NAME>
Furazolidone

> <SYNONYMS>
3-(5'-Nitrofurfuralamino)-2-oxazolidone; 3-[(5-Nitrofurfurylidene)amino]-2-oxazolidinone; 3-[(5-Nitrofurfurylidene)amino]-2-oxazolidone; 3-[(5-Nitrofurylidene)amino]-2-oxazolidone; 3-{[(5-nitro-2-furanyl)methylene]amino}-2-oxazolidinone; 5-Nitro-N-(2-oxo-3-oxazolidinyl)-2-furanmethanimine; Furazolidona; Furazolidonum; FZL; N-(5-Nitro-2-furfurylidene)-3-amino-2-oxazolidone; N-(5-Nitro-2-furfurylidene)-3-aminooxazolidine-2-one; Nitrofurazolidone; Nitrofurazolidonum

> <INTERNATIONAL_BRANDS>
Dependal-M; Furoxone

$$$$
