REMARK  Name = 33572
REMARK  9 active torsions:
REMARK  status: ('A' for Active; 'I' for Inactive)
REMARK    1  A    between atoms: N_1  and  C_4
REMARK    2  A    between atoms: N_1  and  C_17
REMARK    3  A    between atoms: C_4  and  C_6
REMARK    4  A    between atoms: C_6  and  C_7
REMARK    5  A    between atoms: C_6  and  O_15
REMARK    6  A    between atoms: C_12  and  O_13
REMARK    7  A    between atoms: C_17  and  C_18
REMARK    8  A    between atoms: C_18  and  C_19
REMARK    9  A    between atoms: C_24  and  O_25
REMARK                            x       y       z     vdW  Elec       q    Type
REMARK                         _______ _______ _______ _____ _____    ______ ____
ROOT
ATOM      1  N   UNL     1       0.405   0.898   0.492  0.00  0.00    +0.387 N 
ATOM      2  H   UNL     1       0.424   1.262   1.445  0.00  0.00    -0.084 HD
ATOM      3  H   UNL     1       0.848  -0.020   0.457  0.00  0.00    -0.084 HD
ENDROOT
BRANCH   1   4
ATOM      4  C   UNL     1       1.140   1.814  -0.390  0.00  0.00    -0.030 C 
ATOM      5  C   UNL     1       0.459   3.182  -0.323  0.00  0.00    -0.021 C 
BRANCH   4   6
ATOM      6  C   UNL     1       2.624   1.868   0.040  0.00  0.00    +0.113 C 
BRANCH   6   7
ATOM      7  C   UNL     1       3.309   0.518   0.029  0.00  0.00    +0.002 C 
ATOM      8  C   UNL     1       3.905   0.054   1.189  0.00  0.00    +0.001 C 
ATOM      9  C   UNL     1       3.326  -0.221  -1.141  0.00  0.00    +0.001 C 
ATOM     10  C   UNL     1       4.537  -1.190   1.178  0.00  0.00    +0.036 C 
ATOM     11  C   UNL     1       3.958  -1.464  -1.152  0.00  0.00    +0.036 C 
ATOM     12  C   UNL     1       4.564  -1.948   0.008  0.00  0.00    +0.134 C 
BRANCH  12  13
ATOM     13  O   UNL     1       5.180  -3.162  -0.002  0.00  0.00    -0.506 OA
ATOM     14  H   UNL     1       5.587  -3.487   0.777  0.00  0.00    +0.292 HD
ENDBRANCH  12  13
ENDBRANCH   6   7
BRANCH   6  15
ATOM     15  O   UNL     1       3.361   2.712  -0.848  0.00  0.00    -0.382 OA
ATOM     16  H   UNL     1       2.953   3.592  -0.871  0.00  0.00    +0.211 HD
ENDBRANCH   6  15
ENDBRANCH   4   6
ENDBRANCH   1   4
BRANCH   1  17
ATOM     17  C   UNL     1      -0.975   0.771   0.057  0.00  0.00    -0.077 C 
BRANCH  17  18
ATOM     18  C   UNL     1      -1.752  -0.176   0.972  0.00  0.00    +0.003 C 
BRANCH  18  19
ATOM     19  C   UNL     1      -3.181  -0.335   0.518  0.00  0.00    -0.024 C 
ATOM     20  C   UNL     1      -4.151   0.528   1.006  0.00  0.00    -0.001 C 
ATOM     21  C   UNL     1      -3.502  -1.342  -0.379  0.00  0.00    -0.001 C 
ATOM     22  C   UNL     1      -5.473   0.381   0.586  0.00  0.00    +0.036 C 
ATOM     23  C   UNL     1      -4.824  -1.490  -0.799  0.00  0.00    +0.036 C 
ATOM     24  C   UNL     1      -5.809  -0.628  -0.316  0.00  0.00    +0.134 C 
BRANCH  24  25
ATOM     25  O   UNL     1      -7.100  -0.771  -0.726  0.00  0.00    -0.506 OA
ATOM     26  H   UNL     1      -7.761  -0.193  -0.401  0.00  0.00    +0.292 HD
ENDBRANCH  24  25
ENDBRANCH  18  19
ENDBRANCH  17  18
ENDBRANCH   1  17
TORSDOF 9
