REMARK  Name = 5078
REMARK  5 active torsions:
REMARK  status: ('A' for Active; 'I' for Inactive)
REMARK    1  A    between atoms: C_2  and  C_11
REMARK    2  A    between atoms: C_7  and  C_17
REMARK    3  A    between atoms: C_11  and  C_12
REMARK    4  A    between atoms: C_12  and  N_13
REMARK    5  A    between atoms: C_17  and  N_18
REMARK                            x       y       z     vdW  Elec       q    Type
REMARK                         _______ _______ _______ _____ _____    ______ ____
ROOT
ATOM      1  N   UNL     1      -1.559  -3.094  -0.820  0.00  0.00    -0.312 N 
ATOM      2  C   UNL     1      -2.188  -1.172   0.095  0.00  0.00    -0.008 C 
ATOM      3  C   UNL     1      -0.777  -1.292   0.237  0.00  0.00    +0.010 C 
ATOM      4  C   UNL     1      -0.408  -2.506  -0.345  0.00  0.00    +0.048 C 
ATOM      5  C   UNL     1       0.224  -0.481   0.807  0.00  0.00    -0.002 C 
ATOM      6  C   UNL     1      -2.640  -2.295  -0.559  0.00  0.00    +0.057 C 
ATOM      7  C   UNL     1       1.555  -0.914   0.773  0.00  0.00    -0.000 C 
ATOM      8  C   UNL     1       0.917  -2.952  -0.386  0.00  0.00    +0.014 C 
ATOM      9  C   UNL     1       1.894  -2.131   0.185  0.00  0.00    -0.001 C 
ATOM     10  H   UNL     1      -1.599  -3.963  -1.281  0.00  0.00    +0.152 HD
ENDROOT
BRANCH   2  11
ATOM     11  C   UNL     1      -3.027  -0.049   0.561  0.00  0.00    +0.005 C 
BRANCH  11  12
ATOM     12  C   UNL     1      -3.187   1.060  -0.495  0.00  0.00    -0.073 C 
BRANCH  12  13
ATOM     13  N   UNL     1      -3.995   2.169  -0.001  0.00  0.00    +0.384 N 
ATOM     14  C   UNL     1      -4.091   3.225  -1.010  0.00  0.00    -0.101 C 
ATOM     15  C   UNL     1      -3.432   2.702   1.241  0.00  0.00    -0.101 C 
ATOM     16  H   UNL     1      -4.933   1.820   0.192  0.00  0.00    -0.080 HD
ENDBRANCH  12  13
ENDBRANCH  11  12
ENDBRANCH   2  11
BRANCH   7  17
ATOM     17  C   UNL     1       2.621  -0.061   1.376  0.00  0.00    +0.144 C 
BRANCH  17  18
ATOM     18  N   UNL     1       3.185   0.877   0.400  0.00  0.00    -0.186 N 
ATOM     19  N   UNL     1       4.231   0.518  -0.336  0.00  0.00    -0.154 NA
ATOM     20  N   UNL     1       3.519   2.642  -0.801  0.00  0.00    -0.203 NA
ATOM     21  C   UNL     1       2.758   2.125   0.135  0.00  0.00    +0.186 C 
ATOM     22  C   UNL     1       4.400   1.630  -1.056  0.00  0.00    +0.218 C 
ENDBRANCH  17  18
ENDBRANCH   7  17
TORSDOF 5
