REMARK  Name = 110634
REMARK  8 active torsions:
REMARK  status: ('A' for Active; 'I' for Inactive)
REMARK    1  A    between atoms: C_1  and  S_22
REMARK    2  A    between atoms: C_4  and  C_12
REMARK    3  A    between atoms: C_5  and  O_34
REMARK    4  A    between atoms: C_13  and  C_19
REMARK    5  A    between atoms: C_19  and  C_20
REMARK    6  A    between atoms: S_22  and  N_25
REMARK    7  A    between atoms: N_26  and  C_32
REMARK    8  A    between atoms: O_34  and  C_35
REMARK                            x       y       z     vdW  Elec       q    Type
REMARK                         _______ _______ _______ _____ _____    ______ ____
ROOT
ATOM      1  C   UNL     1       2.011  -1.492   1.043  0.00  0.00    +0.123 C 
ATOM      2  C   UNL     1       0.952  -0.599   1.063  0.00  0.00    +0.027 C 
ATOM      3  C   UNL     1       2.005  -2.600   0.213  0.00  0.00    +0.023 C 
ATOM      4  C   UNL     1      -0.144  -0.821   0.230  0.00  0.00    +0.081 C 
ATOM      5  C   UNL     1      -0.167  -1.934  -0.612  0.00  0.00    +0.142 C 
ATOM      6  C   UNL     1       0.908  -2.823  -0.621  0.00  0.00    +0.038 C 
ENDROOT
BRANCH   4  12
ATOM      7  O   UNL     1      -1.736   3.548   0.866  0.00  0.00    -0.212 OA
ATOM      8  N   UNL     1      -3.550   0.583   0.023  0.00  0.00    -0.195 N 
ATOM      9  N   UNL     1      -2.556  -0.340  -0.024  0.00  0.00    -0.233 N 
ATOM     10  N   UNL     1      -0.999   1.393   0.545  0.00  0.00    -0.318 NA
ATOM     11  N   UNL     1      -5.522   1.579  -0.053  0.00  0.00    -0.396 NA
ATOM     12  C   UNL     1      -1.288   0.148   0.255  0.00  0.00    +0.212 C 
ATOM     13  C   UNL     1      -4.887   0.435  -0.194  0.00  0.00    +0.176 C 
ATOM     14  C   UNL     1      -3.307   1.893   0.319  0.00  0.00    +0.259 C 
ATOM     15  C   UNL     1      -4.544   2.494   0.266  0.00  0.00    +0.125 C 
ATOM     16  C   UNL     1      -1.979   2.376   0.601  0.00  0.00    +0.208 C 
ATOM     17  C   UNL     1      -4.897   3.903   0.499  0.00  0.00    +0.065 C 
ATOM     18  H   UNL     1      -2.723  -1.286  -0.241  0.00  0.00    +0.173 HD
BRANCH  13  19
ATOM     19  C   UNL     1      -5.498  -0.864  -0.539  0.00  0.00    +0.076 C 
BRANCH  19  20
ATOM     20  C   UNL     1      -5.936  -1.663   0.705  0.00  0.00    +0.009 C 
ATOM     21  C   UNL     1      -6.599  -2.983   0.346  0.00  0.00    +0.000 C 
ENDBRANCH  19  20
ENDBRANCH  13  19
ENDBRANCH   4  12
BRANCH   1  22
ATOM     22  S   UNL     1       3.399  -1.210   2.098  0.00  0.00    +0.063 S 
ATOM     23  O   UNL     1       2.953  -0.396   3.208  0.00  0.00    -0.153 OA
ATOM     24  O   UNL     1       4.054  -2.482   2.321  0.00  0.00    -0.153 OA
BRANCH  22  25
ATOM     25  N   UNL     1       4.374  -0.257   1.061  0.00  0.00    -0.160 NA
ATOM     26  N   UNL     1       5.445   1.164  -1.197  0.00  0.00    +0.389 N 
ATOM     27  C   UNL     1       5.015  -0.989  -0.068  0.00  0.00    +0.073 C 
ATOM     28  C   UNL     1       3.762   1.022   0.603  0.00  0.00    +0.073 C 
ATOM     29  C   UNL     1       6.056  -0.089  -0.733  0.00  0.00    -0.058 C 
ATOM     30  C   UNL     1       4.828   1.883  -0.074  0.00  0.00    -0.058 C 
ATOM     31  H   UNL     1       4.716   0.935  -1.873  0.00  0.00    -0.080 HD
BRANCH  26  32
ATOM     32  C   UNL     1       6.439   2.005  -1.863  0.00  0.00    -0.077 C 
ATOM     33  C   UNL     1       5.801   3.258  -2.438  0.00  0.00    -0.025 C 
ENDBRANCH  26  32
ENDBRANCH  22  25
ENDBRANCH   1  22
BRANCH   5  34
ATOM     34  O   UNL     1      -1.229  -2.168  -1.433  0.00  0.00    -0.475 OA
BRANCH  34  35
ATOM     35  C   UNL     1      -0.966  -2.213  -2.834  0.00  0.00    +0.206 C 
ATOM     36  C   UNL     1      -2.201  -1.758  -3.582  0.00  0.00    +0.051 C 
ENDBRANCH  34  35
ENDBRANCH   5  34
TORSDOF 8
