REMARK  Name = 7741
REMARK  3 active torsions:
REMARK  status: ('A' for Active; 'I' for Inactive)
REMARK    1  A    between atoms: C_1  and  C_4
REMARK    2  A    between atoms: C_1  and  C_8
REMARK    3  A    between atoms: C_8  and  N_9
REMARK                            x       y       z     vdW  Elec       q    Type
REMARK                         _______ _______ _______ _____ _____    ______ ____
ROOT
ATOM      1  C   UNL     1      -1.199  -0.046  -0.680  0.00  0.00    +0.019 C 
ENDROOT
BRANCH   1   4
ATOM      2  N   UNL     1       0.979   1.020  -0.140  0.00  0.00    -0.240 N 
ATOM      3  N   UNL     1       2.253   0.772   0.208  0.00  0.00    -0.180 NA
ATOM      4  C   UNL     1       0.250  -0.105  -0.294  0.00  0.00    +0.042 C 
ATOM      5  C   UNL     1       1.061  -1.160  -0.042  0.00  0.00    +0.034 C 
ATOM      6  C   UNL     1       2.297  -0.561   0.266  0.00  0.00    +0.119 C 
ATOM      7  H   UNL     1       0.615   1.926  -0.268  0.00  0.00    +0.174 HD
ENDBRANCH   1   4
BRANCH   1   8
ATOM      8  C   UNL     1      -2.119   0.024   0.541  0.00  0.00    -0.080 C 
BRANCH   8   9
ATOM      9  N   UNL     1      -3.522   0.056   0.140  0.00  0.00    +0.381 N 
ATOM     10  H   UNL     1      -4.112   0.102   0.971  0.00  0.00    -0.089 HD
ATOM     11  H   UNL     1      -3.744  -0.788  -0.388  0.00  0.00    -0.089 HD
ATOM     12  H   UNL     1      -3.690   0.876  -0.442  0.00  0.00    -0.089 HD
ENDBRANCH   8   9
ENDBRANCH   1   8
TORSDOF 3
