REMARK  Name = 2724354
REMARK  7 active torsions:
REMARK  status: ('A' for Active; 'I' for Inactive)
REMARK    1  A    between atoms: C_1  and  S_2
REMARK    2  A    between atoms: C_1  and  C_5
REMARK    3  A    between atoms: C_1  and  C_8
REMARK    4  A    between atoms: C_5  and  O_6
REMARK    5  A    between atoms: C_8  and  S_9
REMARK    6  A    between atoms: C_8  and  C_12
REMARK    7  A    between atoms: C_12  and  O_13
REMARK                            x       y       z     vdW  Elec       q    Type
REMARK                         _______ _______ _______ _____ _____    ______ ____
ROOT
ATOM      1  C   UNL     1      -0.766  -0.180  -0.755  0.00  0.00    +0.163 C 
ENDROOT
BRANCH   1   2
ATOM      2  S   UNL     1      -2.173  -1.267  -1.192  0.00  0.00    -0.157 S 
ATOM      3  H   UNL     1      -1.771  -2.179  -2.118  0.00  0.00    +0.103 HD
ENDBRANCH   1   2
BRANCH   1   5
ATOM      4  O   UNL     1      -1.977   0.662   1.205  0.00  0.00    -0.249 OA
ATOM      5  C   UNL     1      -1.202   0.843   0.278  0.00  0.00    +0.325 C 
BRANCH   5   6
ATOM      6  O   UNL     1      -0.607   2.041   0.030  0.00  0.00    -0.480 OA
ATOM      7  H   UNL     1      -0.019   2.131  -0.694  0.00  0.00    +0.295 HD
ENDBRANCH   5   6
ENDBRANCH   1   5
BRANCH   1   8
ATOM      8  C   UNL     1       0.494  -0.944  -0.304  0.00  0.00    +0.163 C 
BRANCH   8   9
ATOM      9  S   UNL     1       0.262  -1.955   1.205  0.00  0.00    -0.157 S 
ATOM     10  H   UNL     1      -0.801  -2.787   1.035  0.00  0.00    +0.103 HD
ENDBRANCH   8   9
BRANCH   8  12
ATOM     11  O   UNL     1       2.301   0.164   0.922  0.00  0.00    -0.249 OA
ATOM     12  C   UNL     1       1.681  -0.011  -0.119  0.00  0.00    +0.325 C 
BRANCH  12  13
ATOM     13  O   UNL     1       1.987   0.648  -1.269  0.00  0.00    -0.480 OA
ATOM     14  H   UNL     1       1.490   0.489  -2.047  0.00  0.00    +0.295 HD
ENDBRANCH  12  13
ENDBRANCH   8  12
ENDBRANCH   1   8
TORSDOF 7
