REMARK  Name = 3559
REMARK  7 active torsions:
REMARK  status: ('A' for Active; 'I' for Inactive)
REMARK    1  A    between atoms: N_1  and  C_17
REMARK    2  A    between atoms: C_2  and  C_9
REMARK    3  A    between atoms: C_2  and  O_15
REMARK    4  A    between atoms: C_17  and  C_18
REMARK    5  A    between atoms: C_18  and  C_19
REMARK    6  A    between atoms: C_19  and  C_21
REMARK    7  A    between atoms: C_21  and  C_23
REMARK                            x       y       z     vdW  Elec       q    Type
REMARK                         _______ _______ _______ _____ _____    ______ ____
ROOT
ATOM      1  N   UNL     1       0.467  -0.383   0.732  0.00  0.00    +0.387 N 
ATOM      2  C   UNL     1       3.174   0.361  -0.239  0.00  0.00    +0.103 C 
ATOM      3  C   UNL     1       2.455  -0.954  -0.616  0.00  0.00    +0.008 C 
ATOM      4  C   UNL     1       2.567   0.894   1.079  0.00  0.00    +0.008 C 
ATOM      5  C   UNL     1       0.927  -0.834  -0.585  0.00  0.00    -0.075 C 
ATOM      6  C   UNL     1       1.033   0.928   1.069  0.00  0.00    -0.075 C 
ATOM      7  H   UNL     1       0.793  -1.054   1.427  0.00  0.00    -0.080 HD
ENDROOT
BRANCH   2   9
ATOM      8 CL   UNL     1       9.180  -0.059   0.221  0.00  0.00    -0.082 Cl
ATOM      9  C   UNL     1       4.695   0.255  -0.124  0.00  0.00    +0.002 C 
ATOM     10  C   UNL     1       5.327  -0.966  -0.354  0.00  0.00    -0.001 C 
ATOM     11  C   UNL     1       5.448   1.379   0.212  0.00  0.00    -0.001 C 
ATOM     12  C   UNL     1       6.715  -1.063  -0.248  0.00  0.00    +0.011 C 
ATOM     13  C   UNL     1       6.835   1.282   0.318  0.00  0.00    +0.011 C 
ATOM     14  C   UNL     1       7.468   0.061   0.088  0.00  0.00    +0.058 C 
ENDBRANCH   2   9
BRANCH   2  15
ATOM     15  O   UNL     1       2.936   1.307  -1.292  0.00  0.00    -0.383 OA
ATOM     16  H   UNL     1       1.980   1.420  -1.415  0.00  0.00    +0.211 HD
ENDBRANCH   2  15
BRANCH   1  17
ATOM     17  C   UNL     1      -0.995  -0.337   0.777  0.00  0.00    -0.077 C 
BRANCH  17  18
ATOM     18  C   UNL     1      -1.576  -1.723   0.489  0.00  0.00    -0.015 C 
BRANCH  18  19
ATOM     19  C   UNL     1      -3.107  -1.729   0.522  0.00  0.00    +0.067 C 
BRANCH  19  21
ATOM     20  O   UNL     1      -3.186  -0.630  -1.626  0.00  0.00    -0.291 OA
ATOM     21  C   UNL     1      -3.737  -0.851  -0.550  0.00  0.00    +0.173 C 
BRANCH  21  23
ATOM     22  F   UNL     1      -8.767   1.366   0.429  0.00  0.00    -0.204 F 
ATOM     23  C   UNL     1      -5.081  -0.260  -0.290  0.00  0.00    +0.035 C 
ATOM     24  C   UNL     1      -5.958  -0.945   0.520  0.00  0.00    +0.005 C 
ATOM     25  C   UNL     1      -5.394   0.951  -0.868  0.00  0.00    +0.005 C 
ATOM     26  C   UNL     1      -7.215  -0.391   0.765  0.00  0.00    +0.030 C 
ATOM     27  C   UNL     1      -6.650   1.505  -0.623  0.00  0.00    +0.030 C 
ATOM     28  C   UNL     1      -7.561   0.834   0.194  0.00  0.00    +0.140 C 
ENDBRANCH  21  23
ENDBRANCH  19  21
ENDBRANCH  18  19
ENDBRANCH  17  18
ENDBRANCH   1  17
TORSDOF 7
