REMARK  Name = 2405
REMARK  13 active torsions:
REMARK  status: ('A' for Active; 'I' for Inactive)
REMARK    1  A    between atoms: C_1  and  O_7
REMARK    2  A    between atoms: C_2  and  C_19
REMARK    3  A    between atoms: O_7  and  C_8
REMARK    4  A    between atoms: C_8  and  C_9
REMARK    5  A    between atoms: C_9  and  O_10
REMARK    6  A    between atoms: C_9  and  C_12
REMARK    7  A    between atoms: C_12  and  N_13
REMARK    8  A    between atoms: N_13  and  C_16
REMARK    9  A    between atoms: C_19  and  O_20
REMARK   10  A    between atoms: O_20  and  C_21
REMARK   11  A    between atoms: C_21  and  C_22
REMARK   12  A    between atoms: C_22  and  O_23
REMARK   13  A    between atoms: O_23  and  C_24
REMARK                            x       y       z     vdW  Elec       q    Type
REMARK                         _______ _______ _______ _____ _____    ______ ____
ROOT
ATOM      1  C   UNL     1       1.912   1.630  -0.312  0.00  0.00    +0.139 C 
ATOM      2  C   UNL     1      -0.806   2.217  -0.241  0.00  0.00    +0.007 C 
ATOM      3  C   UNL     1       1.127   1.397  -1.436  0.00  0.00    +0.037 C 
ATOM      4  C   UNL     1       1.350   2.154   0.848  0.00  0.00    +0.037 C 
ATOM      5  C   UNL     1      -0.236   1.691  -1.400  0.00  0.00    +0.001 C 
ATOM      6  C   UNL     1      -0.013   2.448   0.883  0.00  0.00    +0.001 C 
ENDROOT
BRANCH   1   7
ATOM      7  O   UNL     1       3.250   1.340  -0.347  0.00  0.00    -0.473 OA
BRANCH   7   8
ATOM      8  C   UNL     1       3.855   0.962   0.885  0.00  0.00    +0.232 C 
BRANCH   8   9
ATOM      9  C   UNL     1       5.002  -0.005   0.595  0.00  0.00    +0.133 C 
BRANCH   9  10
ATOM     10  O   UNL     1       5.941   0.648  -0.264  0.00  0.00    -0.383 OA
ATOM     11  H   UNL     1       6.676   0.045  -0.457  0.00  0.00    +0.210 HD
ENDBRANCH   9  10
BRANCH   9  12
ATOM     12  C   UNL     1       4.547  -1.296  -0.089  0.00  0.00    -0.048 C 
BRANCH  12  13
ATOM     13  N   UNL     1       3.554  -2.013   0.699  0.00  0.00    +0.387 N 
ATOM     14  H   UNL     1       2.757  -1.400   0.869  0.00  0.00    -0.084 HD
ATOM     15  H   UNL     1       3.981  -2.295   1.582  0.00  0.00    -0.084 HD
BRANCH  13  16
ATOM     16  C   UNL     1       3.098  -3.207   0.001  0.00  0.00    -0.062 C 
ATOM     17  C   UNL     1       2.099  -3.957   0.877  0.00  0.00    -0.023 C 
ATOM     18  C   UNL     1       2.476  -2.830  -1.340  0.00  0.00    -0.023 C 
ENDBRANCH  13  16
ENDBRANCH  12  13
ENDBRANCH   9  12
ENDBRANCH   8   9
ENDBRANCH   7   8
ENDBRANCH   1   7
BRANCH   2  19
ATOM     19  C   UNL     1      -2.263   2.531  -0.203  0.00  0.00    +0.169 C 
BRANCH  19  20
ATOM     20  O   UNL     1      -2.982   1.389   0.246  0.00  0.00    -0.346 OA
BRANCH  20  21
ATOM     21  C   UNL     1      -4.379   1.641   0.299  0.00  0.00    +0.175 C 
BRANCH  21  22
ATOM     22  C   UNL     1      -5.091   0.384   0.761  0.00  0.00    +0.174 C 
BRANCH  22  23
ATOM     23  O   UNL     1      -4.840  -0.661  -0.172  0.00  0.00    -0.354 OA
BRANCH  23  24
ATOM     24  C   UNL     1      -5.485  -1.867   0.211  0.00  0.00    +0.115 C 
ATOM     25  C   UNL     1      -5.129  -2.963  -0.783  0.00  0.00    +0.032 C 
ATOM     26  C   UNL     1      -6.986  -1.631   0.282  0.00  0.00    +0.032 C 
ENDBRANCH  23  24
ENDBRANCH  22  23
ENDBRANCH  21  22
ENDBRANCH  20  21
ENDBRANCH  19  20
ENDBRANCH   2  19
TORSDOF 13
