REMARK  Name = 2368
REMARK  2 active torsions:
REMARK  status: ('A' for Active; 'I' for Inactive)
REMARK    1  A    between atoms: N_1  and  C_9
REMARK    2  A    between atoms: C_9  and  C_10
REMARK                            x       y       z     vdW  Elec       q    Type
REMARK                         _______ _______ _______ _____ _____    ______ ____
ROOT
ATOM      1  N   UNL     1       1.073   0.819  -0.750  0.00  0.00    -0.341 N 
ATOM      2  N   UNL     1       3.042   0.700   0.506  0.00  0.00    -0.343 N 
ATOM      3  N   UNL     1       2.124  -1.288  -0.309  0.00  0.00    -0.238 NA
ATOM      4  C   UNL     1       2.065   0.011  -0.201  0.00  0.00    +0.195 C 
ATOM      5  C   UNL     1       2.820   1.940   1.215  0.00  0.00    +0.124 C 
ATOM      6  C   UNL     1       3.234  -1.980   0.329  0.00  0.00    +0.155 C 
ATOM      7  H   UNL     1       1.158   1.787  -0.588  0.00  0.00    +0.164 HD
ATOM      8  H   UNL     1       3.949   0.317   0.526  0.00  0.00    +0.163 HD
ENDROOT
BRANCH   1   9
ATOM      9  C   UNL     1      -0.067   0.398  -1.532  0.00  0.00    +0.127 C 
BRANCH   9  10
ATOM     10  C   UNL     1      -1.274   0.138  -0.669  0.00  0.00    -0.000 C 
ATOM     11  C   UNL     1      -1.482  -1.132  -0.150  0.00  0.00    -0.002 C 
ATOM     12  C   UNL     1      -2.160   1.173  -0.405  0.00  0.00    -0.002 C 
ATOM     13  C   UNL     1      -2.600  -1.372   0.649  0.00  0.00    -0.000 C 
ATOM     14  C   UNL     1      -3.277   0.933   0.395  0.00  0.00    -0.000 C 
ATOM     15  C   UNL     1      -3.497  -0.340   0.922  0.00  0.00    -0.000 C 
ENDBRANCH   9  10
ENDBRANCH   1   9
TORSDOF 2
