REMARK  Name = 4642
REMARK  7 active torsions:
REMARK  status: ('A' for Active; 'I' for Inactive)
REMARK    1  A    between atoms: C_1  and  C_2
REMARK    2  A    between atoms: C_1  and  C_8
REMARK    3  A    between atoms: C_1  and  O_14
REMARK    4  A    between atoms: C_1  and  C_17
REMARK    5  A    between atoms: C_17  and  O_18
REMARK    6  A    between atoms: O_18  and  C_19
REMARK    7  A    between atoms: C_19  and  C_22
REMARK                            x       y       z     vdW  Elec       q    Type
REMARK                         _______ _______ _______ _____ _____    ______ ____
ROOT
ATOM      1  C   UNL     1      -1.647   0.141   0.742  0.00  0.00    +0.196 C 
ENDROOT
BRANCH   1   2
ATOM      2  C   UNL     1      -1.855  -1.046  -0.196  0.00  0.00    +0.039 C 
ATOM      3  C   UNL     1      -3.162  -0.890  -0.986  0.00  0.00    +0.003 C 
ATOM      4  C   UNL     1      -1.845  -2.365   0.589  0.00  0.00    +0.003 C 
ATOM      5  C   UNL     1      -3.419  -2.092  -1.893  0.00  0.00    +0.000 C 
ATOM      6  C   UNL     1      -2.105  -3.564  -0.321  0.00  0.00    +0.000 C 
ATOM      7  C   UNL     1      -3.400  -3.402  -1.111  0.00  0.00    +0.000 C 
ENDBRANCH   1   2
BRANCH   1   8
ATOM      8  C   UNL     1      -1.595   1.521   0.093  0.00  0.00    +0.012 C 
ATOM      9  C   UNL     1      -2.130   2.594   0.772  0.00  0.00    -0.002 C 
ATOM     10  C   UNL     1      -1.016   1.647  -1.151  0.00  0.00    -0.002 C 
ATOM     11  C   UNL     1      -2.082   3.855   0.178  0.00  0.00    -0.000 C 
ATOM     12  C   UNL     1      -0.968   2.908  -1.745  0.00  0.00    -0.000 C 
ATOM     13  C   UNL     1      -1.502   4.012  -1.081  0.00  0.00    -0.000 C 
ENDBRANCH   1   8
BRANCH   1  14
ATOM     14  O   UNL     1      -2.762   0.155   1.643  0.00  0.00    -0.373 OA
ATOM     15  H   UNL     1      -3.579   0.310   1.144  0.00  0.00    +0.211 HD
ENDBRANCH   1  14
BRANCH   1  17
ATOM     16  O   UNL     1      -0.409  -0.333   2.792  0.00  0.00    -0.247 OA
ATOM     17  C   UNL     1      -0.396  -0.107   1.588  0.00  0.00    +0.346 C 
BRANCH  17  18
ATOM     18  O   UNL     1       0.724  -0.030   0.809  0.00  0.00    -0.439 OA
BRANCH  18  19
ATOM     19  C   UNL     1       1.966  -0.236   1.490  0.00  0.00    +0.268 C 
BRANCH  19  22
ATOM     20  N   UNL     1       3.508  -1.268  -0.187  0.00  0.00    -0.292 N 
ATOM     21  N   UNL     1       3.527   1.090   0.281  0.00  0.00    -0.257 NA
ATOM     22  C   UNL     1       3.074  -0.111   0.461  0.00  0.00    +0.148 C 
ATOM     23  C   UNL     1       4.592  -1.191  -1.161  0.00  0.00    +0.094 C 
ATOM     24  C   UNL     1       5.457   0.021  -0.848  0.00  0.00    +0.048 C 
ATOM     25  C   UNL     1       4.579   1.258  -0.727  0.00  0.00    +0.128 C 
ATOM     26  C   UNL     1       2.865  -2.565  -0.030  0.00  0.00    +0.113 C 
ENDBRANCH  19  22
ENDBRANCH  18  19
ENDBRANCH  17  18
ENDBRANCH   1  17
TORSDOF 7
