REMARK  Name = 5472
REMARK  2 active torsions:
REMARK  status: ('A' for Active; 'I' for Inactive)
REMARK    1  A    between atoms: N_2  and  C_11
REMARK    2  A    between atoms: C_11  and  C_13
REMARK                            x       y       z     vdW  Elec       q    Type
REMARK                         _______ _______ _______ _____ _____    ______ ____
ROOT
ATOM      1  S   UNL     1      -4.523  -0.104   0.723  0.00  0.00    -0.091 S 
ATOM      2  N   UNL     1      -0.332   0.952  -0.388  0.00  0.00    +0.393 N 
ATOM      3  C   UNL     1      -1.333   1.926  -0.872  0.00  0.00    -0.071 C 
ATOM      4  C   UNL     1      -0.763  -0.442  -0.636  0.00  0.00    -0.049 C 
ATOM      5  C   UNL     1      -2.641   1.828  -0.062  0.00  0.00    +0.010 C 
ATOM      6  C   UNL     1      -2.146  -0.657  -0.097  0.00  0.00    -0.041 C 
ATOM      7  C   UNL     1      -3.008   0.394   0.138  0.00  0.00    -0.001 C 
ATOM      8  C   UNL     1      -2.762  -1.907   0.209  0.00  0.00    +0.001 C 
ATOM      9  C   UNL     1      -4.054  -1.752   0.665  0.00  0.00    +0.035 C 
ATOM     10  H   UNL     1      -0.242   1.080   0.620  0.00  0.00    -0.079 HD
ENDROOT
BRANCH   2  11
ATOM     11  C   UNL     1       0.966   1.195  -1.019  0.00  0.00    -0.049 C 
BRANCH  11  13
ATOM     12 CL   UNL     1       2.584   2.140   1.428  0.00  0.00    -0.083 Cl
ATOM     13  C   UNL     1       2.031   0.276  -0.481  0.00  0.00    -0.033 C 
ATOM     14  C   UNL     1       2.802   0.632   0.618  0.00  0.00    +0.052 C 
ATOM     15  C   UNL     1       2.222  -0.943  -1.119  0.00  0.00    -0.005 C 
ATOM     16  C   UNL     1       3.779  -0.246   1.088  0.00  0.00    +0.011 C 
ATOM     17  C   UNL     1       3.200  -1.821  -0.650  0.00  0.00    -0.000 C 
ATOM     18  C   UNL     1       3.978  -1.472   0.454  0.00  0.00    +0.001 C 
ENDBRANCH  11  13
ENDBRANCH   2  11
TORSDOF 2
