REMARK  Name = 5572
REMARK  6 active torsions:
REMARK  status: ('A' for Active; 'I' for Inactive)
REMARK    1  A    between atoms: C_1  and  C_2
REMARK    2  A    between atoms: C_1  and  C_8
REMARK    3  A    between atoms: C_1  and  O_14
REMARK    4  A    between atoms: C_1  and  C_16
REMARK    5  A    between atoms: C_16  and  C_17
REMARK    6  A    between atoms: C_17  and  N_18
REMARK                            x       y       z     vdW  Elec       q    Type
REMARK                         _______ _______ _______ _____ _____    ______ ____
ROOT
ATOM      1  C   UNL     1       0.987  -0.041   0.747  0.00  0.00    +0.105 C 
ENDROOT
BRANCH   1   2
ATOM      2  C   UNL     1       1.391  -1.233  -0.120  0.00  0.00    +0.029 C 
ATOM      3  C   UNL     1       2.919  -1.350  -0.202  0.00  0.00    +0.003 C 
ATOM      4  C   UNL     1       0.771  -2.529   0.419  0.00  0.00    +0.003 C 
ATOM      5  C   UNL     1       3.348  -2.566  -1.020  0.00  0.00    +0.000 C 
ATOM      6  C   UNL     1       1.204  -3.743  -0.400  0.00  0.00    +0.000 C 
ATOM      7  C   UNL     1       2.723  -3.852  -0.487  0.00  0.00    +0.000 C 
ENDBRANCH   1   2
BRANCH   1   8
ATOM      8  C   UNL     1       1.518   1.317   0.279  0.00  0.00    +0.002 C 
ATOM      9  C   UNL     1       1.727   1.513  -1.066  0.00  0.00    -0.002 C 
ATOM     10  C   UNL     1       1.764   2.287   1.222  0.00  0.00    -0.002 C 
ATOM     11  C   UNL     1       2.210   2.750  -1.493  0.00  0.00    -0.000 C 
ATOM     12  C   UNL     1       2.247   3.525   0.795  0.00  0.00    -0.000 C 
ATOM     13  C   UNL     1       2.470   3.756  -0.562  0.00  0.00    -0.000 C 
ENDBRANCH   1   8
BRANCH   1  14
ATOM     14  O   UNL     1       1.583  -0.276   2.040  0.00  0.00    -0.383 OA
ATOM     15  H   UNL     1       1.279  -1.130   2.386  0.00  0.00    +0.211 HD
ENDBRANCH   1  14
BRANCH   1  16
ATOM     16  C   UNL     1      -0.552   0.001   0.963  0.00  0.00    +0.008 C 
BRANCH  16  17
ATOM     17  C   UNL     1      -1.363   0.414  -0.269  0.00  0.00    -0.075 C 
BRANCH  17  18
ATOM     18  N   UNL     1      -2.791   0.414   0.048  0.00  0.00    +0.387 N 
ATOM     19  C   UNL     1      -3.230  -0.932   0.442  0.00  0.00    -0.077 C 
ATOM     20  C   UNL     1      -3.571   0.914  -1.093  0.00  0.00    -0.077 C 
ATOM     21  C   UNL     1      -4.711  -0.940   0.824  0.00  0.00    -0.023 C 
ATOM     22  C   UNL     1      -5.063   0.967  -0.761  0.00  0.00    -0.023 C 
ATOM     23  C   UNL     1      -5.578  -0.394  -0.305  0.00  0.00    -0.004 C 
ATOM     24  H   UNL     1      -2.951   1.040   0.837  0.00  0.00    -0.080 HD
ENDBRANCH  17  18
ENDBRANCH  16  17
ENDBRANCH   1  16
TORSDOF 6
