REMARK  Name = 31072
REMARK  2 active torsions:
REMARK  status: ('A' for Active; 'I' for Inactive)
REMARK    1  A    between atoms: C_9  and  O_10
REMARK    2  A    between atoms: O_10  and  C_11
REMARK                            x       y       z     vdW  Elec       q    Type
REMARK                         _______ _______ _______ _____ _____    ______ ____
ROOT
ATOM      1  S   UNL     1       0.469  -2.275  -0.002  0.00  0.00    -0.017 S 
ATOM      2  O   UNL     1      -1.512   2.013  -0.001  0.00  0.00    -0.225 OA
ATOM      3  N   UNL     1       2.437  -0.314   0.001  0.00  0.00    -0.266 N 
ATOM      4  N   UNL     1       0.317   0.554   0.000  0.00  0.00    -0.183 N 
ATOM      5  C   UNL     1       1.065  -0.719   0.000  0.00  0.00    +0.154 C 
ATOM      6  C   UNL     1       1.266   1.568   0.000  0.00  0.00    +0.093 C 
ATOM      7  C   UNL     1       2.500   1.059   0.001  0.00  0.00    +0.084 C 
ATOM      8  C   UNL     1       3.630  -1.140   0.000  0.00  0.00    +0.119 C 
ATOM      9  C   UNL     1      -1.063   0.868  -0.001  0.00  0.00    +0.414 C 
ENDROOT
BRANCH   9  10
ATOM     10  O   UNL     1      -1.855  -0.246   0.000  0.00  0.00    -0.434 OA
BRANCH  10  11
ATOM     11  C   UNL     1      -3.269  -0.017   0.000  0.00  0.00    +0.210 C 
ATOM     12  C   UNL     1      -3.985  -1.350   0.001  0.00  0.00    +0.051 C 
ENDBRANCH  10  11
ENDBRANCH   9  10
TORSDOF 2
