REMARK  Name = 4917
REMARK  4 active torsions:
REMARK  status: ('A' for Active; 'I' for Inactive)
REMARK    1  A    between atoms: N_3  and  C_16
REMARK    2  A    between atoms: C_16  and  C_17
REMARK    3  A    between atoms: C_17  and  C_18
REMARK    4  A    between atoms: C_18  and  N_19
REMARK                            x       y       z     vdW  Elec       q    Type
REMARK                         _______ _______ _______ _____ _____    ______ ____
ROOT
ATOM      1 CL   UNL     1      -1.487  -4.879   0.275  0.00  0.00    -0.082 Cl
ATOM      2  S   UNL     1      -4.456   0.669   0.244  0.00  0.00    -0.084 S 
ATOM      3  N   UNL     1      -1.512   0.216  -0.647  0.00  0.00    -0.286 N 
ATOM      4  C   UNL     1      -2.208  -0.940  -0.212  0.00  0.00    +0.058 C 
ATOM      5  C   UNL     1      -1.853   1.549  -0.304  0.00  0.00    +0.058 C 
ATOM      6  C   UNL     1      -3.541  -0.859   0.238  0.00  0.00    +0.043 C 
ATOM      7  C   UNL     1      -3.150   1.877   0.137  0.00  0.00    +0.043 C 
ATOM      8  C   UNL     1      -1.595  -2.212  -0.176  0.00  0.00    +0.027 C 
ATOM      9  C   UNL     1      -0.909   2.599  -0.353  0.00  0.00    +0.015 C 
ATOM     10  C   UNL     1      -4.224  -2.008   0.676  0.00  0.00    +0.009 C 
ATOM     11  C   UNL     1      -3.481   3.199   0.482  0.00  0.00    +0.008 C 
ATOM     12  C   UNL     1      -2.277  -3.350   0.265  0.00  0.00    +0.059 C 
ATOM     13  C   UNL     1      -1.241   3.910  -0.004  0.00  0.00    +0.001 C 
ATOM     14  C   UNL     1      -3.594  -3.248   0.688  0.00  0.00    +0.012 C 
ATOM     15  C   UNL     1      -2.530   4.212   0.411  0.00  0.00    +0.001 C 
ENDROOT
BRANCH   3  16
ATOM     16  C   UNL     1      -0.305   0.014  -1.458  0.00  0.00    +0.093 C 
BRANCH  16  17
ATOM     17  C   UNL     1       0.922  -0.122  -0.554  0.00  0.00    -0.001 C 
BRANCH  17  18
ATOM     18  C   UNL     1       2.222  -0.319  -1.337  0.00  0.00    -0.076 C 
BRANCH  18  19
ATOM     19  N   UNL     1       3.376  -0.464  -0.453  0.00  0.00    +0.384 N 
ATOM     20  N   UNL     1       5.984   0.308   0.527  0.00  0.00    +0.383 N 
ATOM     21  C   UNL     1       3.556   0.737   0.372  0.00  0.00    -0.101 C 
ATOM     22  C   UNL     1       4.593  -0.742  -1.226  0.00  0.00    -0.101 C 
ATOM     23  C   UNL     1       4.767   0.585   1.299  0.00  0.00    -0.101 C 
ATOM     24  C   UNL     1       5.805  -0.892  -0.300  0.00  0.00    -0.101 C 
ATOM     25  C   UNL     1       7.138   0.161   1.412  0.00  0.00    -0.101 C 
ATOM     26  H   UNL     1       3.201  -1.256   0.166  0.00  0.00    -0.080 HD
ATOM     27  H   UNL     1       6.161   1.100  -0.091  0.00  0.00    -0.080 HD
ENDBRANCH  18  19
ENDBRANCH  17  18
ENDBRANCH  16  17
ENDBRANCH   3  16
TORSDOF 4
