REMARK  Name = 5533
REMARK  5 active torsions:
REMARK  status: ('A' for Active; 'I' for Inactive)
REMARK    1  A    between atoms: N_1  and  C_15
REMARK    2  A    between atoms: N_2  and  C_9
REMARK    3  A    between atoms: C_15  and  C_16
REMARK    4  A    between atoms: C_16  and  C_17
REMARK    5  A    between atoms: C_17  and  N_19
REMARK                            x       y       z     vdW  Elec       q    Type
REMARK                         _______ _______ _______ _____ _____    ______ ____
ROOT
ATOM      1  N   UNL     1       0.269  -0.916   0.686  0.00  0.00    +0.389 N 
ATOM      2  N   UNL     1       3.013  -0.339   0.143  0.00  0.00    -0.312 N 
ATOM      3  C   UNL     1       0.961   0.153   1.416  0.00  0.00    -0.055 C 
ATOM      4  C   UNL     1       1.209  -2.000   0.378  0.00  0.00    -0.055 C 
ATOM      5  C   UNL     1       2.110   0.730   0.586  0.00  0.00    +0.068 C 
ATOM      6  C   UNL     1       2.367  -1.495  -0.486  0.00  0.00    +0.068 C 
ATOM      7  H   UNL     1      -0.094  -0.536  -0.188  0.00  0.00    -0.080 HD
ENDROOT
BRANCH   2   9
ATOM      8 CL   UNL     1       7.528   1.743   1.470  0.00  0.00    -0.082 Cl
ATOM      9  C   UNL     1       4.318   0.011  -0.223  0.00  0.00    +0.049 C 
ATOM     10  C   UNL     1       5.187   0.634   0.695  0.00  0.00    +0.026 C 
ATOM     11  C   UNL     1       4.801  -0.250  -1.521  0.00  0.00    +0.015 C 
ATOM     12  C   UNL     1       6.488   0.981   0.330  0.00  0.00    +0.059 C 
ATOM     13  C   UNL     1       6.102   0.098  -1.886  0.00  0.00    +0.002 C 
ATOM     14  C   UNL     1       6.945   0.714  -0.961  0.00  0.00    +0.011 C 
ENDBRANCH   2   9
BRANCH   1  15
ATOM     15  C   UNL     1      -0.860  -1.422   1.467  0.00  0.00    -0.075 C 
BRANCH  15  16
ATOM     16  C   UNL     1      -1.643  -2.497   0.709  0.00  0.00    +0.004 C 
BRANCH  16  17
ATOM     17  C   UNL     1      -2.228  -2.031  -0.623  0.00  0.00    +0.130 C 
BRANCH  17  19
ATOM     18  O   UNL     1      -5.235  -2.068  -0.191  0.00  0.00    -0.244 OA
ATOM     19  N   UNL     1      -3.170  -0.957  -0.465  0.00  0.00    -0.201 N 
ATOM     20  N   UNL     1      -4.982   0.262  -0.178  0.00  0.00    -0.241 N 
ATOM     21  N   UNL     1      -2.770   0.361  -0.495  0.00  0.00    -0.147 NA
ATOM     22  C   UNL     1      -4.563  -1.050  -0.266  0.00  0.00    +0.352 A 
ATOM     23  C   UNL     1      -3.867   1.030  -0.322  0.00  0.00    +0.171 A 
ATOM     24  C   UNL     1      -6.242   0.755   0.014  0.00  0.00    +0.086 C 
ATOM     25  C   UNL     1      -4.037   2.499  -0.267  0.00  0.00    +0.039 C 
ATOM     26  C   UNL     1      -6.420   2.083   0.068  0.00  0.00    +0.019 C 
ATOM     27  C   UNL     1      -5.281   2.970  -0.077  0.00  0.00    +0.005 C 
ENDBRANCH  17  19
ENDBRANCH  16  17
ENDBRANCH  15  16
ENDBRANCH   1  15
TORSDOF 5
