5734
  -OEChem-10051719253D

 22 23  0     0  0  0  0  0  0999 V2000
   -2.6990    0.3331   -0.3064 S   0  0  0  0  0  0  0  0  0  0  0  0
    1.1605   -2.0306   -0.1297 O   0  0  0  0  0  0  0  0  0  0  0  0
   -2.1144    1.4984   -0.9422 O   0  0  0  0  0  0  0  0  0  0  0  0
   -3.0173   -0.8583   -1.0699 O   0  0  0  0  0  0  0  0  0  0  0  0
   -0.1601   -1.9169    0.2874 N   0  0  0  0  0  0  0  0  0  0  0  0
   -4.0768    0.8133    0.5733 N   0  0  0  0  0  0  0  0  0  0  0  0
   -1.6432   -0.1438    1.0348 C   0  0  0  0  0  0  0  0  0  0  0  0
   -0.3334   -0.6198    0.5590 C   0  0  0  0  0  0  0  0  0  0  0  0
    0.8337    0.1358    0.3350 C   0  0  0  0  0  0  0  0  0  0  0  0
    1.7510   -0.8047   -0.1001 C   0  0  0  0  0  0  0  0  0  0  0  0
    1.2312    1.4766    0.4420 C   0  0  0  0  0  0  0  0  0  0  0  0
    3.0671   -0.5145   -0.4473 C   0  0  0  0  0  0  0  0  0  0  0  0
    2.5508    1.8052    0.1002 C   0  0  0  0  0  0  0  0  0  0  0  0
    3.4499    0.8263   -0.3359 C   0  0  0  0  0  0  0  0  0  0  0  0
   -1.5256    0.7281    1.6869 H   0  0  0  0  0  0  0  0  0  0  0  0
   -2.1619   -0.9266    1.5991 H   0  0  0  0  0  0  0  0  0  0  0  0
    0.5443    2.2466    0.7787 H   0  0  0  0  0  0  0  0  0  0  0  0
    3.7562   -1.2793   -0.7842 H   0  0  0  0  0  0  0  0  0  0  0  0
    2.8797    2.8386    0.1757 H   0  0  0  0  0  0  0  0  0  0  0  0
    4.4666    1.1127   -0.5936 H   0  0  0  0  0  0  0  0  0  0  0  0
   -4.6358    0.0802    1.0269 H   0  0  0  0  0  0  0  0  0  0  0  0
   -4.0207    1.6851    1.1138 H   0  0  0  0  0  0  0  0  0  0  0  0
  1  3  2  0  0  0  0
  1  4  2  0  0  0  0
  1  6  1  0  0  0  0
  1  7  1  0  0  0  0
  2  5  1  0  0  0  0
  2 10  1  0  0  0  0
  5  8  2  0  0  0  0
  6 21  1  0  0  0  0
  6 22  1  0  0  0  0
  7  8  1  0  0  0  0
  7 15  1  0  0  0  0
  7 16  1  0  0  0  0
  8  9  1  0  0  0  0
  9 10  1  0  0  0  0
  9 11  2  0  0  0  0
 10 12  2  0  0  0  0
 11 13  1  0  0  0  0
 11 17  1  0  0  0  0
 12 14  1  0  0  0  0
 12 18  1  0  0  0  0
 13 14  2  0  0  0  0
 13 19  1  0  0  0  0
 14 20  1  0  0  0  0
M  END
> <DATABASE_ID>
DB00909

> <DATABASE_NAME>
drugbank

> <ORIGINAL_SOURCE>
PUBCHEM

> <ORIGINAL_SOURCE_URL>
https://pubchem.ncbi.nlm.nih.gov/rest/pug/compound/inchikey/UBQNRHZMVUUOMG-UHFFFAOYSA-N/SDF?record_type=3d

> <SMILES>
NS(=O)(=O)CC1=NOC2=CC=CC=C12

> <INCHI_IDENTIFIER>
InChI=1S/C8H8N2O3S/c9-14(11,12)5-7-6-3-1-2-4-8(6)13-10-7/h1-4H,5H2,(H2,9,11,12)

> <INCHI_KEY>
UBQNRHZMVUUOMG-UHFFFAOYSA-N

> <FORMULA>
C8H8N2O3S

> <MOLECULAR_WEIGHT>
212.226

> <EXACT_MASS>
212.025562822

> <JCHEM_ACCEPTOR_COUNT>
3

> <JCHEM_AVERAGE_POLARIZABILITY>
19.479884394972984

> <JCHEM_BIOAVAILABILITY>
1

> <JCHEM_DONOR_COUNT>
1

> <JCHEM_FORMAL_CHARGE>
0

> <JCHEM_GHOSE_FILTER>
1

> <JCHEM_IUPAC>
1,2-benzoxazol-3-ylmethanesulfonamide

> <ALOGPS_LOGP>
0.67

> <JCHEM_LOGP>
0.1106864246666666

> <ALOGPS_LOGS>
-2.01

> <JCHEM_MDDR_LIKE_RULE>
0

> <JCHEM_NUMBER_OF_RINGS>
2

> <JCHEM_PHYSIOLOGICAL_CHARGE>
0

> <JCHEM_PKA_STRONGEST_ACIDIC>
9.835940037486687

> <JCHEM_PKA_STRONGEST_BASIC>
-1.761405576584465

> <JCHEM_POLAR_SURFACE_AREA>
86.19

> <JCHEM_REFRACTIVITY>
50.2984

> <JCHEM_ROTATABLE_BOND_COUNT>
2

> <JCHEM_RULE_OF_FIVE>
1

> <ALOGPS_SOLUBILITY>
2.09e+00 g/l

> <JCHEM_TRADITIONAL_IUPAC>
zonisamide

> <JCHEM_VEBER_RULE>
0

> <DRUGBANK_ID>
DB00909

> <SECONDARY_ACCESSION_NUMBERS>
APRD00004

> <DRUG_GROUPS>
approved; investigational

> <GENERIC_NAME>
Zonisamide

> <SYNONYMS>
1,2-Benzisoxazole-3-methanesulfonamide; 3-(Sulfamoylmethyl)-1,2-benzisoxazole; Benzo[d]isoxazol-3-yl-methanesulfonamide; Zonisamida; Zonisamide; Zonisamidum

> <PRODUCTS>
Zonegran; Zonisamide; Zonisamide Mylan

> <INTERNATIONAL_BRANDS>
Exceglan; Excegram

$$$$
