REMARK  Name = 6140
REMARK  5 active torsions:
REMARK  status: ('A' for Active; 'I' for Inactive)
REMARK    1  A    between atoms: CA_1  and  N_2
REMARK    2  A    between atoms: CA_1  and  C_7
REMARK    3  A    between atoms: CA_1  and  CB_10
REMARK    4  A    between atoms: C_7  and  O_8
REMARK    5  A    between atoms: CB_10  and  CG_11
REMARK                            x       y       z     vdW  Elec       q    Type
REMARK                         _______ _______ _______ _____ _____    ______ ____
ROOT
ATOM      1  CA  PHE A   1      -1.665   0.724  -0.296  0.00  0.00    +0.040 C 
ENDROOT
BRANCH   1   2
ATOM      2  N   PHE A   1      -2.795   1.633  -0.112  0.00  0.00    +0.389 N 
ATOM      3  H1  PHE A   1      -2.465   2.597  -0.152  0.00  0.00    -0.088 HD
ATOM      4  H2  PHE A   1      -3.227   1.458   0.796  0.00  0.00    -0.088 HD
ATOM      5  H3  PHE A   1      -3.480   1.477  -0.851  0.00  0.00    -0.088 HD
ENDBRANCH   1   2
BRANCH   1   7
ATOM      6  OXT PHE A   1      -3.186  -1.024   0.455  0.00  0.00    -0.253 OA
ATOM      7  C   PHE A   1      -2.226  -0.686  -0.225  0.00  0.00    +0.293 C 
BRANCH   7   8
ATOM      8  O   PHE A   1      -1.561  -1.548  -1.037  0.00  0.00    -0.482 OA
ATOM      9  H   PHE A   1      -0.830  -1.248  -1.541  0.00  0.00    +0.295 HD
ENDBRANCH   7   8
ENDBRANCH   1   7
BRANCH   1  10
ATOM     10  CB  PHE A   1      -0.609   0.981   0.790  0.00  0.00    +0.015 C 
BRANCH  10  11
ATOM     11  CG  PHE A   1       0.759   0.461   0.414  0.00  0.00    -0.024 C 
ATOM     12  CD1 PHE A   1       1.108  -0.836   0.754  0.00  0.00    -0.004 C 
ATOM     13  CD2 PHE A   1       1.637   1.291  -0.263  0.00  0.00    -0.004 C 
ATOM     14  CE1 PHE A   1       2.371  -1.316   0.406  0.00  0.00    -0.000 C 
ATOM     15  CE2 PHE A   1       2.900   0.811  -0.611  0.00  0.00    -0.000 C 
ATOM     16  CZ  PHE A   1       3.267  -0.492  -0.276  0.00  0.00    -0.000 C 
ENDBRANCH  10  11
ENDBRANCH   1  10
TORSDOF 5
