3292
  -OEChem-10051719223D

 27 28  0     1  0  0  0  0  0999 V2000
    0.7868    1.2933    1.7334 O   0  0  0  0  0  0  0  0  0  0  0  0
    2.6856   -1.6983   -1.2102 O   0  0  0  0  0  0  0  0  0  0  0  0
    2.0686    0.0195    0.2531 N   0  0  0  0  0  0  0  0  0  0  0  0
    0.6328   -1.6500   -0.1014 N   0  0  0  0  0  0  0  0  0  0  0  0
   -0.0582   -0.8016    0.8395 C   0  0  1  0  0  0  0  0  0  0  0  0
    0.9611    0.3138    1.0198 C   0  0  0  0  0  0  0  0  0  0  0  0
   -1.3476   -0.3041    0.2962 C   0  0  0  0  0  0  0  0  0  0  0  0
    1.8973   -1.1635   -0.4412 C   0  0  0  0  0  0  0  0  0  0  0  0
    3.2587    0.8416    0.1625 C   0  0  0  0  0  0  0  0  0  0  0  0
   -2.5448   -0.9481    0.6233 C   0  0  0  0  0  0  0  0  0  0  0  0
   -1.3731    0.8114   -0.5464 C   0  0  0  0  0  0  0  0  0  0  0  0
    3.1487    1.8555   -0.9575 C   0  0  0  0  0  0  0  0  0  0  0  0
   -3.7559   -0.4809    0.1127 C   0  0  0  0  0  0  0  0  0  0  0  0
   -2.5842    1.2787   -1.0567 C   0  0  0  0  0  0  0  0  0  0  0  0
   -3.7756    0.6327   -0.7272 C   0  0  0  0  0  0  0  0  0  0  0  0
   -0.1678   -1.3407    1.7862 H   0  0  0  0  0  0  0  0  0  0  0  0
    0.2563   -2.5217   -0.4612 H   0  0  0  0  0  0  0  0  0  0  0  0
    3.3985    1.3625    1.1157 H   0  0  0  0  0  0  0  0  0  0  0  0
    4.1240    0.1935   -0.0122 H   0  0  0  0  0  0  0  0  0  0  0  0
   -2.5436   -1.8177    1.2755 H   0  0  0  0  0  0  0  0  0  0  0  0
   -0.4650    1.3292   -0.8420 H   0  0  0  0  0  0  0  0  0  0  0  0
    3.0137    1.3609   -1.9251 H   0  0  0  0  0  0  0  0  0  0  0  0
    2.2931    2.5214   -0.8030 H   0  0  0  0  0  0  0  0  0  0  0  0
    4.0541    2.4679   -1.0095 H   0  0  0  0  0  0  0  0  0  0  0  0
   -4.6836   -0.9844    0.3686 H   0  0  0  0  0  0  0  0  0  0  0  0
   -2.5994    2.1429   -1.7145 H   0  0  0  0  0  0  0  0  0  0  0  0
   -4.7185    0.9956   -1.1257 H   0  0  0  0  0  0  0  0  0  0  0  0
  1  6  2  0  0  0  0
  2  8  2  0  0  0  0
  3  6  1  0  0  0  0
  3  8  1  0  0  0  0
  3  9  1  0  0  0  0
  4  5  1  0  0  0  0
  4  8  1  0  0  0  0
  4 17  1  0  0  0  0
  5  6  1  0  0  0  0
  5  7  1  0  0  0  0
  5 16  1  0  0  0  0
  7 10  2  0  0  0  0
  7 11  1  0  0  0  0
  9 12  1  0  0  0  0
  9 18  1  0  0  0  0
  9 19  1  0  0  0  0
 10 13  1  0  0  0  0
 10 20  1  0  0  0  0
 11 14  2  0  0  0  0
 11 21  1  0  0  0  0
 12 22  1  0  0  0  0
 12 23  1  0  0  0  0
 12 24  1  0  0  0  0
 13 15  2  0  0  0  0
 13 25  1  0  0  0  0
 14 15  1  0  0  0  0
 14 26  1  0  0  0  0
 15 27  1  0  0  0  0
M  END
> <DATABASE_ID>
DB00754

> <DATABASE_NAME>
drugbank

> <ORIGINAL_SOURCE>
PUBCHEM

> <ORIGINAL_SOURCE_URL>
https://pubchem.ncbi.nlm.nih.gov/rest/pug/compound/inchikey/SZQIFWWUIBRPBZ-UHFFFAOYSA-N/SDF?record_type=3d

> <SMILES>
CCN1C(=O)NC(C1=O)C1=CC=CC=C1

> <INCHI_IDENTIFIER>
InChI=1S/C11H12N2O2/c1-2-13-10(14)9(12-11(13)15)8-6-4-3-5-7-8/h3-7,9H,2H2,1H3,(H,12,15)

> <INCHI_KEY>
SZQIFWWUIBRPBZ-UHFFFAOYSA-N

> <FORMULA>
C11H12N2O2

> <MOLECULAR_WEIGHT>
204.2252

> <EXACT_MASS>
204.089877638

> <JCHEM_ACCEPTOR_COUNT>
2

> <JCHEM_AVERAGE_POLARIZABILITY>
20.68269261748099

> <JCHEM_BIOAVAILABILITY>
1

> <JCHEM_DONOR_COUNT>
1

> <JCHEM_FORMAL_CHARGE>
0

> <JCHEM_GHOSE_FILTER>
1

> <JCHEM_IUPAC>
3-ethyl-5-phenylimidazolidine-2,4-dione

> <ALOGPS_LOGP>
1.11

> <JCHEM_LOGP>
1.0666929576666668

> <ALOGPS_LOGS>
-1.93

> <JCHEM_MDDR_LIKE_RULE>
0

> <JCHEM_NUMBER_OF_RINGS>
2

> <JCHEM_PHYSIOLOGICAL_CHARGE>
0

> <JCHEM_PKA>
16.22901817510841

> <JCHEM_PKA_STRONGEST_ACIDIC>
11.288525520110513

> <JCHEM_PKA_STRONGEST_BASIC>
-8.373058584171257

> <JCHEM_POLAR_SURFACE_AREA>
49.410000000000004

> <JCHEM_REFRACTIVITY>
55.0493

> <JCHEM_ROTATABLE_BOND_COUNT>
2

> <JCHEM_RULE_OF_FIVE>
1

> <ALOGPS_SOLUBILITY>
2.38e+00 g/l

> <JCHEM_TRADITIONAL_IUPAC>
ethotoin

> <JCHEM_VEBER_RULE>
0

> <DRUGBANK_ID>
DB00754

> <SECONDARY_ACCESSION_NUMBERS>
APRD00962

> <DRUG_GROUPS>
approved

> <GENERIC_NAME>
Ethotoin

> <SYNONYMS>
(±)-3-ethyl-5-phenylhydantoin; 1-ethyl-2,5-dioxo-4-phenylimidazolidine; 3-ethyl-5-phenyl-2,4-imidazolidinedione; 3-Ethyl-5-phenyl-imidazolidine-2,4-dione; 3-ethyl-5-phenylhydantoin; 3-ethyl-5-phenylimidazolidin-2,4-dione; Ethotoin; Ethotoïne; Ethotoinum; Etotoina

> <PRODUCTS>
Peganone

> <INTERNATIONAL_BRANDS>
Accenon; Pegoanone

$$$$
