REMARK  Name = 4760
REMARK  1 active torsions:
REMARK  status: ('A' for Active; 'I' for Inactive)
REMARK    1  A    between atoms: C_3  and  C_12
REMARK                            x       y       z     vdW  Elec       q    Type
REMARK                         _______ _______ _______ _____ _____    ______ ____
ROOT
ATOM      1  O   UNL     1       0.217  -2.150   1.341  0.00  0.00    -0.291 OA
ATOM      2  O   UNL     1       0.149   2.504   0.418  0.00  0.00    -0.291 OA
ATOM      3  C   UNL     1      -0.426   0.205   1.068  0.00  0.00    +0.146 C 
ATOM      4  C   UNL     1       0.463  -1.024   0.952  0.00  0.00    +0.184 C 
ATOM      5  C   UNL     1       0.428   1.322   0.487  0.00  0.00    +0.184 C 
ATOM      6  C   UNL     1       1.703  -0.629   0.280  0.00  0.00    +0.038 C 
ATOM      7  C   UNL     1       1.683   0.736   0.009  0.00  0.00    +0.038 C 
ATOM      8  C   UNL     1       2.782  -1.421  -0.061  0.00  0.00    +0.003 C 
ATOM      9  C   UNL     1       2.741   1.368  -0.614  0.00  0.00    +0.003 C 
ATOM     10  C   UNL     1       3.862  -0.799  -0.694  0.00  0.00    +0.000 C 
ATOM     11  C   UNL     1       3.841   0.583  -0.968  0.00  0.00    +0.000 C 
ENDROOT
BRANCH   3  12
ATOM     12  C   UNL     1      -1.704   0.040   0.327  0.00  0.00    -0.008 C 
ATOM     13  C   UNL     1      -2.861   0.688   0.769  0.00  0.00    -0.003 C 
ATOM     14  C   UNL     1      -1.756  -0.765  -0.814  0.00  0.00    -0.003 C 
ATOM     15  C   UNL     1      -4.060   0.533   0.074  0.00  0.00    -0.000 C 
ATOM     16  C   UNL     1      -2.955  -0.920  -1.509  0.00  0.00    -0.000 C 
ATOM     17  C   UNL     1      -4.107  -0.271  -1.065  0.00  0.00    -0.000 C 
ENDBRANCH   3  12
TORSDOF 1
