REMARK  Name = 118985556
REMARK  2 active torsions:
REMARK  status: ('A' for Active; 'I' for Inactive)
REMARK    1  A    between atoms: N_1  and  C_5
REMARK    2  A    between atoms: C_5  and  C_7
REMARK                            x       y       z     vdW  Elec       q    Type
REMARK                         _______ _______ _______ _____ _____    ______ ____
ROOT
ATOM      1  N   UNL     1      -1.954  -0.103   0.019  0.00  0.00    +0.381 N 
ATOM      2  H   UNL     1      -2.664   0.629   0.017  0.00  0.00    -0.089 HD
ATOM      3  H   UNL     1      -2.047  -0.665   0.865  0.00  0.00    -0.089 HD
ATOM      4  H   UNL     1      -2.078  -0.699  -0.800  0.00  0.00    -0.089 HD
ENDROOT
BRANCH   1   5
ATOM      5  C   UNL     1      -0.604   0.516  -0.019  0.00  0.00    -0.073 C 
BRANCH   5   7
ATOM      6  S   UNL     1       2.111   0.177   0.015  0.00  0.00    -0.084 S 
ATOM      7  C   UNL     1       0.447  -0.590  -0.015  0.00  0.00    +0.045 C 
ENDBRANCH   5   7
ENDBRANCH   1   5
TORSDOF 2
