REMARK  Name = 60753
REMARK  15 active torsions:
REMARK  status: ('A' for Active; 'I' for Inactive)
REMARK    1  A    between atoms: C_1  and  C_2
REMARK    2  A    between atoms: C_1  and  O_14
REMARK    3  A    between atoms: C_1  and  C_16
REMARK    4  A    between atoms: C_7  and  N_8
REMARK    5  A    between atoms: N_8  and  S_10
REMARK    6  A    between atoms: C_16  and  C_17
REMARK    7  A    between atoms: C_17  and  C_18
REMARK    8  A    between atoms: C_18  and  N_19
REMARK    9  A    between atoms: N_19  and  C_21
REMARK   10  A    between atoms: N_19  and  C_23
REMARK   11  A    between atoms: C_23  and  C_24
REMARK   12  A    between atoms: C_24  and  C_25
REMARK   13  A    between atoms: C_25  and  C_26
REMARK   14  A    between atoms: C_26  and  C_27
REMARK   15  A    between atoms: C_27  and  C_28
REMARK                            x       y       z     vdW  Elec       q    Type
REMARK                         _______ _______ _______ _____ _____    ______ ____
ROOT
ATOM      1  C   UNL     1      -0.611  -0.577   1.855  0.00  0.00    +0.133 C 
ENDROOT
BRANCH   1   2
ATOM      2  C   UNL     1      -2.028  -0.731   1.354  0.00  0.00    +0.004 C 
ATOM      3  C   UNL     1      -2.955   0.292   1.556  0.00  0.00    -0.001 C 
ATOM      4  C   UNL     1      -2.411  -1.897   0.691  0.00  0.00    -0.001 C 
ATOM      5  C   UNL     1      -4.263   0.149   1.095  0.00  0.00    +0.016 C 
ATOM      6  C   UNL     1      -3.719  -2.040   0.230  0.00  0.00    +0.016 C 
ATOM      7  C   UNL     1      -4.646  -1.017   0.432  0.00  0.00    +0.064 C 
BRANCH   7   8
ATOM      8  N   UNL     1      -5.985  -1.163  -0.040  0.00  0.00    -0.219 N 
ATOM      9  H   UNL     1      -6.606  -1.796   0.388  0.00  0.00    +0.173 HD
BRANCH   8  10
ATOM     10  S   UNL     1      -6.486  -0.203  -1.380  0.00  0.00    +0.056 S 
ATOM     11  O   UNL     1      -7.926  -0.320  -1.515  0.00  0.00    -0.154 OA
ATOM     12  O   UNL     1      -5.852   1.100  -1.348  0.00  0.00    -0.154 OA
ATOM     13  C   UNL     1      -5.764  -1.128  -2.717  0.00  0.00    +0.200 C 
ENDBRANCH   8  10
ENDBRANCH   7   8
ENDBRANCH   1   2
BRANCH   1  14
ATOM     14  O   UNL     1      -0.654  -0.498   3.281  0.00  0.00    -0.380 OA
ATOM     15  H   UNL     1       0.247  -0.398   3.626  0.00  0.00    +0.211 HD
ENDBRANCH   1  14
BRANCH   1  16
ATOM     16  C   UNL     1       0.111   0.663   1.306  0.00  0.00    +0.032 C 
BRANCH  16  17
ATOM     17  C   UNL     1       0.193   0.685  -0.223  0.00  0.00    -0.020 C 
BRANCH  17  18
ATOM     18  C   UNL     1       0.896   1.949  -0.719  0.00  0.00    -0.077 C 
BRANCH  18  19
ATOM     19  N   UNL     1       2.267   2.022  -0.211  0.00  0.00    +0.387 N 
ATOM     20  H   UNL     1       2.268   1.724   0.765  0.00  0.00    -0.080 HD
BRANCH  19  21
ATOM     21  C   UNL     1       2.760   3.399  -0.277  0.00  0.00    -0.077 C 
ATOM     22  C   UNL     1       1.858   4.343   0.501  0.00  0.00    -0.025 C 
ENDBRANCH  19  21
BRANCH  19  23
ATOM     23  C   UNL     1       3.141   1.128  -0.961  0.00  0.00    -0.077 C 
BRANCH  23  24
ATOM     24  C   UNL     1       4.376   0.774  -0.133  0.00  0.00    -0.023 C 
BRANCH  24  25
ATOM     25  C   UNL     1       5.301  -0.172  -0.901  0.00  0.00    -0.002 C 
BRANCH  25  26
ATOM     26  C   UNL     1       6.576  -0.535  -0.133  0.00  0.00    -0.000 C 
BRANCH  26  27
ATOM     27  C   UNL     1       7.465  -1.539  -0.870  0.00  0.00    -0.000 C 
BRANCH  27  28
ATOM     28  C   UNL     1       8.727  -1.855  -0.065  0.00  0.00    -0.000 C 
ATOM     29  C   UNL     1       9.631  -2.828  -0.806  0.00  0.00    +0.000 C 
ENDBRANCH  27  28
ENDBRANCH  26  27
ENDBRANCH  25  26
ENDBRANCH  24  25
ENDBRANCH  23  24
ENDBRANCH  19  23
ENDBRANCH  18  19
ENDBRANCH  17  18
ENDBRANCH  16  17
ENDBRANCH   1  16
TORSDOF 15
