20299
  -OEChem-10051719163D

 59 60  0     1  0  0  0  0  0999 V2000
    0.9526    0.3748   -1.8033 O   0  0  0  0  0  0  0  0  0  0  0  0
   -2.9657    0.6603    0.0157 N   0  3  0  0  0  0  0  0  0  0  0  0
    2.0015    0.8082    0.2889 C   0  0  0  0  0  0  0  0  0  0  0  0
    0.8347    0.1006   -0.3977 C   0  0  1  0  0  0  0  0  0  0  0  0
   -0.5154    0.7031    0.0774 C   0  0  0  0  0  0  0  0  0  0  0  0
   -1.7411    0.0407   -0.5502 C   0  0  0  0  0  0  0  0  0  0  0  0
    1.9136    2.3260    0.0798 C   0  0  0  0  0  0  0  0  0  0  0  0
    3.3420    0.2630   -0.2216 C   0  0  0  0  0  0  0  0  0  0  0  0
    3.0989    3.0518    0.7122 C   0  0  0  0  0  0  0  0  0  0  0  0
    4.5249    0.9922    0.4116 C   0  0  0  0  0  0  0  0  0  0  0  0
    4.4297    2.5012    0.2091 C   0  0  0  0  0  0  0  0  0  0  0  0
   -3.0176    0.4727    1.5381 C   0  0  0  0  0  0  0  0  0  0  0  0
   -3.0011    2.1657   -0.2813 C   0  0  0  0  0  0  0  0  0  0  0  0
   -4.2261    0.0251   -0.5869 C   0  0  0  0  0  0  0  0  0  0  0  0
    0.9111   -1.4087   -0.1470 C   0  0  0  0  0  0  0  0  0  0  0  0
   -4.2956    1.0819    2.0719 C   0  0  0  0  0  0  0  0  0  0  0  0
   -2.9509    2.3796   -1.7783 C   0  0  0  0  0  0  0  0  0  0  0  0
   -4.2558   -1.4477   -0.2414 C   0  0  0  0  0  0  0  0  0  0  0  0
    0.8683   -1.8621    1.1506 C   0  0  0  0  0  0  0  0  0  0  0  0
    1.0189   -2.2500   -1.2293 C   0  0  0  0  0  0  0  0  0  0  0  0
    0.9376   -3.2364    1.3790 C   0  0  0  0  0  0  0  0  0  0  0  0
    1.0881   -3.6244   -1.0008 C   0  0  0  0  0  0  0  0  0  0  0  0
    1.0474   -4.1175    0.3035 C   0  0  0  0  0  0  0  0  0  0  0  0
    1.9647    0.6365    1.3735 H   0  0  0  0  0  0  0  0  0  0  0  0
   -0.5177    0.6509    1.1671 H   0  0  0  0  0  0  0  0  0  0  0  0
   -0.5283    1.7515   -0.2179 H   0  0  0  0  0  0  0  0  0  0  0  0
   -1.7337   -1.0137   -0.2661 H   0  0  0  0  0  0  0  0  0  0  0  0
   -1.7510    0.0851   -1.6428 H   0  0  0  0  0  0  0  0  0  0  0  0
    1.0208    2.7488    0.5497 H   0  0  0  0  0  0  0  0  0  0  0  0
    1.8839    2.5843   -0.9848 H   0  0  0  0  0  0  0  0  0  0  0  0
    3.4146    0.3685   -1.3113 H   0  0  0  0  0  0  0  0  0  0  0  0
    3.4547   -0.8031    0.0028 H   0  0  0  0  0  0  0  0  0  0  0  0
    3.0370    4.1235    0.4912 H   0  0  0  0  0  0  0  0  0  0  0  0
    3.0513    2.9483    1.8035 H   0  0  0  0  0  0  0  0  0  0  0  0
    4.5590    0.7691    1.4851 H   0  0  0  0  0  0  0  0  0  0  0  0
    5.4611    0.6215   -0.0209 H   0  0  0  0  0  0  0  0  0  0  0  0
    4.5409    2.7339   -0.8571 H   0  0  0  0  0  0  0  0  0  0  0  0
    5.2555    2.9965    0.7321 H   0  0  0  0  0  0  0  0  0  0  0  0
   -2.8888   -0.5817    1.7958 H   0  0  0  0  0  0  0  0  0  0  0  0
   -2.2009    1.0379    1.9935 H   0  0  0  0  0  0  0  0  0  0  0  0
   -3.9613    2.5680    0.0524 H   0  0  0  0  0  0  0  0  0  0  0  0
   -2.2128    2.6877    0.2671 H   0  0  0  0  0  0  0  0  0  0  0  0
   -5.1237    0.5694   -0.2837 H   0  0  0  0  0  0  0  0  0  0  0  0
   -4.1509    0.0907   -1.6764 H   0  0  0  0  0  0  0  0  0  0  0  0
    0.5816    1.2523   -1.9927 H   0  0  0  0  0  0  0  0  0  0  0  0
   -5.2106    0.5926    1.7325 H   0  0  0  0  0  0  0  0  0  0  0  0
   -4.3798    2.1620    1.9387 H   0  0  0  0  0  0  0  0  0  0  0  0
   -4.2954    0.9397    3.1610 H   0  0  0  0  0  0  0  0  0  0  0  0
   -2.0221    2.0418   -2.2435 H   0  0  0  0  0  0  0  0  0  0  0  0
   -3.8026    1.9665   -2.3222 H   0  0  0  0  0  0  0  0  0  0  0  0
   -2.9895    3.4605   -1.9655 H   0  0  0  0  0  0  0  0  0  0  0  0
   -5.1539   -1.8818   -0.6996 H   0  0  0  0  0  0  0  0  0  0  0  0
   -3.4230   -2.0224   -0.6524 H   0  0  0  0  0  0  0  0  0  0  0  0
   -4.3517   -1.6563    0.8261 H   0  0  0  0  0  0  0  0  0  0  0  0
    0.7733   -1.1950    2.0007 H   0  0  0  0  0  0  0  0  0  0  0  0
    1.0508   -1.9041   -2.2565 H   0  0  0  0  0  0  0  0  0  0  0  0
    0.9034   -3.6206    2.3943 H   0  0  0  0  0  0  0  0  0  0  0  0
    1.1727   -4.3111   -1.8381 H   0  0  0  0  0  0  0  0  0  0  0  0
    1.1005   -5.1875    0.4813 H   0  0  0  0  0  0  0  0  0  0  0  0
  1  4  1  0  0  0  0
  1 45  1  0  0  0  0
  2  6  1  0  0  0  0
  2 12  1  0  0  0  0
  2 13  1  0  0  0  0
  2 14  1  0  0  0  0
  3  4  1  0  0  0  0
  3  7  1  0  0  0  0
  3  8  1  0  0  0  0
  3 24  1  0  0  0  0
  4  5  1  0  0  0  0
  4 15  1  0  0  0  0
  5  6  1  0  0  0  0
  5 25  1  0  0  0  0
  5 26  1  0  0  0  0
  6 27  1  0  0  0  0
  6 28  1  0  0  0  0
  7  9  1  0  0  0  0
  7 29  1  0  0  0  0
  7 30  1  0  0  0  0
  8 10  1  0  0  0  0
  8 31  1  0  0  0  0
  8 32  1  0  0  0  0
  9 11  1  0  0  0  0
  9 33  1  0  0  0  0
  9 34  1  0  0  0  0
 10 11  1  0  0  0  0
 10 35  1  0  0  0  0
 10 36  1  0  0  0  0
 11 37  1  0  0  0  0
 11 38  1  0  0  0  0
 12 16  1  0  0  0  0
 12 39  1  0  0  0  0
 12 40  1  0  0  0  0
 13 17  1  0  0  0  0
 13 41  1  0  0  0  0
 13 42  1  0  0  0  0
 14 18  1  0  0  0  0
 14 43  1  0  0  0  0
 14 44  1  0  0  0  0
 15 19  2  0  0  0  0
 15 20  1  0  0  0  0
 16 46  1  0  0  0  0
 16 47  1  0  0  0  0
 16 48  1  0  0  0  0
 17 49  1  0  0  0  0
 17 50  1  0  0  0  0
 17 51  1  0  0  0  0
 18 52  1  0  0  0  0
 18 53  1  0  0  0  0
 18 54  1  0  0  0  0
 19 21  1  0  0  0  0
 19 55  1  0  0  0  0
 20 22  2  0  0  0  0
 20 56  1  0  0  0  0
 21 23  2  0  0  0  0
 21 57  1  0  0  0  0
 22 23  1  0  0  0  0
 22 58  1  0  0  0  0
 23 59  1  0  0  0  0
M  CHG  1   2   1
M  END
> <DATABASE_ID>
DB00505

> <DATABASE_NAME>
drugbank

> <ORIGINAL_SOURCE>
PUBCHEM

> <ORIGINAL_SOURCE_URL>
https://pubchem.ncbi.nlm.nih.gov/rest/pug/compound/inchikey/NPRHVSBSZMAEIN-UHFFFAOYSA-N/SDF?record_type=3d

> <SMILES>
CC[N+](CC)(CC)CCC(O)(C1CCCCC1)C1=CC=CC=C1

> <INCHI_IDENTIFIER>
InChI=1S/C21H36NO/c1-4-22(5-2,6-3)18-17-21(23,19-13-9-7-10-14-19)20-15-11-8-12-16-20/h7,9-10,13-14,20,23H,4-6,8,11-12,15-18H2,1-3H3/q+1

> <INCHI_KEY>
NPRHVSBSZMAEIN-UHFFFAOYSA-N

> <FORMULA>
C21H36NO

> <MOLECULAR_WEIGHT>
318.5166

> <EXACT_MASS>
318.279689779

> <JCHEM_ACCEPTOR_COUNT>
1

> <JCHEM_AVERAGE_POLARIZABILITY>
39.1692959678369

> <JCHEM_BIOAVAILABILITY>
1

> <JCHEM_DONOR_COUNT>
1

> <JCHEM_FORMAL_CHARGE>
1

> <JCHEM_GHOSE_FILTER>
1

> <JCHEM_IUPAC>
(3-cyclohexyl-3-hydroxy-3-phenylpropyl)triethylazanium

> <ALOGPS_LOGP>
2.31

> <JCHEM_LOGP>
0.2904066095282539

> <ALOGPS_LOGS>
-7.32

> <JCHEM_MDDR_LIKE_RULE>
0

> <JCHEM_NUMBER_OF_RINGS>
2

> <JCHEM_PHYSIOLOGICAL_CHARGE>
1

> <JCHEM_PKA_STRONGEST_ACIDIC>
13.689009313358827

> <JCHEM_PKA_STRONGEST_BASIC>
-3.372227326336848

> <JCHEM_POLAR_SURFACE_AREA>
20.23

> <JCHEM_REFRACTIVITY>
111.22260000000004

> <JCHEM_ROTATABLE_BOND_COUNT>
8

> <JCHEM_RULE_OF_FIVE>
1

> <ALOGPS_SOLUBILITY>
1.68e-05 g/l

> <JCHEM_TRADITIONAL_IUPAC>
tridihexethyl

> <JCHEM_VEBER_RULE>
1

> <DRUGBANK_ID>
DB00505

> <SECONDARY_ACCESSION_NUMBERS>
APRD00286

> <DRUG_GROUPS>
withdrawn

> <GENERIC_NAME>
Tridihexethyl

> <INTERNATIONAL_BRANDS>
Pathilon; Propethonum

> <SALTS>
Tridihexethyl chloride

$$$$
