REMARK  Name = 60854
REMARK  3 active torsions:
REMARK  status: ('A' for Active; 'I' for Inactive)
REMARK    1  A    between atoms: N_2  and  C_17
REMARK    2  A    between atoms: C_17  and  C_18
REMARK    3  A    between atoms: C_18  and  C_22
REMARK                            x       y       z     vdW  Elec       q    Type
REMARK                         _______ _______ _______ _____ _____    ______ ____
ROOT
ATOM      1  S   UNL     1       6.915  -1.279  -0.266  0.00  0.00    +0.014 S 
ATOM      2  N   UNL     1       0.321  -1.292  -0.097  0.00  0.00    +0.389 N 
ATOM      3  N   UNL     1       3.142  -0.857  -0.199  0.00  0.00    -0.297 N 
ATOM      4  N   UNL     1       5.347  -1.808  -0.329  0.00  0.00    -0.194 NA
ATOM      5  C   UNL     1       0.920  -0.138   0.585  0.00  0.00    -0.055 C 
ATOM      6  C   UNL     1       1.075  -1.596  -1.319  0.00  0.00    -0.055 C 
ATOM      7  C   UNL     1       2.374  -0.422   0.972  0.00  0.00    +0.069 C 
ATOM      8  C   UNL     1       2.533  -1.930  -0.995  0.00  0.00    +0.069 C 
ATOM      9  C   UNL     1       4.538  -0.756  -0.190  0.00  0.00    +0.140 A 
ATOM     10  C   UNL     1       5.159   0.530  -0.025  0.00  0.00    +0.040 A 
ATOM     11  C   UNL     1       6.548   0.388  -0.048  0.00  0.00    +0.050 A 
ATOM     12  C   UNL     1       4.618   1.823   0.145  0.00  0.00    +0.003 C 
ATOM     13  C   UNL     1       7.415   1.483   0.091  0.00  0.00    +0.008 C 
ATOM     14  C   UNL     1       5.473   2.921   0.285  0.00  0.00    +0.000 C 
ATOM     15  C   UNL     1       6.853   2.751   0.258  0.00  0.00    +0.001 C 
ATOM     16  H   UNL     1       0.361  -2.099   0.525  0.00  0.00    -0.080 HD
ENDROOT
BRANCH   2  17
ATOM     17  C   UNL     1      -1.083  -1.028  -0.413  0.00  0.00    -0.072 C 
BRANCH  17  18
ATOM     18  C   UNL     1      -1.897  -0.802   0.861  0.00  0.00    +0.004 C 
BRANCH  18  22
ATOM     19 CL   UNL     1      -3.760  -3.247   0.730  0.00  0.00    -0.083 Cl
ATOM     20  O   UNL     1      -8.180   2.552  -0.699  0.00  0.00    -0.274 OA
ATOM     21  N   UNL     1      -7.250   0.428  -0.310  0.00  0.00    -0.284 N 
ATOM     22  C   UNL     1      -3.352  -0.551   0.551  0.00  0.00    -0.014 C 
ATOM     23  C   UNL     1      -5.080   0.999   0.062  0.00  0.00    +0.000 C 
ATOM     24  C   UNL     1      -3.748   0.769   0.346  0.00  0.00    -0.006 C 
ATOM     25  C   UNL     1      -5.982  -0.059  -0.013  0.00  0.00    +0.048 C 
ATOM     26  C   UNL     1      -4.262  -1.614   0.474  0.00  0.00    +0.055 C 
ATOM     27  C   UNL     1      -5.795   2.285  -0.203  0.00  0.00    +0.113 C 
ATOM     28  C   UNL     1      -5.607  -1.372   0.187  0.00  0.00    +0.025 C 
ATOM     29  C   UNL     1      -7.236   1.821  -0.442  0.00  0.00    +0.231 C 
ATOM     30  H   UNL     1      -8.052  -0.133  -0.414  0.00  0.00    +0.155 HD
ENDBRANCH  18  22
ENDBRANCH  17  18
ENDBRANCH   2  17
TORSDOF 3
