REMARK  Name = 5344
REMARK  4 active torsions:
REMARK  status: ('A' for Active; 'I' for Inactive)
REMARK    1  A    between atoms: S_1  and  C_4
REMARK    2  A    between atoms: S_1  and  N_13
REMARK    3  A    between atoms: C_9  and  N_10
REMARK    4  A    between atoms: N_13  and  C_17
REMARK                            x       y       z     vdW  Elec       q    Type
REMARK                         _______ _______ _______ _____ _____    ______ ____
ROOT
ATOM      1  S   UNL     1       0.322   1.132  -0.360  0.00  0.00    +0.076 S 
ATOM      2  O   UNL     1       0.293   1.722  -1.694  0.00  0.00    -0.150 OA
ATOM      3  O   UNL     1      -0.002   1.972   0.786  0.00  0.00    -0.150 OA
ENDROOT
BRANCH   1   4
ATOM      4  C   UNL     1       1.907   0.442  -0.117  0.00  0.00    +0.125 C 
ATOM      5  C   UNL     1       2.681   0.068  -1.216  0.00  0.00    +0.021 C 
ATOM      6  C   UNL     1       2.400   0.264   1.175  0.00  0.00    +0.021 C 
ATOM      7  C   UNL     1       3.947  -0.484  -1.022  0.00  0.00    +0.015 C 
ATOM      8  C   UNL     1       3.667  -0.287   1.369  0.00  0.00    +0.015 C 
ATOM      9  C   UNL     1       4.440  -0.661   0.270  0.00  0.00    +0.042 C 
BRANCH   9  10
ATOM     10  N   UNL     1       5.721  -1.218   0.467  0.00  0.00    -0.357 N 
ATOM     11  H   UNL     1       6.267  -1.482  -0.309  0.00  0.00    +0.142 HD
ATOM     12  H   UNL     1       6.069  -1.343   1.379  0.00  0.00    +0.142 HD
ENDBRANCH   9  10
ENDBRANCH   1   4
BRANCH   1  13
ATOM     13  N   UNL     1      -0.701  -0.254  -0.366  0.00  0.00    -0.183 N 
ATOM     14  H   UNL     1      -0.342  -1.148  -0.571  0.00  0.00    +0.177 HD
BRANCH  13  17
ATOM     15  O   UNL     1      -2.649   1.101   0.372  0.00  0.00    -0.338 OA
ATOM     16  N   UNL     1      -4.014   0.930   0.568  0.00  0.00    -0.080 NA
ATOM     17  C   UNL     1      -2.095  -0.068  -0.064  0.00  0.00    +0.241 A 
ATOM     18  C   UNL     1      -3.088  -1.019  -0.160  0.00  0.00    +0.048 A 
ATOM     19  C   UNL     1      -4.253  -0.344   0.243  0.00  0.00    +0.098 A 
ATOM     20  C   UNL     1      -2.954  -2.422  -0.587  0.00  0.00    +0.037 C 
ATOM     21  C   UNL     1      -5.623  -0.874   0.338  0.00  0.00    +0.055 C 
ENDBRANCH  13  17
ENDBRANCH   1  13
TORSDOF 4
