REMARK  Name = 5281037
REMARK  12 active torsions:
REMARK  status: ('A' for Active; 'I' for Inactive)
REMARK    1  A    between atoms: N_1  and  C_22
REMARK    2  A    between atoms: C_3  and  C_18
REMARK    3  A    between atoms: C_4  and  C_6
REMARK    4  A    between atoms: C_7  and  C_9
REMARK    5  A    between atoms: C_7  and  C_12
REMARK    6  A    between atoms: C_9  and  O_10
REMARK    7  A    between atoms: C_12  and  C_14
REMARK    8  A    between atoms: C_18  and  C_19
REMARK    9  A    between atoms: C_19  and  C_20
REMARK   10  A    between atoms: C_22  and  C_23
REMARK   11  A    between atoms: C_28  and  C_30
REMARK   12  A    between atoms: C_30  and  O_31
REMARK                            x       y       z     vdW  Elec       q    Type
REMARK                         _______ _______ _______ _____ _____    ______ ____
ROOT
ATOM      1  N   UNL     1       1.059   1.346  -0.732  0.00  0.00    -0.270 N 
ATOM      2  N   UNL     1       0.867   2.930   0.813  0.00  0.00    -0.232 NA
ATOM      3  C   UNL     1       1.706   2.161   0.154  0.00  0.00    +0.112 C 
ATOM      4  C   UNL     1      -0.278   1.612  -0.633  0.00  0.00    +0.072 C 
ATOM      5  C   UNL     1      -0.371   2.592   0.327  0.00  0.00    +0.115 C 
ENDROOT
BRANCH   4   6
ATOM      6  C   UNL     1      -1.210   0.925  -1.426  0.00  0.00    +0.019 C 
ATOM      7  C   UNL     1      -2.230   0.177  -0.928  0.00  0.00    +0.059 C 
BRANCH   7   9
ATOM      8  O   UNL     1      -3.334  -0.012  -3.064  0.00  0.00    -0.245 OA
ATOM      9  C   UNL     1      -3.103  -0.461  -1.952  0.00  0.00    +0.334 C 
BRANCH   9  10
ATOM     10  O   UNL     1      -3.605  -1.628  -1.487  0.00  0.00    -0.477 OA
ATOM     11  H   UNL     1      -3.391  -1.920  -0.623  0.00  0.00    +0.295 HD
ENDBRANCH   9  10
ENDBRANCH   7   9
BRANCH   7  12
ATOM     12  C   UNL     1      -2.550  -0.041   0.537  0.00  0.00    +0.066 C 
BRANCH  12  14
ATOM     13  S   UNL     1      -5.028  -0.537   1.717  0.00  0.00    -0.090 S 
ATOM     14  C   UNL     1      -3.886   0.510   0.987  0.00  0.00    +0.012 C 
ATOM     15  C   UNL     1      -4.355   1.802   0.894  0.00  0.00    +0.003 C 
ATOM     16  C   UNL     1      -5.669   1.934   1.430  0.00  0.00    +0.007 C 
ATOM     17  C   UNL     1      -6.154   0.738   1.912  0.00  0.00    +0.035 C 
ENDBRANCH  12  14
ENDBRANCH   7  12
ENDBRANCH   4   6
BRANCH   3  18
ATOM     18  C   UNL     1       3.205   2.143   0.318  0.00  0.00    +0.062 C 
BRANCH  18  19
ATOM     19  C   UNL     1       3.782   3.560   0.367  0.00  0.00    +0.008 C 
BRANCH  19  20
ATOM     20  C   UNL     1       5.305   3.535   0.497  0.00  0.00    +0.000 C 
ATOM     21  C   UNL     1       5.887   4.939   0.506  0.00  0.00    +0.000 C 
ENDBRANCH  19  20
ENDBRANCH  18  19
ENDBRANCH   3  18
BRANCH   1  22
ATOM     22  C   UNL     1       1.692   0.383  -1.607  0.00  0.00    +0.123 C 
BRANCH  22  23
ATOM     23  C   UNL     1       1.811  -0.964  -0.948  0.00  0.00    -0.002 C 
ATOM     24  C   UNL     1       0.784  -1.899  -1.082  0.00  0.00    -0.002 C 
ATOM     25  C   UNL     1       2.946  -1.278  -0.200  0.00  0.00    -0.002 C 
ATOM     26  C   UNL     1       0.894  -3.148  -0.469  0.00  0.00    +0.006 C 
ATOM     27  C   UNL     1       3.055  -2.526   0.412  0.00  0.00    +0.006 C 
ATOM     28  C   UNL     1       2.029  -3.461   0.278  0.00  0.00    +0.075 C 
BRANCH  28  30
ATOM     29  O   UNL     1       1.298  -5.663   0.863  0.00  0.00    -0.245 OA
ATOM     30  C   UNL     1       2.143  -4.763   0.916  0.00  0.00    +0.338 C 
BRANCH  30  31
ATOM     31  O   UNL     1       3.309  -4.906   1.603  0.00  0.00    -0.477 OA
ATOM     32  H   UNL     1       3.930  -4.204   1.623  0.00  0.00    +0.295 HD
ENDBRANCH  30  31
ENDBRANCH  28  30
ENDBRANCH  22  23
ENDBRANCH   1  22
TORSDOF 12
