REMARK  Name = 2123
REMARK  0 active torsions:
REMARK  status: ('A' for Active; 'I' for Inactive)
REMARK                            x       y       z     vdW  Elec       q    Type
REMARK                         _______ _______ _______ _____ _____    ______ ____
ROOT
ATOM      1  N   UNL     1       2.704  -0.010   0.003  0.00  0.00    -0.229 N 
ATOM      2  N   UNL     1      -1.366  -2.340  -0.004  0.00  0.00    -0.229 N 
ATOM      3  N   UNL     1      -1.348   2.349   0.003  0.00  0.00    -0.229 N 
ATOM      4  N   UNL     1       0.685  -1.202   0.001  0.00  0.00    -0.246 NA
ATOM      5  N   UNL     1       0.694   1.197   0.004  0.00  0.00    -0.246 NA
ATOM      6  N   UNL     1      -1.389   0.005   0.001  0.00  0.00    -0.246 NA
ATOM      7  C   UNL     1       1.309  -0.005   0.003  0.00  0.00    +0.225 C 
ATOM      8  C   UNL     1      -0.655  -1.120   0.000  0.00  0.00    +0.225 C 
ATOM      9  C   UNL     1      -0.647   1.124   0.003  0.00  0.00    +0.225 C 
ATOM     10  C   UNL     1       3.449  -1.262   0.002  0.00  0.00    +0.125 C 
ATOM     11  C   UNL     1       3.458   1.237  -0.009  0.00  0.00    +0.125 C 
ATOM     12  C   UNL     1      -0.654  -3.602  -0.006  0.00  0.00    +0.125 C 
ATOM     13  C   UNL     1      -2.814  -2.344   0.009  0.00  0.00    +0.125 C 
ATOM     14  C   UNL     1      -0.628   3.606   0.004  0.00  0.00    +0.125 C 
ATOM     15  C   UNL     1      -2.797   2.365  -0.012  0.00  0.00    +0.125 C 
ENDROOT
TORSDOF 0
