REMARK  Name = 938
REMARK  2 active torsions:
REMARK  status: ('A' for Active; 'I' for Inactive)
REMARK    1  A    between atoms: C_2  and  C_8
REMARK    2  A    between atoms: C_8  and  O_9
REMARK                            x       y       z     vdW  Elec       q    Type
REMARK                         _______ _______ _______ _____ _____    ______ ____
ROOT
ATOM      1  N   UNL     1       1.757  -1.216   0.000  0.00  0.00    -0.242 NA
ATOM      2  C   UNL     1      -0.304   0.048   0.000  0.00  0.00    +0.095 C 
ATOM      3  C   UNL     1       0.417   1.237   0.000  0.00  0.00    +0.010 C 
ATOM      4  C   UNL     1       0.407  -1.141   0.000  0.00  0.00    +0.105 C 
ATOM      5  C   UNL     1       1.808   1.201   0.000  0.00  0.00    +0.021 C 
ATOM      6  C   UNL     1       2.424  -0.040   0.000  0.00  0.00    +0.099 C 
ENDROOT
BRANCH   2   8
ATOM      7  O   UNL     1      -2.470   1.062   0.000  0.00  0.00    -0.245 OA
ATOM      8  C   UNL     1      -1.756   0.053   0.000  0.00  0.00    +0.340 C 
BRANCH   8   9
ATOM      9  O   UNL     1      -2.283  -1.203  -0.001  0.00  0.00    -0.477 OA
ATOM     10  H   UNL     1      -1.716  -1.949  -0.001  0.00  0.00    +0.295 HD
ENDBRANCH   8   9
ENDBRANCH   2   8
TORSDOF 2
