REMARK  Name = 153941
REMARK  4 active torsions:
REMARK  status: ('A' for Active; 'I' for Inactive)
REMARK    1  A    between atoms: N_2  and  C_15
REMARK    2  A    between atoms: C_16  and  C_23
REMARK    3  A    between atoms: C_17  and  O_21
REMARK    4  A    between atoms: C_23  and  O_24
REMARK                            x       y       z     vdW  Elec       q    Type
REMARK                         _______ _______ _______ _____ _____    ______ ____
ROOT
ATOM      1  O   UNL     1       4.267  -1.899  -0.335  0.00  0.00    -0.208 OA
ATOM      2  N   UNL     1       0.068  -0.228  -0.287  0.00  0.00    -0.230 NA
ATOM      3  N   UNL     1       1.863   1.317   0.268  0.00  0.00    -0.279 N 
ATOM      4  N   UNL     1       1.337  -2.044  -0.636  0.00  0.00    -0.241 NA
ATOM      5  N   UNL     1       4.057   0.343   0.217  0.00  0.00    -0.301 NA
ATOM      6  N   UNL     1       3.714   2.610   0.762  0.00  0.00    -0.320 N 
ATOM      7  C   UNL     1       1.355   0.132  -0.080  0.00  0.00    +0.189 C 
ATOM      8  C   UNL     1       0.106  -1.562  -0.623  0.00  0.00    +0.203 C 
ATOM      9  C   UNL     1       2.120  -0.978  -0.294  0.00  0.00    +0.183 C 
ATOM     10  C   UNL     1       3.561  -0.915  -0.148  0.00  0.00    +0.224 C 
ATOM     11  C   UNL     1       3.249   1.369   0.406  0.00  0.00    +0.245 C 
ATOM     12  H   UNL     1       1.293   2.105   0.417  0.00  0.00    +0.152 HD
ATOM     13  H   UNL     1       3.082   3.353   0.895  0.00  0.00    +0.146 HD
ATOM     14  H   UNL     1       4.680   2.756   0.885  0.00  0.00    +0.146 HD
ENDROOT
BRANCH   2  15
ATOM     15  C   UNL     1      -1.130   0.607  -0.183  0.00  0.00    +0.082 C 
ATOM     16  C   UNL     1      -3.554   0.217   0.232  0.00  0.00    +0.076 C 
ATOM     17  C   UNL     1      -3.340   1.042  -1.045  0.00  0.00    +0.118 C 
ATOM     18  C   UNL     1      -1.921   0.705  -1.496  0.00  0.00    +0.050 C 
ATOM     19  C   UNL     1      -2.160   0.144   0.825  0.00  0.00    -0.025 C 
ATOM     20  C   UNL     1      -1.901  -0.217   2.089  0.00  0.00    -0.008 C 
BRANCH  17  21
ATOM     21  O   UNL     1      -3.429   2.429  -0.725  0.00  0.00    -0.384 OA
ATOM     22  H   UNL     1      -4.332   2.638  -0.439  0.00  0.00    +0.210 HD
ENDBRANCH  17  21
BRANCH  16  23
ATOM     23  C   UNL     1      -4.111  -1.171  -0.075  0.00  0.00    +0.144 C 
BRANCH  23  24
ATOM     24  O   UNL     1      -4.153  -1.901   1.129  0.00  0.00    -0.382 OA
ATOM     25  H   UNL     1      -4.505  -2.788   0.957  0.00  0.00    +0.210 HD
ENDBRANCH  23  24
ENDBRANCH  16  23
ENDBRANCH   2  15
TORSDOF 4
