REMARK  Name = 6971019
REMARK  4 active torsions:
REMARK  status: ('A' for Active; 'I' for Inactive)
REMARK    1  A    between atoms: CA_1  and  N_2
REMARK    2  A    between atoms: CA_1  and  C_8
REMARK    3  A    between atoms: CA_1  and  CB_9
REMARK    4  A    between atoms: CB_9  and  OG1_11
REMARK                            x       y       z     vdW  Elec       q    Type
REMARK                         _______ _______ _______ _____ _____    ______ ____
ROOT
ATOM      1  CA  THR A   1      -0.008  -0.460   0.446  0.00  0.00    +0.068 C 
ENDROOT
BRANCH   1   2
ATOM      2  N   THR A   1       0.226  -1.722  -0.326  0.00  0.00    +0.390 N 
ATOM      3  H1  THR A   1       1.148  -2.094  -0.098  0.00  0.00    -0.088 HD
ATOM      4  H2  THR A   1       0.177  -1.523  -1.325  0.00  0.00    -0.088 HD
ATOM      5  H3  THR A   1      -0.488  -2.408  -0.081  0.00  0.00    -0.088 HD
ENDBRANCH   1   2
BRANCH   1   8
ATOM      6  O   THR A   1      -2.288  -0.627  -0.249  0.00  0.00    -0.248 OA
ATOM      7  OXT THR A   1      -1.457   1.407   0.361  0.00  0.00    -0.248 OA
ATOM      8  C   THR A   1      -1.388   0.161   0.150  0.00  0.00    +0.347 C 
ENDBRANCH   1   8
BRANCH   1   9
ATOM      9  CB  THR A   1       1.192   0.475   0.228  0.00  0.00    +0.101 C 
ATOM     10  CG2 THR A   1       2.541  -0.182   0.508  0.00  0.00    +0.030 C 
BRANCH   9  11
ATOM     11  OG1 THR A   1       1.182   0.949  -1.118  0.00  0.00    -0.386 OA
ATOM     12  HG1 THR A   1       0.328   1.369  -1.307  0.00  0.00    +0.210 HD
ENDBRANCH   9  11
ENDBRANCH   1   9
TORSDOF 4
