REMARK  Name = 8275
REMARK  4 active torsions:
REMARK  status: ('A' for Active; 'I' for Inactive)
REMARK    1  A    between atoms: C_6  and  C_12
REMARK    2  A    between atoms: C_6  and  C_16
REMARK    3  A    between atoms: C_12  and  C_14
REMARK    4  A    between atoms: C_16  and  C_17
REMARK                            x       y       z     vdW  Elec       q    Type
REMARK                         _______ _______ _______ _____ _____    ______ ____
ROOT
ATOM      1  O   UNL     1       0.624  -1.508   1.805  0.00  0.00    -0.274 OA
ATOM      2  O   UNL     1      -0.282   0.471  -2.355  0.00  0.00    -0.274 OA
ATOM      3  O   UNL     1       3.243   1.905   0.209  0.00  0.00    -0.252 OA
ATOM      4  N   UNL     1       1.871   0.263   1.050  0.00  0.00    -0.239 N 
ATOM      5  N   UNL     1       1.418   1.252  -1.028  0.00  0.00    -0.239 N 
ATOM      6  C   UNL     1      -0.284  -0.204  -0.026  0.00  0.00    +0.142 C 
ATOM      7  C   UNL     1       0.768  -0.577   1.013  0.00  0.00    +0.237 C 
ATOM      8  C   UNL     1       0.273   0.504  -1.258  0.00  0.00    +0.237 C 
ATOM      9  C   UNL     1       2.238   1.202   0.093  0.00  0.00    +0.312 C 
ATOM     10  H   UNL     1       2.456   0.186   1.838  0.00  0.00    +0.159 HD
ATOM     11  H   UNL     1       1.677   1.887  -1.734  0.00  0.00    +0.159 HD
ENDROOT
BRANCH   6  12
ATOM     12  C   UNL     1      -1.260   0.774   0.652  0.00  0.00    +0.017 C 
ATOM     13  C   UNL     1      -1.866   0.116   1.890  0.00  0.00    +0.001 C 
BRANCH  12  14
ATOM     14  C   UNL     1      -2.326   1.225  -0.359  0.00  0.00    +0.001 C 
ATOM     15  C   UNL     1      -3.303   2.245   0.207  0.00  0.00    +0.000 C 
ENDBRANCH  12  14
ENDBRANCH   6  12
BRANCH   6  16
ATOM     16  C   UNL     1      -1.047  -1.464  -0.460  0.00  0.00    +0.043 C 
BRANCH  16  17
ATOM     17  C   UNL     1      -0.108  -2.496  -0.989  0.00  0.00    -0.025 C 
ATOM     18  C   UNL     1       0.042  -3.710  -0.447  0.00  0.00    -0.005 C 
ENDBRANCH  16  17
ENDBRANCH   6  16
TORSDOF 4
