REMARK  Name = 3878
REMARK  1 active torsions:
REMARK  status: ('A' for Active; 'I' for Inactive)
REMARK    1  A    between atoms: C_5  and  C_12
REMARK                            x       y       z     vdW  Elec       q    Type
REMARK                         _______ _______ _______ _____ _____    ______ ____
ROOT
ATOM      1  N   UNL     1       1.274  -0.019   1.330  0.00  0.00    -0.133 NA
ATOM      2  N   UNL     1       2.801  -0.038  -0.980  0.00  0.00    -0.320 NA
ATOM      3  N   UNL     1       2.609   0.163   1.401  0.00  0.00    -0.068 NA
ATOM      4  N   UNL     1       4.702   0.337   0.346  0.00  0.00    -0.292 N 
ATOM      5  C   UNL     1       0.718  -0.207   0.123  0.00  0.00    +0.149 C 
ATOM      6  C   UNL     1       1.472  -0.216  -1.016  0.00  0.00    +0.209 C 
ATOM      7  C   UNL     1       3.308   0.145   0.249  0.00  0.00    +0.161 C 
ATOM      8  H   UNL     1       5.257   0.333  -0.467  0.00  0.00    +0.155 HD
ATOM      9  H   UNL     1       5.120   0.475   1.226  0.00  0.00    +0.155 HD
ATOM     10  N   UNL     1       0.852  -0.416  -2.270  0.00  0.00    -0.331 N 
ATOM     11  H   UNL     1       1.394  -0.423  -3.092  0.00  0.00    +0.145 HD
ATOM     12  H   UNL     1      -0.122  -0.549  -2.322  0.00  0.00    +0.145 HD
ENDROOT
BRANCH   5  15
ATOM     13 CL   UNL     1      -1.002   2.296  -0.113  0.00  0.00    -0.081 Cl
ATOM     14 CL   UNL     1      -4.151   1.717  -0.059  0.00  0.00    -0.081 Cl
ATOM     15  C   UNL     1      -0.722  -0.394   0.142  0.00  0.00    +0.035 C 
ATOM     16  C   UNL     1      -1.612   0.675   0.041  0.00  0.00    +0.070 C 
ATOM     17  C   UNL     1      -1.206  -1.696   0.266  0.00  0.00    +0.003 C 
ATOM     18  C   UNL     1      -2.987   0.442   0.063  0.00  0.00    +0.068 C 
ATOM     19  C   UNL     1      -2.581  -1.929   0.289  0.00  0.00    +0.001 C 
ATOM     20  C   UNL     1      -3.472  -0.860   0.188  0.00  0.00    +0.012 C 
ENDBRANCH   5  15
TORSDOF 1
