REMARK  Name = 2809
REMARK  3 active torsions:
REMARK  status: ('A' for Active; 'I' for Inactive)
REMARK    1  A    between atoms: C_6  and  C_15
REMARK    2  A    between atoms: CA_8  and  C_22
REMARK    3  A    between atoms: C_22  and  O_23
REMARK                            x       y       z     vdW  Elec       q    Type
REMARK                         _______ _______ _______ _____ _____    ______ ____
ROOT
ATOM      1 CL   UNL     1       3.224  -3.397  -1.510  0.00  0.00    -0.082 Cl
ATOM      2  O   UNL     1      -3.482  -0.130   1.591  0.00  0.00    -0.272 OA
ATOM      3  N   UNL     1      -1.691  -1.497   1.216  0.00  0.00    -0.282 N 
ATOM      4  N   UNL     1      -1.028   1.079  -0.212  0.00  0.00    -0.252 NA
ATOM      5  C   UNL     1       0.340  -0.974  -0.126  0.00  0.00    +0.032 C 
ATOM      6  C   UNL     1       0.121   0.504  -0.102  0.00  0.00    +0.078 C 
ATOM      7  C   UNL     1      -0.486  -1.862   0.580  0.00  0.00    +0.052 C 
ATOM      8  CA  UNL     1      -2.210   0.266  -0.409  0.00  0.00    +0.277 C 
ATOM      9  C   UNL     1      -2.512  -0.435   0.895  0.00  0.00    +0.260 C 
ATOM     10  C   UNL     1       1.478  -1.463  -0.789  0.00  0.00    +0.014 C 
ATOM     11  C   UNL     1      -0.100  -3.206   0.700  0.00  0.00    +0.016 C 
ATOM     12  C   UNL     1       1.822  -2.812  -0.702  0.00  0.00    +0.058 C 
ATOM     13  C   UNL     1       1.043  -3.679   0.056  0.00  0.00    +0.013 C 
ATOM     14  H   UNL     1      -1.978  -2.061   1.970  0.00  0.00    +0.155 HD
ENDROOT
BRANCH   6  15
ATOM     15  C   UNL     1       1.297   1.399   0.094  0.00  0.00    +0.017 C 
ATOM     16  C   UNL     1       2.382   0.954   0.838  0.00  0.00    +0.001 C 
ATOM     17  C   UNL     1       1.294   2.669  -0.470  0.00  0.00    +0.001 C 
ATOM     18  C   UNL     1       3.482   1.791   1.022  0.00  0.00    +0.000 C 
ATOM     19  C   UNL     1       2.394   3.506  -0.286  0.00  0.00    +0.000 C 
ATOM     20  C   UNL     1       3.488   3.068   0.460  0.00  0.00    +0.000 C 
ENDBRANCH   6  15
BRANCH   8  22
ATOM     21  OXT UNL     1      -3.128   2.427  -0.970  0.00  0.00    -0.248 OA
ATOM     22  C   UNL     1      -3.279   1.222  -0.832  0.00  0.00    +0.346 C 
BRANCH  22  23
ATOM     23  O   UNL     1      -4.448   0.570  -1.043  0.00  0.00    -0.479 OA
ATOM     24  H   UNL     1      -4.496  -0.358  -0.919  0.00  0.00    +0.295 HD
ENDBRANCH  22  23
ENDBRANCH   8  22
TORSDOF 3
