REMARK  Name = 57469
REMARK  2 active torsions:
REMARK  status: ('A' for Active; 'I' for Inactive)
REMARK    1  A    between atoms: N_1  and  C_17
REMARK    2  A    between atoms: C_17  and  C_18
REMARK                            x       y       z     vdW  Elec       q    Type
REMARK                         _______ _______ _______ _____ _____    ______ ____
ROOT
ATOM      1  N   UNL     1       1.538   0.394  -0.637  0.00  0.00    -0.286 N 
ATOM      2  N   UNL     1       1.050   2.526  -0.247  0.00  0.00    -0.243 NA
ATOM      3  N   UNL     1      -2.343   1.168   0.361  0.00  0.00    -0.386 NA
ATOM      4  N   UNL     1      -1.692   3.462   0.508  0.00  0.00    -0.332 N 
ATOM      5  C   UNL     1       0.201   0.411  -0.325  0.00  0.00    +0.073 C 
ATOM      6  C   UNL     1      -0.783  -0.588  -0.227  0.00  0.00    +0.045 C 
ATOM      7  C   UNL     1      -0.075   1.753  -0.087  0.00  0.00    +0.135 C 
ATOM      8  C   UNL     1       1.999   1.679  -0.577  0.00  0.00    +0.220 C 
ATOM      9  C   UNL     1      -2.068  -0.132   0.129  0.00  0.00    +0.134 C 
ATOM     10  C   UNL     1      -1.374   2.114   0.260  0.00  0.00    +0.196 C 
ATOM     11  C   UNL     1      -0.509  -1.949  -0.467  0.00  0.00    +0.004 C 
ATOM     12  C   UNL     1      -3.068  -1.093   0.236  0.00  0.00    +0.032 C 
ATOM     13  C   UNL     1      -1.537  -2.878  -0.349  0.00  0.00    +0.000 C 
ATOM     14  C   UNL     1      -2.814  -2.450   0.002  0.00  0.00    +0.003 C 
ATOM     15  H   UNL     1      -2.612   3.713   0.753  0.00  0.00    +0.145 HD
ATOM     16  H   UNL     1      -0.995   4.154   0.436  0.00  0.00    +0.145 HD
ENDROOT
BRANCH   1  17
ATOM     17  C   UNL     1       2.374  -0.734  -0.977  0.00  0.00    +0.093 C 
BRANCH  17  18
ATOM     18  C   UNL     1       3.050  -1.396   0.237  0.00  0.00    +0.020 C 
ATOM     19  C   UNL     1       2.030  -1.875   1.273  0.00  0.00    +0.002 C 
ATOM     20  C   UNL     1       4.023  -0.411   0.887  0.00  0.00    +0.002 C 
ENDBRANCH  17  18
ENDBRANCH   1  17
TORSDOF 2
