REMARK  Name = 2435
REMARK  1 active torsions:
REMARK  status: ('A' for Active; 'I' for Inactive)
REMARK    1  A    between atoms: C_4  and  N_13
REMARK                            x       y       z     vdW  Elec       q    Type
REMARK                         _______ _______ _______ _____ _____    ______ ____
ROOT
ATOM      1 BR   UNL     1       0.528  -2.887  -0.090  0.00  0.00    -0.069 Br
ATOM      2  N   UNL     1       3.085  -1.227  -0.235  0.00  0.00    -0.244 NA
ATOM      3  N   UNL     1       3.385   1.524   0.011  0.00  0.00    -0.245 NA
ATOM      4  C   UNL     1      -0.377  -0.196   0.308  0.00  0.00    +0.040 C 
ATOM      5  C   UNL     1       0.745  -0.993   0.084  0.00  0.00    +0.133 C 
ATOM      6  C   UNL     1       2.018  -0.438  -0.019  0.00  0.00    +0.088 C 
ATOM      7  C   UNL     1      -0.228   1.177   0.431  0.00  0.00    -0.008 C 
ATOM      8  C   UNL     1       2.170   0.955   0.106  0.00  0.00    +0.078 C 
ATOM      9  C   UNL     1       1.042   1.742   0.329  0.00  0.00    +0.074 C 
ATOM     10  C   UNL     1       4.291  -0.639  -0.327  0.00  0.00    +0.119 C 
ATOM     11  C   UNL     1       4.439   0.717  -0.205  0.00  0.00    +0.119 C 
ENDROOT
BRANCH   4  13
ATOM     12  N   UNL     1      -3.975  -0.893   0.268  0.00  0.00    -0.284 N 
ATOM     13  N   UNL     1      -1.675  -0.744   0.414  0.00  0.00    -0.289 N 
ATOM     14  N   UNL     1      -3.003   1.040  -0.417  0.00  0.00    -0.214 NA
ATOM     15  C   UNL     1      -5.126  -0.145  -0.137  0.00  0.00    +0.085 C 
ATOM     16  C   UNL     1      -4.481   1.168  -0.599  0.00  0.00    +0.117 C 
ATOM     17  C   UNL     1      -2.839  -0.163   0.078  0.00  0.00    +0.189 C 
ATOM     18  H   UNL     1      -3.999  -1.807   0.632  0.00  0.00    +0.155 HD
ATOM     19  H   UNL     1      -1.733  -1.658   0.775  0.00  0.00    +0.155 HD
ENDBRANCH   4  13
TORSDOF 1
