REMARK  Name = 1983
REMARK  2 active torsions:
REMARK  status: ('A' for Active; 'I' for Inactive)
REMARK    1  A    between atoms: C_1  and  N_8
REMARK    2  A    between atoms: C_6  and  O_12
REMARK                            x       y       z     vdW  Elec       q    Type
REMARK                         _______ _______ _______ _____ _____    ______ ____
ROOT
ATOM      1  C   UNL     1      -0.207  -0.423   0.000  0.00  0.00    +0.050 C 
ATOM      2  C   UNL     1       0.221   0.905   0.000  0.00  0.00    +0.018 C 
ATOM      3  C   UNL     1       0.730  -1.457  -0.001  0.00  0.00    +0.018 C 
ATOM      4  C   UNL     1       1.584   1.199   0.000  0.00  0.00    +0.038 C 
ATOM      5  C   UNL     1       2.093  -1.163  -0.001  0.00  0.00    +0.038 C 
ATOM      6  C   UNL     1       2.520   0.165   0.000  0.00  0.00    +0.134 C 
ENDROOT
BRANCH   1   8
ATOM      7  O   UNL     1      -2.600   1.404  -0.002  0.00  0.00    -0.275 OA
ATOM      8  N   UNL     1      -1.571  -0.717   0.000  0.00  0.00    -0.284 N 
ATOM      9  C   UNL     1      -2.648   0.178   0.001  0.00  0.00    +0.227 C 
ATOM     10  C   UNL     1      -3.974  -0.542   0.001  0.00  0.00    +0.095 C 
ATOM     11  H   UNL     1      -1.805  -1.673   0.000  0.00  0.00    +0.155 HD
ENDBRANCH   1   8
BRANCH   6  12
ATOM     12  O   UNL     1       3.851   0.452   0.001  0.00  0.00    -0.506 OA
ATOM     13  H   UNL     1       4.138   1.344   0.001  0.00  0.00    +0.292 HD
ENDBRANCH   6  12
TORSDOF 2
