REMARK  Name = 5281078
REMARK  11 active torsions:
REMARK  status: ('A' for Active; 'I' for Inactive)
REMARK    1  A    between atoms: C_1  and  C_4
REMARK    2  A    between atoms: C_2  and  C_20
REMARK    3  A    between atoms: C_4  and  C_8
REMARK    4  A    between atoms: C_11  and  O_16
REMARK    5  A    between atoms: C_12  and  O_18
REMARK    6  A    between atoms: C_20  and  C_21
REMARK    7  A    between atoms: C_21  and  C_23
REMARK    8  A    between atoms: C_23  and  O_24
REMARK    9  A    between atoms: O_24  and  C_25
REMARK   10  A    between atoms: C_25  and  C_26
REMARK   11  A    between atoms: C_26  and  N_28
REMARK                            x       y       z     vdW  Elec       q    Type
REMARK                         _______ _______ _______ _____ _____    ______ ____
ROOT
ATOM      1  C   UNL     1      -3.464  -0.579  -0.071  0.00  0.00    -0.030 C 
ATOM      2  C   UNL     1      -3.758  -1.710   0.601  0.00  0.00    -0.047 C 
ATOM      3  C   UNL     1      -4.045  -1.785   2.075  0.00  0.00    +0.026 C 
ENDROOT
BRANCH   1   4
ATOM      4  C   UNL     1      -3.353   0.818   0.470  0.00  0.00    +0.058 C 
BRANCH   4   8
ATOM      5  O   UNL     1       2.393   2.411   1.194  0.00  0.00    -0.440 OA
ATOM      6  O   UNL     1       1.521   1.194   2.955  0.00  0.00    -0.245 OA
ATOM      7  C   UNL     1       0.536   2.465  -0.131  0.00  0.00    +0.029 A 
ATOM      8  C   UNL     1      -1.974   1.395   0.269  0.00  0.00    +0.050 A 
ATOM      9  C   UNL     1       0.236   1.762   1.018  0.00  0.00    +0.108 A 
ATOM     10  C   UNL     1      -0.422   2.648  -1.111  0.00  0.00    +0.012 A 
ATOM     11  C   UNL     1      -1.693   2.104  -0.904  0.00  0.00    +0.134 A 
ATOM     12  C   UNL     1      -1.010   1.212   1.253  0.00  0.00    +0.139 A 
ATOM     13  C   UNL     1       1.937   2.922  -0.084  0.00  0.00    +0.235 C 
ATOM     14  C   UNL     1       1.416   1.724   1.867  0.00  0.00    +0.344 C 
ATOM     15  C   UNL     1      -0.102   3.409  -2.352  0.00  0.00    +0.034 C 
BRANCH  11  16
ATOM     16  O   UNL     1      -2.660   2.269  -1.854  0.00  0.00    -0.472 OA
ATOM     17  C   UNL     1      -3.486   3.425  -1.738  0.00  0.00    +0.252 C 
ENDBRANCH  11  16
BRANCH  12  18
ATOM     18  O   UNL     1      -1.278   0.525   2.393  0.00  0.00    -0.506 OA
ATOM     19  H   UNL     1      -2.130   0.160   2.531  0.00  0.00    +0.292 HD
ENDBRANCH  12  18
ENDBRANCH   4   8
ENDBRANCH   1   4
BRANCH   2  20
ATOM     20  C   UNL     1      -3.819  -3.034  -0.139  0.00  0.00    +0.033 C 
BRANCH  20  21
ATOM     21  C   UNL     1      -2.497  -3.800  -0.125  0.00  0.00    +0.114 C 
BRANCH  21  23
ATOM     22  O   UNL     1      -1.506  -2.655  -2.006  0.00  0.00    -0.250 OA
ATOM     23  C   UNL     1      -1.408  -3.046  -0.850  0.00  0.00    +0.317 C 
BRANCH  23  24
ATOM     24  O   UNL     1      -0.345  -2.846  -0.019  0.00  0.00    -0.451 OA
BRANCH  24  25
ATOM     25  C   UNL     1       0.744  -2.107  -0.581  0.00  0.00    +0.186 C 
BRANCH  25  26
ATOM     26  C   UNL     1       1.837  -1.976   0.468  0.00  0.00    -0.029 C 
BRANCH  26  28
ATOM     27  O   UNL     1       5.726  -1.020  -0.787  0.00  0.00    -0.358 OA
ATOM     28  N   UNL     1       2.981  -1.241  -0.068  0.00  0.00    +0.393 N 
ATOM     29  C   UNL     1       3.520  -1.911  -1.260  0.00  0.00    -0.044 C 
ATOM     30  C   UNL     1       4.033  -1.099   0.948  0.00  0.00    -0.044 C 
ATOM     31  C   UNL     1       4.720  -1.134  -1.794  0.00  0.00    +0.119 C 
ATOM     32  C   UNL     1       5.220  -0.340   0.362  0.00  0.00    +0.119 C 
ATOM     33  H   UNL     1       2.658  -0.311  -0.335  0.00  0.00    -0.079 HD
ENDBRANCH  26  28
ENDBRANCH  25  26
ENDBRANCH  24  25
ENDBRANCH  23  24
ENDBRANCH  21  23
ENDBRANCH  20  21
ENDBRANCH   2  20
TORSDOF 11
