REMARK  Name = 2564
REMARK  6 active torsions:
REMARK  status: ('A' for Active; 'I' for Inactive)
REMARK    1  A    between atoms: C_1  and  C_3
REMARK    2  A    between atoms: C_1  and  C_10
REMARK    3  A    between atoms: C_1  and  O_15
REMARK    4  A    between atoms: O_15  and  C_16
REMARK    5  A    between atoms: C_16  and  C_17
REMARK    6  A    between atoms: C_17  and  N_18
REMARK                            x       y       z     vdW  Elec       q    Type
REMARK                         _______ _______ _______ _____ _____    ______ ____
ROOT
ATOM      1  C   UNL     1      -0.114   0.081   0.634  0.00  0.00    +0.177 C 
ENDROOT
BRANCH   1   3
ATOM      2 CL   UNL     1      -5.822   1.630  -0.391  0.00  0.00    -0.082 Cl
ATOM      3  C   UNL     1      -1.554   0.472   0.376  0.00  0.00    +0.010 C 
ATOM      4  C   UNL     1      -2.523   0.129   1.302  0.00  0.00    -0.001 C 
ATOM      5  C   UNL     1      -1.868   1.164  -0.781  0.00  0.00    -0.001 C 
ATOM      6  C   UNL     1      -3.849   0.489   1.064  0.00  0.00    +0.011 C 
ATOM      7  C   UNL     1      -3.195   1.524  -1.019  0.00  0.00    +0.011 C 
ATOM      8  C   UNL     1      -4.186   1.186  -0.097  0.00  0.00    +0.058 C 
ENDBRANCH   1   3
BRANCH   1  10
ATOM      9  N   UNL     1       0.006  -1.595  -1.110  0.00  0.00    -0.245 NA
ATOM     10  C   UNL     1       0.201  -1.335   0.192  0.00  0.00    +0.090 C 
ATOM     11  C   UNL     1       0.651  -2.230   1.131  0.00  0.00    +0.018 C 
ATOM     12  C   UNL     1       0.931  -3.520   0.693  0.00  0.00    +0.003 C 
ATOM     13  C   UNL     1       0.288  -2.858  -1.499  0.00  0.00    +0.099 C 
ATOM     14  C   UNL     1       0.749  -3.848  -0.646  0.00  0.00    +0.021 C 
ENDBRANCH   1  10
BRANCH   1  15
ATOM     15  O   UNL     1       0.763   1.027   0.039  0.00  0.00    -0.348 OA
BRANCH  15  16
ATOM     16  C   UNL     1       2.125   0.688   0.263  0.00  0.00    +0.120 C 
BRANCH  16  17
ATOM     17  C   UNL     1       3.005   1.738  -0.398  0.00  0.00    -0.045 C 
BRANCH  17  18
ATOM     18  N   UNL     1       4.420   1.438  -0.178  0.00  0.00    +0.386 N 
ATOM     19  C   UNL     1       4.712   1.378   1.254  0.00  0.00    -0.101 C 
ATOM     20  C   UNL     1       5.261   2.441  -0.830  0.00  0.00    -0.101 C 
ATOM     21  H   UNL     1       4.625   0.528  -0.589  0.00  0.00    -0.080 HD
ENDBRANCH  17  18
ENDBRANCH  16  17
ENDBRANCH  15  16
ENDBRANCH   1  15
TORSDOF 6
