REMARK  Name = 54676228
REMARK  2 active torsions:
REMARK  status: ('A' for Active; 'I' for Inactive)
REMARK    1  A    between atoms: C_7  and  C_16
REMARK    2  A    between atoms: C_8  and  O_24
REMARK                            x       y       z     vdW  Elec       q    Type
REMARK                         _______ _______ _______ _____ _____    ______ ____
ROOT
ATOM      1  S   UNL     1       1.706  -1.720   0.277  0.00  0.00    +0.077 S 
ATOM      2  O   UNL     1       1.310  -1.761   1.671  0.00  0.00    -0.150 OA
ATOM      3  O   UNL     1       2.106  -2.924  -0.425  0.00  0.00    -0.150 OA
ATOM      4  N   UNL     1       0.509  -0.889  -0.650  0.00  0.00    -0.181 N 
ATOM      5  C   UNL     1       3.029  -0.568   0.176  0.00  0.00    +0.128 C 
ATOM      6  C   UNL     1       2.699   0.792   0.131  0.00  0.00    +0.054 C 
ATOM      7  C   UNL     1       0.253   0.451  -0.183  0.00  0.00    +0.156 C 
ATOM      8  C   UNL     1       1.285   1.238   0.181  0.00  0.00    +0.154 C 
ATOM      9  C   UNL     1       4.344  -1.025   0.126  0.00  0.00    +0.020 C 
ATOM     10  C   UNL     1       0.594  -1.027  -2.133  0.00  0.00    +0.139 C 
ATOM     11  C   UNL     1       3.757   1.708   0.048  0.00  0.00    +0.004 C 
ATOM     12  C   UNL     1       5.376  -0.096   0.039  0.00  0.00    +0.001 C 
ATOM     13  C   UNL     1       5.085   1.267   0.001  0.00  0.00    +0.000 C 
ENDROOT
BRANCH   7  16
ATOM     14  O   UNL     1      -1.438   2.035  -0.436  0.00  0.00    -0.268 OA
ATOM     15  N   UNL     1      -2.011  -0.200   0.034  0.00  0.00    -0.265 N 
ATOM     16  C   UNL     1      -1.154   0.862  -0.212  0.00  0.00    +0.269 C 
ATOM     17  H   UNL     1      -1.587  -1.074   0.193  0.00  0.00    +0.157 HD
ATOM     18  N   UNL     1      -4.087  -1.322   0.339  0.00  0.00    -0.229 NA
ATOM     19  C   UNL     1      -3.426  -0.171   0.082  0.00  0.00    +0.134 C 
ATOM     20  C   UNL     1      -4.048   1.048  -0.138  0.00  0.00    +0.034 C 
ATOM     21  C   UNL     1      -5.437   1.087  -0.092  0.00  0.00    +0.004 C 
ATOM     22  C   UNL     1      -5.436  -1.246   0.376  0.00  0.00    +0.100 C 
ATOM     23  C   UNL     1      -6.152  -0.078   0.169  0.00  0.00    +0.021 C 
ENDBRANCH   7  16
BRANCH   8  24
ATOM     24  O   UNL     1       1.136   2.540   0.621  0.00  0.00    -0.504 OA
ATOM     25  H   UNL     1       1.890   3.042   0.862  0.00  0.00    +0.292 HD
ENDBRANCH   8  24
TORSDOF 2
