REMARK  Name = 60606
REMARK  4 active torsions:
REMARK  status: ('A' for Active; 'I' for Inactive)
REMARK    1  A    between atoms: C_1  and  N_3
REMARK    2  A    between atoms: C_1  and  C_13
REMARK    3  A    between atoms: C_1  and  C_20
REMARK    4  A    between atoms: C_20  and  O_21
REMARK                            x       y       z     vdW  Elec       q    Type
REMARK                         _______ _______ _______ _____ _____    ______ ____
ROOT
ATOM      1  C   UNL     1       0.827  -0.620  -0.607  0.00  0.00    +0.068 C 
ENDROOT
BRANCH   1   3
ATOM      2  S   UNL     1      -4.966  -0.039   0.368  0.00  0.00    -0.091 S 
ATOM      3  N   UNL     1      -0.560  -0.518  -0.152  0.00  0.00    +0.401 N 
ATOM      4  C   UNL     1      -1.335  -1.700  -0.585  0.00  0.00    -0.070 C 
ATOM      5  C   UNL     1      -1.163   0.741  -0.644  0.00  0.00    -0.048 C 
ATOM      6  C   UNL     1      -2.733  -1.716   0.065  0.00  0.00    +0.010 C 
ATOM      7  C   UNL     1      -2.617   0.790  -0.283  0.00  0.00    -0.041 C 
ATOM      8  C   UNL     1      -3.334  -0.350   0.016  0.00  0.00    -0.001 C 
ATOM      9  C   UNL     1      -3.447   1.950  -0.226  0.00  0.00    +0.001 C 
ATOM     10  C   UNL     1      -4.747   1.642   0.117  0.00  0.00    +0.035 C 
ATOM     11  H   UNL     1      -0.576  -0.498   0.867  0.00  0.00    -0.078 HD
ENDBRANCH   1   3
BRANCH   1  13
ATOM     12 CL   UNL     1       3.183   0.337  -2.350  0.00  0.00    -0.083 Cl
ATOM     13  C   UNL     1       1.661   0.535  -0.098  0.00  0.00    -0.020 C 
ATOM     14  C   UNL     1       2.735   1.017  -0.829  0.00  0.00    +0.052 C 
ATOM     15  C   UNL     1       1.312   1.091   1.123  0.00  0.00    -0.005 C 
ATOM     16  C   UNL     1       3.480   2.083  -0.326  0.00  0.00    +0.011 C 
ATOM     17  C   UNL     1       2.058   2.158   1.626  0.00  0.00    -0.000 C 
ATOM     18  C   UNL     1       3.142   2.654   0.901  0.00  0.00    +0.001 C 
ENDBRANCH   1  13
BRANCH   1  20
ATOM     19  O   UNL     1       1.730  -2.868  -0.915  0.00  0.00    -0.252 OA
ATOM     20  C   UNL     1       1.378  -1.966  -0.165  0.00  0.00    +0.301 C 
BRANCH  20  21
ATOM     21  O   UNL     1       1.438  -2.005   1.202  0.00  0.00    -0.446 OA
ATOM     22  C   UNL     1       1.959  -3.214   1.763  0.00  0.00    +0.256 C 
ENDBRANCH  20  21
ENDBRANCH   1  20
TORSDOF 4
