REMARK  Name = 2481
REMARK  4 active torsions:
REMARK  status: ('A' for Active; 'I' for Inactive)
REMARK    1  A    between atoms: C_6  and  C_12
REMARK    2  A    between atoms: C_6  and  C_16
REMARK    3  A    between atoms: C_12  and  C_13
REMARK    4  A    between atoms: C_16  and  C_17
REMARK                            x       y       z     vdW  Elec       q    Type
REMARK                         _______ _______ _______ _____ _____    ______ ____
ROOT
ATOM      1  O   UNL     1      -1.638  -0.242  -1.953  0.00  0.00    -0.274 OA
ATOM      2  O   UNL     1       0.937   0.797   1.834  0.00  0.00    -0.274 OA
ATOM      3  O   UNL     1       0.337  -3.560   0.526  0.00  0.00    -0.252 OA
ATOM      4  N   UNL     1      -0.569  -1.891  -0.771  0.00  0.00    -0.239 N 
ATOM      5  N   UNL     1       0.717  -1.372   1.121  0.00  0.00    -0.239 N 
ATOM      6  C   UNL     1       0.111   0.440  -0.418  0.00  0.00    +0.142 C 
ATOM      7  C   UNL     1      -0.803  -0.567  -1.109  0.00  0.00    +0.237 C 
ATOM      8  C   UNL     1       0.602   0.000   0.958  0.00  0.00    +0.237 C 
ATOM      9  C   UNL     1       0.187  -2.358   0.298  0.00  0.00    +0.312 C 
ATOM     10  H   UNL     1      -0.982  -2.573  -1.349  0.00  0.00    +0.159 HD
ATOM     11  H   UNL     1       1.228  -1.681   1.904  0.00  0.00    +0.159 HD
ENDROOT
BRANCH   6  12
ATOM     12  C   UNL     1      -0.610   1.790  -0.298  0.00  0.00    +0.018 C 
BRANCH  12  13
ATOM     13  C   UNL     1      -1.947   1.694   0.446  0.00  0.00    +0.001 C 
ATOM     14  C   UNL     1      -2.919   0.716  -0.215  0.00  0.00    +0.000 C 
ATOM     15  C   UNL     1      -1.692   1.271   1.895  0.00  0.00    +0.000 C 
ENDBRANCH  12  13
ENDBRANCH   6  12
BRANCH   6  16
ATOM     16  C   UNL     1       1.355   0.605  -1.309  0.00  0.00    +0.043 C 
BRANCH  16  17
ATOM     17  C   UNL     1       2.345   1.522  -0.671  0.00  0.00    -0.025 C 
ATOM     18  C   UNL     1       3.586   1.155  -0.334  0.00  0.00    -0.005 C 
ENDBRANCH  16  17
ENDBRANCH   6  16
TORSDOF 4
