REMARK  Name = 443387
REMARK  4 active torsions:
REMARK  status: ('A' for Active; 'I' for Inactive)
REMARK    1  A    between atoms: N_2  and  CA_15
REMARK    2  A    between atoms: CA_6  and  C_25
REMARK    3  A    between atoms: CA_16  and  C_22
REMARK    4  A    between atoms: C_22  and  O_23
REMARK                            x       y       z     vdW  Elec       q    Type
REMARK                         _______ _______ _______ _____ _____    ______ ____
ROOT
ATOM      1  O   UNL     1       0.382  -0.177   1.372  0.00  0.00    -0.277 OA
ATOM      2  N   UNL     1       0.443   1.738   0.014  0.00  0.00    -0.293 N 
ATOM      3  N   UNL     1       2.692   1.764  -0.454  0.00  0.00    +0.406 N 
ATOM      4  C   UNL     1       1.470   2.572  -0.573  0.00  0.00    +0.020 C 
ATOM      5  C   UNL     1       0.983   0.682   0.743  0.00  0.00    +0.208 C 
ATOM      6  CA  UNL     1       2.486   0.808   0.642  0.00  0.00    +0.043 C 
ATOM      7  C   UNL     1       1.226   2.843  -2.059  0.00  0.00    -0.002 C 
ATOM      8  C   UNL     1       1.628   3.889   0.200  0.00  0.00    -0.002 C 
ATOM      9  H1  UNL     1       3.489   2.365  -0.245  0.00  0.00    -0.081 HD
ATOM     10  H2  UNL     1       2.883   1.272  -1.327  0.00  0.00    -0.081 HD
ENDROOT
BRANCH   2  15
ATOM     11  S   UNL     1      -0.988  -0.389  -1.681  0.00  0.00    -0.118 S 
ATOM     12  O   UNL     1      -1.837   1.424   2.244  0.00  0.00    -0.273 OA
ATOM     13  N   UNL     1      -2.538   0.621   0.138  0.00  0.00    -0.260 N 
ATOM     14  C   UNL     1      -1.821   1.111  -1.043  0.00  0.00    +0.151 C 
ATOM     15  CA  UNL     1      -1.007   2.005  -0.099  0.00  0.00    +0.179 C 
ATOM     16  CA  UNL     1      -2.788  -0.800   0.270  0.00  0.00    +0.184 C 
ATOM     17  C   UNL     1      -2.372  -1.469  -1.058  0.00  0.00    +0.068 C 
ATOM     18  C   UNL     1      -1.848   1.385   1.035  0.00  0.00    +0.247 C 
ATOM     19  C   UNL     1      -3.471  -1.493  -2.130  0.00  0.00    +0.013 C 
ATOM     20  C   UNL     1      -1.835  -2.882  -0.826  0.00  0.00    +0.013 C 
BRANCH  16  22
ATOM     21  OXT UNL     1      -5.035  -0.051   0.737  0.00  0.00    -0.248 OA
ATOM     22  C   UNL     1      -4.226  -0.962   0.645  0.00  0.00    +0.333 C 
BRANCH  22  23
ATOM     23  O   UNL     1      -4.517  -2.266   0.875  0.00  0.00    -0.479 OA
ATOM     24  H   UNL     1      -3.849  -2.918   0.787  0.00  0.00    +0.295 HD
ENDBRANCH  22  23
ENDBRANCH  16  22
ENDBRANCH   2  15
BRANCH   6  25
ATOM     25  C   UNL     1       3.183  -0.506   0.396  0.00  0.00    -0.033 C 
ATOM     26  C   UNL     1       3.601  -1.291   1.473  0.00  0.00    -0.006 C 
ATOM     27  C   UNL     1       3.412  -0.945  -0.911  0.00  0.00    -0.006 C 
ATOM     28  C   UNL     1       4.245  -2.507   1.246  0.00  0.00    -0.000 C 
ATOM     29  C   UNL     1       4.057  -2.161  -1.138  0.00  0.00    -0.000 C 
ATOM     30  C   UNL     1       4.473  -2.942  -0.060  0.00  0.00    -0.000 C 
ENDBRANCH   6  25
TORSDOF 4
