REMARK  Name = 2761171
REMARK  3 active torsions:
REMARK  status: ('A' for Active; 'I' for Inactive)
REMARK    1  A    between atoms: C_2  and  C_12
REMARK    2  A    between atoms: C_4  and  C_8
REMARK    3  A    between atoms: C_8  and  N_9
REMARK                            x       y       z     vdW  Elec       q    Type
REMARK                         _______ _______ _______ _____ _____    ______ ____
ROOT
ATOM      1  N   UNL     1      -1.634   1.306  -0.002  0.00  0.00    -0.248 NA
ATOM      2  C   UNL     1      -1.445   0.001   0.296  0.00  0.00    +0.059 C 
ATOM      3  C   UNL     1      -0.205  -0.619   0.314  0.00  0.00    +0.016 C 
ATOM      4  C   UNL     1       0.911   0.150   0.005  0.00  0.00    +0.022 C 
ATOM      5  C   UNL     1       0.756   1.497  -0.307  0.00  0.00    +0.022 C 
ATOM      6  C   UNL     1      -0.526   2.022  -0.296  0.00  0.00    +0.099 C 
ENDROOT
BRANCH   4   8
ATOM      7  S   UNL     1       2.568  -2.069  -0.357  0.00  0.00    -0.035 S 
ATOM      8  C   UNL     1       2.235  -0.450   0.008  0.00  0.00    +0.078 C 
BRANCH   8   9
ATOM      9  N   UNL     1       3.291   0.392   0.333  0.00  0.00    -0.352 N 
ATOM     10  H   UNL     1       4.211   0.043   0.352  0.00  0.00    +0.143 HD
ATOM     11  H   UNL     1       3.119   1.338   0.544  0.00  0.00    +0.143 HD
ENDBRANCH   8   9
ENDBRANCH   4   8
BRANCH   2  12
ATOM     12  C   UNL     1      -2.665  -0.794   0.622  0.00  0.00    +0.046 C 
ATOM     13  C   UNL     1      -3.286  -1.435  -0.616  0.00  0.00    +0.007 C 
ENDBRANCH   2  12
TORSDOF 3
