REMARK  Name = 2727
REMARK  4 active torsions:
REMARK  status: ('A' for Active; 'I' for Inactive)
REMARK    1  A    between atoms: S_1  and  C_5
REMARK    2  A    between atoms: S_1  and  N_12
REMARK    3  A    between atoms: N_13  and  C_17
REMARK    4  A    between atoms: C_17  and  C_18
REMARK                            x       y       z     vdW  Elec       q    Type
REMARK                         _______ _______ _______ _____ _____    ______ ____
ROOT
ATOM      1  S   UNL     1       0.393   2.088   0.151  0.00  0.00    +0.077 S 
ATOM      2  O   UNL     1       0.225   2.619  -1.188  0.00  0.00    -0.150 OA
ATOM      3  O   UNL     1       0.882   2.934   1.222  0.00  0.00    -0.150 OA
ENDROOT
BRANCH   1   5
ATOM      4 CL   UNL     1       4.250  -2.828  -0.174  0.00  0.00    -0.082 Cl
ATOM      5  C   UNL     1       1.482   0.699   0.059  0.00  0.00    +0.125 C 
ATOM      6  C   UNL     1       1.590   0.002  -1.132  0.00  0.00    +0.021 C 
ATOM      7  C   UNL     1       2.208   0.334   1.180  0.00  0.00    +0.021 C 
ATOM      8  C   UNL     1       2.450  -1.094  -1.204  0.00  0.00    +0.013 C 
ATOM      9  C   UNL     1       3.068  -0.762   1.107  0.00  0.00    +0.013 C 
ATOM     10  C   UNL     1       3.189  -1.476  -0.085  0.00  0.00    +0.058 C 
ENDBRANCH   1   5
BRANCH   1  12
ATOM     11  O   UNL     1      -1.827   0.601  -1.433  0.00  0.00    -0.251 OA
ATOM     12  N   UNL     1      -1.058   1.333   0.647  0.00  0.00    -0.169 N 
ATOM     13  N   UNL     1      -3.076   0.161   0.462  0.00  0.00    -0.288 N 
ATOM     14  C   UNL     1      -1.992   0.681  -0.220  0.00  0.00    +0.319 C 
ATOM     15  H   UNL     1      -1.269   1.347   1.609  0.00  0.00    +0.178 HD
ATOM     16  H   UNL     1      -3.117   0.278   1.438  0.00  0.00    +0.151 HD
BRANCH  13  17
ATOM     17  C   UNL     1      -4.150  -0.547  -0.194  0.00  0.00    +0.091 C 
BRANCH  17  18
ATOM     18  C   UNL     1      -3.889  -2.045  -0.283  0.00  0.00    +0.021 C 
ATOM     19  C   UNL     1      -3.745  -2.700   1.084  0.00  0.00    +0.002 C 
ENDBRANCH  17  18
ENDBRANCH  13  17
ENDBRANCH   1  12
TORSDOF 4
