5754
  -OEChem-07121817333D

 56 59  0     1  0  0  0  0  0999 V2000
    3.1144   -0.2859   -1.9416 O   0  0  0  0  0  0  0  0  0  0  0  0
   -0.2290    2.1443    1.2399 O   0  0  0  0  0  0  0  0  0  0  0  0
    4.3267    1.6729    0.0603 O   0  0  0  0  0  0  0  0  0  0  0  0
    6.7987    0.5839   -0.4649 O   0  0  0  0  0  0  0  0  0  0  0  0
   -6.4227   -0.0344   -1.3444 O   0  0  0  0  0  0  0  0  0  0  0  0
    1.8917    0.1629    0.1439 C   0  0  1  0  0  0  0  0  0  0  0  0
    0.9976   -1.0770   -0.0738 C   0  0  2  0  0  0  0  0  0  0  0  0
   -0.4048   -0.9389    0.5376 C   0  0  1  0  0  0  0  0  0  0  0  0
   -1.1203    0.2887   -0.1144 C   0  0  1  0  0  0  0  0  0  0  0  0
    3.2007   -0.3456   -0.5210 C   0  0  1  0  0  0  0  0  0  0  0  0
    1.2023    1.3572   -0.5469 C   0  0  0  0  0  0  0  0  0  0  0  0
   -2.6188    0.4571    0.3689 C   0  0  2  0  0  0  0  0  0  0  0  0
   -0.2481    1.5819   -0.0645 C   0  0  2  0  0  0  0  0  0  0  0  0
    1.8852   -2.2363    0.3713 C   0  0  0  0  0  0  0  0  0  0  0  0
    3.3025   -1.8232   -0.0778 C   0  0  0  0  0  0  0  0  0  0  0  0
   -1.2196   -2.2201    0.2998 C   0  0  0  0  0  0  0  0  0  0  0  0
    2.1566    0.4723    1.6434 C   0  0  0  0  0  0  0  0  0  0  0  0
   -3.3459   -0.8879    0.2342 C   0  0  0  0  0  0  0  0  0  0  0  0
   -2.6438   -2.0894    0.8180 C   0  0  0  0  0  0  0  0  0  0  0  0
   -3.3005    1.5233   -0.5375 C   0  0  0  0  0  0  0  0  0  0  0  0
   -2.7469    0.8977    1.8447 C   0  0  0  0  0  0  0  0  0  0  0  0
    4.4119    0.4683   -0.1739 C   0  0  0  0  0  0  0  0  0  0  0  0
   -4.8187    1.5076   -0.4589 C   0  0  0  0  0  0  0  0  0  0  0  0
   -4.5569   -1.0370   -0.3282 C   0  0  0  0  0  0  0  0  0  0  0  0
   -5.3417    0.1333   -0.7839 C   0  0  0  0  0  0  0  0  0  0  0  0
    5.7297   -0.2757   -0.1305 C   0  0  0  0  0  0  0  0  0  0  0  0
    0.8473   -1.2116   -1.1581 H   0  0  0  0  0  0  0  0  0  0  0  0
   -0.3282   -0.7923    1.6194 H   0  0  0  0  0  0  0  0  0  0  0  0
   -1.1826    0.0413   -1.1878 H   0  0  0  0  0  0  0  0  0  0  0  0
    1.1651    1.1932   -1.6310 H   0  0  0  0  0  0  0  0  0  0  0  0
    1.7893    2.2693   -0.3873 H   0  0  0  0  0  0  0  0  0  0  0  0
   -0.6965    2.3364   -0.7206 H   0  0  0  0  0  0  0  0  0  0  0  0
    1.5866   -3.1835   -0.0893 H   0  0  0  0  0  0  0  0  0  0  0  0
    1.8513   -2.3707    1.4585 H   0  0  0  0  0  0  0  0  0  0  0  0
    3.9799   -1.9801    0.7680 H   0  0  0  0  0  0  0  0  0  0  0  0
    3.6327   -2.4726   -0.8968 H   0  0  0  0  0  0  0  0  0  0  0  0
   -0.7411   -3.0685    0.8028 H   0  0  0  0  0  0  0  0  0  0  0  0
   -1.2414   -2.4588   -0.7717 H   0  0  0  0  0  0  0  0  0  0  0  0
    2.5932    1.4674    1.7778 H   0  0  0  0  0  0  0  0  0  0  0  0
    1.2472    0.4542    2.2478 H   0  0  0  0  0  0  0  0  0  0  0  0
    2.8417   -0.2458    2.1066 H   0  0  0  0  0  0  0  0  0  0  0  0
   -2.6306   -2.0002    1.9112 H   0  0  0  0  0  0  0  0  0  0  0  0
   -3.1861   -3.0161    0.5933 H   0  0  0  0  0  0  0  0  0  0  0  0
   -3.0152    1.3502   -1.5848 H   0  0  0  0  0  0  0  0  0  0  0  0
   -2.9470    2.5298   -0.2833 H   0  0  0  0  0  0  0  0  0  0  0  0
   -2.0849    0.3299    2.5058 H   0  0  0  0  0  0  0  0  0  0  0  0
   -2.5197    1.9601    1.9758 H   0  0  0  0  0  0  0  0  0  0  0  0
   -3.7681    0.7560    2.2197 H   0  0  0  0  0  0  0  0  0  0  0  0
    3.8725   -0.7647   -2.3175 H   0  0  0  0  0  0  0  0  0  0  0  0
   -5.2240    2.2162   -1.1896 H   0  0  0  0  0  0  0  0  0  0  0  0
   -5.1788    1.7970    0.5334 H   0  0  0  0  0  0  0  0  0  0  0  0
    0.2825    2.9701    1.1999 H   0  0  0  0  0  0  0  0  0  0  0  0
   -5.0341   -2.0073   -0.4142 H   0  0  0  0  0  0  0  0  0  0  0  0
    5.7358   -1.0838   -0.8657 H   0  0  0  0  0  0  0  0  0  0  0  0
    5.8942   -0.6856    0.8696 H   0  0  0  0  0  0  0  0  0  0  0  0
    6.8615    1.2578    0.2335 H   0  0  0  0  0  0  0  0  0  0  0  0
  1 10  1  0  0  0  0
  1 49  1  0  0  0  0
  2 13  1  0  0  0  0
  2 52  1  0  0  0  0
  3 22  2  0  0  0  0
  4 26  1  0  0  0  0
  4 56  1  0  0  0  0
  5 25  2  0  0  0  0
  6  7  1  0  0  0  0
  6 10  1  0  0  0  0
  6 11  1  0  0  0  0
  6 17  1  0  0  0  0
  7  8  1  0  0  0  0
  7 14  1  0  0  0  0
  7 27  1  0  0  0  0
  8  9  1  0  0  0  0
  8 16  1  0  0  0  0
  8 28  1  0  0  0  0
  9 12  1  0  0  0  0
  9 13  1  0  0  0  0
  9 29  1  0  0  0  0
 10 15  1  0  0  0  0
 10 22  1  0  0  0  0
 11 13  1  0  0  0  0
 11 30  1  0  0  0  0
 11 31  1  0  0  0  0
 12 18  1  0  0  0  0
 12 20  1  0  0  0  0
 12 21  1  0  0  0  0
 13 32  1  0  0  0  0
 14 15  1  0  0  0  0
 14 33  1  0  0  0  0
 14 34  1  0  0  0  0
 15 35  1  0  0  0  0
 15 36  1  0  0  0  0
 16 19  1  0  0  0  0
 16 37  1  0  0  0  0
 16 38  1  0  0  0  0
 17 39  1  0  0  0  0
 17 40  1  0  0  0  0
 17 41  1  0  0  0  0
 18 19  1  0  0  0  0
 18 24  2  0  0  0  0
 19 42  1  0  0  0  0
 19 43  1  0  0  0  0
 20 23  1  0  0  0  0
 20 44  1  0  0  0  0
 20 45  1  0  0  0  0
 21 46  1  0  0  0  0
 21 47  1  0  0  0  0
 21 48  1  0  0  0  0
 22 26  1  0  0  0  0
 23 25  1  0  0  0  0
 23 50  1  0  0  0  0
 23 51  1  0  0  0  0
 24 25  1  0  0  0  0
 24 53  1  0  0  0  0
 26 54  1  0  0  0  0
 26 55  1  0  0  0  0
M  END
> <DATABASE_ID>
DB00741

> <DATABASE_NAME>
drugbank

> <ORIGINAL_SOURCE>
PUBCHEM

> <ORIGINAL_SOURCE_URL>
https://pubchem.ncbi.nlm.nih.gov/rest/pug/compound/inchikey/JYGXADMDTFJGBT-VWUMJDOOSA-N/SDF?record_type=3d

> <SMILES>
[H][C@@]12CC[C@](O)(C(=O)CO)[C@@]1(C)C[C@H](O)[C@@]1([H])[C@@]2([H])CCC2=CC(=O)CC[C@]12C

> <INCHI_IDENTIFIER>
InChI=1S/C21H30O5/c1-19-7-5-13(23)9-12(19)3-4-14-15-6-8-21(26,17(25)11-22)20(15,2)10-16(24)18(14)19/h9,14-16,18,22,24,26H,3-8,10-11H2,1-2H3/t14-,15-,16-,18+,19-,20-,21-/m0/s1

> <INCHI_KEY>
JYGXADMDTFJGBT-VWUMJDOOSA-N

> <FORMULA>
C21H30O5

> <MOLECULAR_WEIGHT>
362.4599

> <EXACT_MASS>
362.20932407

> <JCHEM_ACCEPTOR_COUNT>
5

> <JCHEM_ATOM_COUNT>
56

> <JCHEM_AVERAGE_POLARIZABILITY>
39.44944821309214

> <JCHEM_BIOAVAILABILITY>
1

> <JCHEM_DONOR_COUNT>
3

> <JCHEM_FORMAL_CHARGE>
0

> <JCHEM_GHOSE_FILTER>
1

> <JCHEM_IUPAC>
(1R,3aS,3bS,9aR,9bS,10S,11aS)-1,10-dihydroxy-1-(2-hydroxyacetyl)-9a,11a-dimethyl-1H,2H,3H,3aH,3bH,4H,5H,7H,8H,9H,9aH,9bH,10H,11H,11aH-cyclopenta[a]phenanthren-7-one

> <ALOGPS_LOGP>
1.79

> <JCHEM_LOGP>
1.2751664346666671

> <ALOGPS_LOGS>
-3.26

> <JCHEM_MDDR_LIKE_RULE>
0

> <JCHEM_NUMBER_OF_RINGS>
4

> <JCHEM_PHYSIOLOGICAL_CHARGE>
0

> <JCHEM_PKA>
13.870324099364762

> <JCHEM_PKA_STRONGEST_ACIDIC>
12.586158967791423

> <JCHEM_PKA_STRONGEST_BASIC>
-2.846864231895191

> <JCHEM_POLAR_SURFACE_AREA>
94.83000000000001

> <JCHEM_REFRACTIVITY>
97.39999999999998

> <JCHEM_ROTATABLE_BOND_COUNT>
2

> <JCHEM_RULE_OF_FIVE>
1

> <ALOGPS_SOLUBILITY>
1.99e-01 g/l

> <JCHEM_TRADITIONAL_IUPAC>
hydrocortisone

> <JCHEM_VEBER_RULE>
0

> <DRUGBANK_ID>
DB00741

> <SECONDARY_ACCESSION_NUMBERS>
APRD01019; DB07886

> <DRUG_GROUPS>
approved; vet_approved

> <GENERIC_NAME>
Hydrocortisone

> <SYNONYMS>
(11β)-11,17,21-trihydroxypregn-4-ene-3,20-dione; 11beta-hydrocortisone; 11beta,17alpha,21-Trihydroxy-4-pregnene-3,20-dione; 11β-hydrocortisone; 17-Hydroxycorticosterone; 4-pregnen-11β,17α,21-triol-3,20-dione; Cortisol; Hidrocortisona; Hydrocortisone; Hydrocortisonum; Kendall's compound F; Reichstein's substance M

> <PRODUCTS>
1% Hydrocortisone; 999 Itch Relieving; A-hydrocort Inj 1000mg/8ml; A-hydrocort Inj 100mg/2ml; A-hydrocort Inj 250mg/2ml; A-hydrocort Inj 500mg/4ml; AFASSCO 1% Hydrocortisone; ATOPALM Moisturizing Hydrocortisone; AVON HeXashield Anti Itch Cream with Healing Aloe; Acetasol HC; Advanced Hydrocortisone; Ala Quin; Alacort; Alcortin; Aloe Cort; Aloe Cort Calming Cream; Ana Cool Rapid Soothing Cooling Formula; Anti Itch; Anti Itch Maximum Strength; Anti Itch Maximum Strength Plus; Anti itch; Anti-Itch; Anti-Itch Scalp Relief Maximum Strength; Anti-Itch Scherer Labs; Anti-itch; Anti-itch Feminine Care; Antibiotic Ear (Neo/Polym/HC); Anusol HC; Apres Peel Soothing Balm; Aquacort Lotion 2.5%; Aquanil HC; Assured; Atopalm Maximum Strength Anti-Itch; Audiologist Anti-itch; Avedana Hydrocortisone Cream with Aloe; Aveeno Hydrocortisone ANTI-ITCH; Aveeno Hydrocortisone Anti Itch; Aveeno Hydrocortisone Anti-itch Cream; Barmicil Anti-itch; Barriere HC 1%; Basic Care Hydrocortisone; Beard Medicated Cremo; Bencort; Berkley and Jensen Anti Itch; Berkley and Jensen Hydrocortisone; Bioelements Immediate Comfort Hydrocortisone; Blue-Emu Anti-Itch Cream; BudPak Anti-Itch; CVS Anti itch; CVS Anti-Itch Hydrocortisone; CVS Cools Itch Fast; CVS Cortisone; CVS Health Hydrocortisone Anti Itch; CVS Health Maxium Strentgh Cortisone; CVS Maximum Strength Feminine Anti-Itch Cream; CVS Pharmacy Anti-itch; Caldecort; Calmurid HC Crm; Care One Hydrocortisone Maximum Strength; Care One hydrocortisone maximum strength; CareOne Anti Itch; Careone Anti Itch; Careone Hydrocortisone 1 Maximum Strength; Casporyn HC; CeraVe Anti-Itch; CeraVe Developed with Dermatologists Anti Itch; Cho-A Care Lot 1%; Cicatricure Ultra Moisturizing; Cipro; Cipro HC; Cipro HC Otic Suspension; Clindamycin 1% / Hydrocortisone 2.5% / Niacinamide 4%; Colocort; Cooling Itch Relief; Cooling Itch Relief Rite Aid; Cooling Itch Relief Well at Walgreens; Cortaid 12-Hour Advanced Anti-Itch; Cortaid Intensive Therapy Cooling; Cortaid Maximum Strength; Cortaine -B Aqueous; Cortane-B; Cortate Crm 1%; Cortate Ont 1%; Cortef; Cortef Tablets 10mg; Cortef Tablets 20 mg; Cortenema; Cortenema Sus 100mg/60ml; Cortibalm; Cortisone; Cortisone Cream Intensive Healing; Cortisone Maximum Strength; Cortisone Plus Aloe Maximum Strength; Cortisone maximum strength; Cortisporin; Cortisporin Ophthalmic; Cortizone 10; Cortizone 10 Anti-itch for Diabetics Skin; Cortizone 10 Cooling Cream Anti-Itch; Cortizone 10 Cooling Relief; Cortizone 10 Easy Relief; Cortizone 10 Hydratensive Healing Anti Itch; Cortizone 10 Hydratensive Soothing Anti Itch; Cortizone 10 Intensive Healing; Cortizone 10 Intensive Healing Feminine Itch Relief; Cortizone 10 Intensive Healing for Eczema; Cortizone 10 Plus; Cortizone 10 Poison Ivy Relief Pads; Cortizone 10 for Psoriasis; Cortomycin; Cvs Hydrocortisone With Aloe; DG Health Hydrocortisone; DG Health Hydrocortisone Maximum Strength; DermaCort Anti-itch; Dermaquest Skin Therapy Post-Skin Resurfacing Balm; Dermarest Dricort 0.5% Hydrocortisone Anti-itch; Dermarest Eczema Medicated; Dermasorb AF Complete Kit; Dermazene; Dermoscribe Ichybum; Dermoscribe Seborrheic Dermatitis; Discount Drug Mart Anti-itch; Dr H Stabilizer; Dr. Sheffield Hydrocortisone Anti itch; Dr. Throwers Hydrotet; Duane Reade; Duane Reade hydrocortisone; Duane Reade hydrocortisone plus 12 moisturizers; ECOLAB Hydrocortisone Cream; Eczema Skin Mushatts N9; Emo Cort Cream 2.5%; Emo Cort Lotion 2.5%; Emo Cort Sol 2.5% USP; Equaline Anti Itch; Equaline Anti Itch Maximum Strength; Equate Hydrocortisone; Equate Hydrocortisone Intensive Healing Formula; Exchange Select Hydrocortisone; FIRST Dukes Mouthwash Compounding; FIRST Marys Mouthwash Compounding; Face Values Hydrocortisone With Aloe; Family Care Anti-Itch; Family Care Hydrocortisone; Family Wellness; Family Wellness Hydrocortisone; Family Wellness Maximum Strength Hydrocortisone; FixMySkin Healing Balm Fragrance-Free; FixMySkin Healing Balm Unflavored; FixMySkin Healing Balm Vanilla Flavor; FixMySkin Healing Balm Vanilla Fragrance; Formu Care Anti Itch maximum strength; Freds Hydrocortisone Plus 12 Moisturizers; Freds Hydrocortisone with Aloe; Fulton Street Market Anti itch; Glytone soothe calming; Good Neighbor Pharmacy Anti Itch; Good Neighbor Pharmacy Hydrocortisone; Good Neighbor Pharmacy Hydrocortisone Plus 12 Moisturizers; Good Neighbor Pharmacy Hydrocortisone With Aloe for Sensitive Skin; Good Neighbor Pharmacy Hydrocortisone with Aloe; Good Sense Anti Itch; Green Guard Maximum Strength Hydrocortisone; H-Releve Anti-Itch; HEM-EASY RELIEF Herbal Anti-Itch MAXIMUM ITCH RELIEF; Harris Teeter Anti-Itch; Harris Teeter Anti-Itch Cooling Relief; Harris Teeter Anti-Itch Intensive Healing; Harris Teeter Anti-Itch with Aloe; Harris Teeter Maximum Strength Anti-Itch; Healerz for Itches; Health Mart Pharmacy Hydrocortisone Maximum Strength Plus 12 Moisturizers; Health Mart Pharmacy Hydrocortisone Maximum Strength with Aloe; Healthy Accents Cortisone Maximum Strength; Hemorrodil Unguento Plus; Home PapKit; Hycort Retention Enema 100mg/60ml; Hydro Ear; Hydro Skin; HydroCortisone Intensive Healing Formula; HydroSKIN; HydroSkin; Hydrocortisone; Hydrocortisone 0.5% / Hydroquinone 4% / Tretinoin 0.025%; Hydrocortisone 0.5% / Hydroquinone 6%; Hydrocortisone 0.5% / Hydroquinone 6% / Tretinoin 0.025%; Hydrocortisone 0.5% / Hydroquinone 6% / Tretinoin 0.05%; Hydrocortisone 0.5% / Hydroquinone 8% / Tretinoin 0.025%; Hydrocortisone 0.5% / Hydroquinone 8% / Tretinoin 0.05%; Hydrocortisone 1; Hydrocortisone 1 Plus 10; Hydrocortisone 1%; Hydrocortisone 1% / Hydroquinone 8% / Tretinoin 0.05%; Hydrocortisone 1% in Absorbase; Hydrocortisone 1% with healing aloe; Hydrocortisone 2.5% / Hydroquinone 4% / Tretinoin 0.025%,; Hydrocortisone 2.5% / Iodoquinol 1% / Ketoconazole 2%; Hydrocortisone 2.5% / Ketoconazole 2%; Hydrocortisone 2.5% / Levocetirizine Dihydrochloride 2%; Hydrocortisone Anti Itch; Hydrocortisone Anti-Itch; Hydrocortisone Butyrate; Hydrocortisone Cream; Hydrocortisone Cream 0.5%; Hydrocortisone Cream 0.5% USP; Hydrocortisone Cream 1%; Hydrocortisone Cream Intensive Healing; Hydrocortisone Cream USP 0.5%; Hydrocortisone Crm 0.5%; Hydrocortisone Crm 1%; Hydrocortisone D; Hydrocortisone HC; Hydrocortisone Iodoquinol; Hydrocortisone Maximum Strength; Hydrocortisone Maximum Strength with Aloe; Hydrocortisone Maximum Strength with aloe; Hydrocortisone Micro; Hydrocortisone Ointment 0.5%; Hydrocortisone Ointment 1%; Hydrocortisone Plus; Hydrocortisone Plus 10 Moisturizers; Hydrocortisone Plus 12 Moisturizers; Hydrocortisone Plus 12 Moisturizers Maximum Strength; Hydrocortisone Regular Strength; Hydrocortisone Sodium Succinate Injection; Hydrocortisone Sodium Succinate for Injection; Hydrocortisone Ultra Strength; Hydrocortisone With Aloe; Hydrocortisone With Aloe Maximum Strength; Hydrocortisone and Acetic Acid; Hydrocortisone anti-itch plus; Hydrocortisone maximum strength; Hydrocortisone with Aloe; Hydrocortisone with Aloe Maximum Strength; Hydrocortisone, Iodoquinol; HydrocortisoneLotion; Hytone; Insect Bite Relief; Instant Cooling Itch Relief; Instant Cooling Itch Relief CVS; Intensive Healing Anti Itch; Intensive Healing Eczema; Itch Relief; Itch Stuff; Itch and Bite Relief First Aid Kit; Itch and Rash Cream; Itch relief Cream; KAISER PERMANENTE Hydrocortisone; Kera HC; Ketocon; Kirkland Signature Hydrocortisone Plus Maximum Strength; Leader Hydrocortisone; Leader Hydrocortisone With Aloe; Live Better Hydrocortisone with Aloe; Loesch Anti-Itch Therapy; Loesch HC-10 ANTI-ITCH THERAPY; Lucky SuperSoft MAXIMUM STRENGTH; Makesense Maximum Strength; Market Basket Anti-Itch Cream Plus; Maximum Strength Anti-Itch; Maximum Strength Cortisone; Maximum Strength Cortisone Cream with Aloe; Maximum Strength Cortizone 10 Quick Shot 360 Continuous; Maximum Strength Gold Bond Medicated Anti-itch Cream Intensive Formula; Maximum Strength Hydrocortisone; Maximum Strength Hydrocortisone Cream; Maximum Strength Hydrocortisone Cream with Aloe; Maximum-H; Medi-Cortisone with Aloe; Medi-First; Medi-First Hydrocortisone; Medi-First Plus Hydrocortisone; Meijer Anti Itch; Meijer Anti Itch Cream Plus; Meijer Anti-itch with Aloe; Meijer Intense Healing; Members Mark Hydrocortisone; Monistat Complete Care Instant Itch Relief; Monistat Soothing Care Itch Relief; NEOMYCIN and POLYMYXIN B SULFATES and HYDROCORTISONE; NU-DERM Tolereen Anti-pruritic; Natureplex Hydrocortisone Hydro; Neo-poly-bac Hydro; Neomycin and Polymyxin B Sulfates and Hydrocortisone; Neomycin and Polymyxin B Sulfates, Bacitracin Zinc and Hydrocortisone; Neomycin and Polymyxin B Sulfates, Bacitracin Zinc, and Hydrocortisone; Neomycin, Polymyxin B Sulfates and Hydrocortisone; Neosporin Eczema Essentials Anti Itch; Neosporin Essentials Trial Pack; OLIVIA QUIDO FIRM and FADE I; OLIVIA QUIDO FIRM and FADE II; OLP Hydrocortisone 1%; Odan-spor-HC; Oti Rx; Oticin HC Ear Drops; Otizol HC Liq; Oto End 10; Our Family Hydrocortisone with Aloe; Pediaderm HC; Pediotic; Petrocort Antipruritic Lip 21; Pharmaskincare Acnecare Cream; Pharmaskincare Brightening Dermarelief Cream; Pharmaskincare Multi-Gly Skin Relief Cream; Piyanping antiitch; Poison Oak; Post Treatment Balm; Post peel Protectant Vitality Institute; Pramox HC Cream; Pramox HC Lotion; Pramoxine-HC; Premier Value Hydrocortisone; Premier Value Hydrocortisone Plus 12 Moisturizers; Preparation H Hydrocortisone; ProCure Hydrocortisone Plus Calendula; Proactiv Solution Anti-Itch Scalp; Procto-Med HC; Procto-Pak; Proctocort; Proctocream HC; Proctol Ointment; Proctol Suppositories; Proctosedyl; Proctosedyl Ointment; Proctosedyl Sup; Proctosedyl Suppositories; Proctosol-HC; Proctozone HC; Proctozone-HC; Psoriasin Itch Control; Publix Hydro; Publix hydro plus; Quadrydern; Quality Choice Anti Itch; Quality Choice Anti Itch with Aloe; Quality Choice Anti-Itch; Quality Choice Hydrocortisone; Quality Choice Hydrocortisone Maximum Strength; Quality Choice Itch Relief; Quality Choice Maximum Strength Anti Itch; Quatriderm Anti-itch; Rectocort Ont; Rectocort Sup; Refuge HC; Regular Strength Hydrocortisone Cream; Rephresh Cooling; Rexall Anti Itch Maximum Strength Relief; Rexall Hydrocortisone 1; Rexall Hydrocortisone Plus Moisturizers; Rite Aid anti-itch; Rodan and Fields Soothe; Rugby Hydroskin; SAFEWAY Hydrocortisone Plus 12 Moisturizers; Sandoz Cortimyxin; Sandoz Hydrocortisone; Sandoz Proctomyxin HC; Sandoz Proctomyxin HC Suppositories; Sarna HC; Scalpicin Anti-Itch Maximum Strength; Scalpicin Maximum Strength; Scalpicin Scalp Itch Medication Maximum Strength; Scarguard MD; Scarguard MD Physicians Formula; Schein Hydrocortisone; SeaCalm Skin Itch Relief Instant Cooling; Selsun Blue Scalp Itch Treatment; ShopRite Hydrocortisone; Shopko Hydrocortisone; Shopko Hydrocortisone Intensive Healing Formula; Shopko Hydrocortisone Maximum Strength; Shopko Hydrocortisone Plus 12 Moisturizers Maximum Strength; Shopko Hydrocortisone With Aloe; Shopko Maximum Strength; Shoprite Hydrocortisone; Signature Care Anti Itch; Signature Care Hydrocortisone; Smart Sense Anti Itch; Smart Sense Anti Itch Maximum Strength; Smart Sense Hydrocortisone; Smart sense Hydrocortisone; Solu-cortef 1 Gm Act-O-vial; Solu-cortef 100 Mg Act-O-vial; Solu-cortef 250 Mg Act-O-vial; Solu-cortef 500 Mg Act-O-vial; Soothe Rodan Fields; Sterex Crm Plus; Sterex Lot Plus; Sunmark Hydrocortisone Plus; Sunmark Hydrocortisone with Aloe Maximum Strength; Tecnu Corticool; Teva-proctosone; Texacort; Texacort Solution 1%; Thera Plus; Theracort; Theraplex AIM Anti-Itch Moisturizing Cream; Ti-U-lac HC Lotion; TopCare Hydrocortisone; TopCare Hydrocortisone 1% with Aloe; TopCare Hydrocortisone Intensive Healing Formula; TopCare Hydrocortisone Plus 12 Moisturizers; Triple Antibiotic HC; TrueLipids Anti-Itch Barrier; UEC Medical Anti-Itch; Up and Up Anti Itch; Up and Up Hydrocortisone; Up and Up Hydrocortisone One Per Cent; Up and Up Intensive Healing; Up and Up anti itch; Up and Up anti itch maximum strength; Vanoxide HC; Viniferamine Hydrocortisone Cream; Vioform + Hydrocortisone; Vioform Hydrocortisone; Vioform Hydrocortisone Mild; Walgreens Hydrocortisone Plus 12 Moisturizers; Weeks and Leo Anti-itch; Welly Human Repair Kit; Welly Itch Fix; Welly Superhero Supplies Kit; Western Family HydroCortisone; Western Family HydroCortisone Plus 12 Moisturizers; WinCo Maximum Strength Hydrocortisone; Xerese; Yes To Coconut Eczema Relief; Zims Advanced Crack Creme With Hydrocortisone; Zims Advanced Hydrocortisone Continuous With Organic Arnica and Aloe; glo SKIN BEAUTY Remedy Gel; hydrocortisone Iodoquinol; meijer Hydrocortisone; meijer Hydrocortisone Plus 12 Moisturizers; meijer Itch and Rash Relief; signature care Hydrocortisone; sunmark Hydrocortisone

> <INTERNATIONAL_BRANDS>
Acticort; Aeroseb HC; Ala-Scalp; Algicirtis; Beta-HC; Cetacort; Cortaid; Delacort; Ficortril; Genacort; Glycort; Komed HC; Lacticare HC; Lubricort; Meusicort; Mildison; Nogenic HC; Nutracort; Penecort; Permicort; Polcort H; Preparation H Hydrocortisone Cream; Prevex HC; Proctocream; Remederm HC; Sanatison; Scalpicin Capilar; Schericur; Sigmacort; Synacort; Systral Hydrocort; Timocort

$$$$
