REMARK  Name = 7029
REMARK  5 active torsions:
REMARK  status: ('A' for Active; 'I' for Inactive)
REMARK    1  A    between atoms: C_1  and  C_4
REMARK    2  A    between atoms: C_1  and  N_11
REMARK    3  A    between atoms: C_4  and  C_5
REMARK    4  A    between atoms: N_11  and  C_13
REMARK    5  A    between atoms: N_11  and  C_15
REMARK                            x       y       z     vdW  Elec       q    Type
REMARK                         _______ _______ _______ _____ _____    ______ ____
ROOT
ATOM      1  C   UNL     1       1.290  -0.529   0.833  0.00  0.00    +0.006 C 
ATOM      2  C   UNL     1       2.424  -1.542   0.933  0.00  0.00    -0.015 C 
ENDROOT
BRANCH   1   4
ATOM      3  O   UNL     1      -0.085  -2.457   0.374  0.00  0.00    -0.294 OA
ATOM      4  C   UNL     1      -0.018  -1.234   0.489  0.00  0.00    +0.154 C 
BRANCH   4   5
ATOM      5  C   UNL     1      -1.253  -0.425   0.267  0.00  0.00    +0.033 C 
ATOM      6  C   UNL     1      -1.389   0.767   0.939  0.00  0.00    +0.003 C 
ATOM      7  C   UNL     1      -2.207  -0.905  -0.602  0.00  0.00    +0.003 C 
ATOM      8  C   UNL     1      -2.544   1.522   0.732  0.00  0.00    +0.000 C 
ATOM      9  C   UNL     1      -3.361  -0.149  -0.809  0.00  0.00    +0.000 C 
ATOM     10  C   UNL     1      -3.529   1.064  -0.142  0.00  0.00    +0.000 C 
ENDBRANCH   4   5
ENDBRANCH   1   4
BRANCH   1  11
ATOM     11  N   UNL     1       1.573   0.418  -0.245  0.00  0.00    +0.393 N 
ATOM     12  H   UNL     1       0.793   1.072  -0.313  0.00  0.00    -0.079 HD
BRANCH  11  13
ATOM     13  C   UNL     1       1.702  -0.283  -1.522  0.00  0.00    -0.077 C 
ATOM     14  C   UNL     1       1.932   0.674  -2.646  0.00  0.00    -0.025 C 
ENDBRANCH  11  13
BRANCH  11  15
ATOM     15  C   UNL     1       2.789   1.177   0.048  0.00  0.00    -0.077 C 
ATOM     16  C   UNL     1       2.677   1.901   1.350  0.00  0.00    -0.025 C 
ENDBRANCH  11  15
ENDBRANCH   1  11
TORSDOF 5
