REMARK  Name = 77999
REMARK  6 active torsions:
REMARK  status: ('A' for Active; 'I' for Inactive)
REMARK    1  A    between atoms: C_1  and  C_18
REMARK    2  A    between atoms: C_4  and  O_7
REMARK    3  A    between atoms: O_7  and  C_8
REMARK    4  A    between atoms: C_8  and  C_9
REMARK    5  A    between atoms: C_9  and  N_10
REMARK    6  A    between atoms: C_18  and  C_23
REMARK                            x       y       z     vdW  Elec       q    Type
REMARK                         _______ _______ _______ _____ _____    ______ ____
ROOT
ATOM      1  C   UNL     1       1.891   0.266   0.188  0.00  0.00    -0.021 C 
ATOM      2  C   UNL     1       1.222   0.380   1.398  0.00  0.00    -0.001 C 
ATOM      3  C   UNL     1       1.404  -0.546  -0.826  0.00  0.00    -0.001 C 
ATOM      4  C   UNL     1      -0.460  -1.152   0.587  0.00  0.00    +0.139 C 
ATOM      5  C   UNL     1       0.040  -0.333   1.599  0.00  0.00    +0.037 C 
ATOM      6  C   UNL     1       0.222  -1.259  -0.625  0.00  0.00    +0.037 C 
ENDROOT
BRANCH   4   7
ATOM      7  O   UNL     1      -1.613  -1.849   0.783  0.00  0.00    -0.474 OA
BRANCH   7   8
ATOM      8  C   UNL     1      -2.580  -1.271   1.659  0.00  0.00    +0.227 C 
BRANCH   8   9
ATOM      9  C   UNL     1      -3.972  -1.703   1.230  0.00  0.00    +0.140 C 
BRANCH   9  10
ATOM     10  N   UNL     1      -4.245  -1.233  -0.108  0.00  0.00    -0.288 N 
ATOM     11  C   UNL     1      -3.907  -2.102  -1.237  0.00  0.00    +0.114 C 
ATOM     12  N   UNL     1      -5.035   0.433  -1.616  0.00  0.00    -0.229 NA
ATOM     13  C   UNL     1      -4.808   0.029  -0.339  0.00  0.00    +0.132 C 
ATOM     14  C   UNL     1      -5.111   0.817   0.769  0.00  0.00    +0.034 C 
ATOM     15  C   UNL     1      -5.671   2.072   0.557  0.00  0.00    +0.004 C 
ATOM     16  C   UNL     1      -5.580   1.659  -1.783  0.00  0.00    +0.100 C 
ATOM     17  C   UNL     1      -5.913   2.509  -0.740  0.00  0.00    +0.021 C 
ENDBRANCH   9  10
ENDBRANCH   8   9
ENDBRANCH   7   8
ENDBRANCH   4   7
BRANCH   1  18
ATOM     18  C   UNL     1       3.168   1.036  -0.029  0.00  0.00    +0.047 C 
BRANCH  18  23
ATOM     19  S   UNL     1       4.883  -0.937  -0.892  0.00  0.00    -0.048 S 
ATOM     20  O   UNL     1       5.590   2.087   1.399  0.00  0.00    -0.274 OA
ATOM     21  O   UNL     1       7.347  -0.753  -1.791  0.00  0.00    -0.263 OA
ATOM     22  N   UNL     1       6.650   0.761  -0.172  0.00  0.00    -0.246 N 
ATOM     23  C   UNL     1       4.389   0.243   0.401  0.00  0.00    +0.137 C 
ATOM     24  C   UNL     1       5.584   1.143   0.617  0.00  0.00    +0.239 C 
ATOM     25  C   UNL     1       6.507  -0.297  -1.030  0.00  0.00    +0.279 C 
ATOM     26  H   UNL     1       7.506   1.245  -0.118  0.00  0.00    +0.158 HD
ENDBRANCH  18  23
ENDBRANCH   1  18
TORSDOF 6
