REMARK  Name = 18283
REMARK  3 active torsions:
REMARK  status: ('A' for Active; 'I' for Inactive)
REMARK    1  A    between atoms: N_3  and  C_12
REMARK    2  A    between atoms: C_13  and  C_16
REMARK    3  A    between atoms: C_16  and  O_17
REMARK                            x       y       z     vdW  Elec       q    Type
REMARK                         _______ _______ _______ _____ _____    ______ ____
ROOT
ATOM      1  O   UNL     1      -1.597  -2.720   0.315  0.00  0.00    -0.252 OA
ATOM      2  O   UNL     1      -3.940   1.230   0.078  0.00  0.00    -0.270 OA
ATOM      3  N   UNL     1      -0.410  -0.741  -0.026  0.00  0.00    -0.215 N 
ATOM      4  N   UNL     1      -2.753  -0.743   0.194  0.00  0.00    -0.236 N 
ATOM      5  C   UNL     1      -0.451   0.630  -0.181  0.00  0.00    +0.072 C 
ATOM      6  C   UNL     1      -1.574  -1.496   0.170  0.00  0.00    +0.316 C 
ATOM      7  C   UNL     1      -1.581   1.347  -0.159  0.00  0.00    +0.047 C 
ATOM      8  C   UNL     1      -2.868   0.631   0.046  0.00  0.00    +0.250 C 
ATOM      9  C   UNL     1      -1.622   2.832  -0.327  0.00  0.00    +0.037 C 
ATOM     10  H   UNL     1      -3.591  -1.242   0.330  0.00  0.00    +0.159 HD
ENDROOT
BRANCH   3  12
ATOM     11  O   UNL     1       1.722  -0.872   0.983  0.00  0.00    -0.329 OA
ATOM     12  C   UNL     1       0.895  -1.391  -0.073  0.00  0.00    +0.223 C 
ATOM     13  C   UNL     1       2.884  -0.253   0.389  0.00  0.00    +0.168 C 
ATOM     14  C   UNL     1       1.588  -1.065  -1.341  0.00  0.00    +0.022 C 
ATOM     15  C   UNL     1       2.722  -0.418  -1.080  0.00  0.00    +0.005 C 
BRANCH  13  16
ATOM     16  C   UNL     1       2.939   1.203   0.820  0.00  0.00    +0.171 C 
BRANCH  16  17
ATOM     17  O   UNL     1       4.048   1.824   0.192  0.00  0.00    -0.379 OA
ATOM     18  H   UNL     1       4.092   2.755   0.461  0.00  0.00    +0.211 HD
ENDBRANCH  16  17
ENDBRANCH  13  16
ENDBRANCH   3  12
TORSDOF 3
