REMARK  Name = 41693
REMARK  8 active torsions:
REMARK  status: ('A' for Active; 'I' for Inactive)
REMARK    1  A    between atoms: N_1  and  C_22
REMARK    2  A    between atoms: C_2  and  N_9
REMARK    3  A    between atoms: C_2  and  C_19
REMARK    4  A    between atoms: N_9  and  C_11
REMARK    5  A    between atoms: C_10  and  C_17
REMARK    6  A    between atoms: C_19  and  O_20
REMARK    7  A    between atoms: C_22  and  C_23
REMARK    8  A    between atoms: C_23  and  C_25
REMARK                            x       y       z     vdW  Elec       q    Type
REMARK                         _______ _______ _______ _____ _____    ______ ____
ROOT
ATOM      1  N   UNL     1      -1.819   0.125   0.055  0.00  0.00    +0.387 N 
ATOM      2  C   UNL     1       1.023  -0.689   0.244  0.00  0.00    +0.088 C 
ATOM      3  C   UNL     1       0.471   0.614   0.854  0.00  0.00    -0.002 C 
ATOM      4  C   UNL     1       0.084  -1.144  -0.889  0.00  0.00    -0.002 C 
ATOM      5  C   UNL     1      -1.014   0.524   1.216  0.00  0.00    -0.076 C 
ATOM      6  C   UNL     1      -1.389  -1.177  -0.470  0.00  0.00    -0.076 C 
ATOM      7  H   UNL     1      -1.677   0.820  -0.678  0.00  0.00    -0.080 HD
ENDROOT
BRANCH   2   9
ATOM      8  O   UNL     1       2.756  -2.603  -1.143  0.00  0.00    -0.275 OA
ATOM      9  N   UNL     1       2.345  -0.433  -0.307  0.00  0.00    -0.260 N 
ATOM     10  C   UNL     1       3.109  -1.434  -0.965  0.00  0.00    +0.229 C 
BRANCH   9  11
ATOM     11  C   UNL     1       2.908   0.904  -0.180  0.00  0.00    +0.054 C 
ATOM     12  C   UNL     1       2.678   1.856  -1.173  0.00  0.00    +0.015 C 
ATOM     13  C   UNL     1       3.677   1.234   0.936  0.00  0.00    +0.015 C 
ATOM     14  C   UNL     1       3.216   3.136  -1.051  0.00  0.00    +0.001 C 
ATOM     15  C   UNL     1       4.216   2.514   1.059  0.00  0.00    +0.001 C 
ATOM     16  C   UNL     1       3.986   3.466   0.065  0.00  0.00    +0.000 C 
ENDBRANCH   9  11
BRANCH  10  17
ATOM     17  C   UNL     1       4.492  -0.995  -1.438  0.00  0.00    +0.086 C 
ATOM     18  C   UNL     1       5.253  -2.104  -2.147  0.00  0.00    +0.010 C 
ENDBRANCH  10  17
ENDBRANCH   2   9
BRANCH   2  19
ATOM     19  C   UNL     1       1.163  -1.782   1.315  0.00  0.00    +0.160 C 
BRANCH  19  20
ATOM     20  O   UNL     1       2.041  -1.310   2.317  0.00  0.00    -0.349 OA
ATOM     21  C   UNL     1       2.226  -2.269   3.354  0.00  0.00    +0.174 C 
ENDBRANCH  19  20
ENDBRANCH   2  19
BRANCH   1  22
ATOM     22  C   UNL     1      -3.240   0.094   0.402  0.00  0.00    -0.072 C 
BRANCH  22  23
ATOM     23  C   UNL     1      -4.112   0.311  -0.836  0.00  0.00    +0.010 C 
BRANCH  23  25
ATOM     24  S   UNL     1      -6.621  -0.828  -1.235  0.00  0.00    -0.091 S 
ATOM     25  C   UNL     1      -5.579   0.303  -0.482  0.00  0.00    +0.005 C 
ATOM     26  C   UNL     1      -6.251   1.115   0.405  0.00  0.00    +0.003 C 
ATOM     27  C   UNL     1      -7.640   0.803   0.468  0.00  0.00    +0.007 C 
ATOM     28  C   UNL     1      -7.977  -0.234  -0.373  0.00  0.00    +0.035 C 
ENDBRANCH  23  25
ENDBRANCH  22  23
ENDBRANCH   1  22
TORSDOF 8
