REMARK  Name = 4828
REMARK  7 active torsions:
REMARK  status: ('A' for Active; 'I' for Inactive)
REMARK    1  A    between atoms: O_1  and  C_4
REMARK    2  A    between atoms: O_1  and  C_12
REMARK    3  A    between atoms: C_12  and  C_13
REMARK    4  A    between atoms: C_13  and  O_14
REMARK    5  A    between atoms: C_13  and  C_16
REMARK    6  A    between atoms: C_16  and  N_17
REMARK    7  A    between atoms: N_17  and  C_20
REMARK                            x       y       z     vdW  Elec       q    Type
REMARK                         _______ _______ _______ _____ _____    ______ ____
ROOT
ATOM      1  O   UNL     1      -0.160  -1.621  -0.517  0.00  0.00    -0.473 OA
ENDROOT
BRANCH   1   4
ATOM      2  N   UNL     1      -2.840   2.181  -0.433  0.00  0.00    -0.311 N 
ATOM      3  C   UNL     1      -1.607   0.321  -0.432  0.00  0.00    +0.049 C 
ATOM      4  C   UNL     1      -1.319  -1.019  -0.105  0.00  0.00    +0.140 C 
ATOM      5  C   UNL     1      -2.805   0.880   0.018  0.00  0.00    +0.051 C 
ATOM      6  C   UNL     1      -0.925   1.331  -1.167  0.00  0.00    +0.020 C 
ATOM      7  C   UNL     1      -2.239  -1.748   0.658  0.00  0.00    +0.037 C 
ATOM      8  C   UNL     1      -3.734   0.163   0.781  0.00  0.00    +0.015 C 
ATOM      9  C   UNL     1      -1.708   2.462  -1.150  0.00  0.00    +0.062 C 
ATOM     10  C   UNL     1      -3.427  -1.164   1.093  0.00  0.00    +0.004 C 
ATOM     11  H   UNL     1      -3.572   2.817  -0.263  0.00  0.00    +0.152 HD
ENDBRANCH   1   4
BRANCH   1  12
ATOM     12  C   UNL     1       0.706  -2.107   0.502  0.00  0.00    +0.232 C 
BRANCH  12  13
ATOM     13  C   UNL     1       2.145  -2.054  -0.008  0.00  0.00    +0.133 C 
BRANCH  13  14
ATOM     14  O   UNL     1       2.257  -2.904  -1.153  0.00  0.00    -0.383 OA
ATOM     15  H   UNL     1       3.167  -2.879  -1.486  0.00  0.00    +0.210 HD
ENDBRANCH  13  14
BRANCH  13  16
ATOM     16  C   UNL     1       2.592  -0.647  -0.413  0.00  0.00    -0.048 C 
BRANCH  16  17
ATOM     17  N   UNL     1       2.570   0.279   0.711  0.00  0.00    +0.387 N 
ATOM     18  H   UNL     1       3.167  -0.084   1.455  0.00  0.00    -0.084 HD
ATOM     19  H   UNL     1       1.609   0.371   1.038  0.00  0.00    -0.084 HD
BRANCH  17  20
ATOM     20  C   UNL     1       3.054   1.594   0.312  0.00  0.00    -0.062 C 
ATOM     21  C   UNL     1       4.491   1.499  -0.191  0.00  0.00    -0.023 C 
ATOM     22  C   UNL     1       2.949   2.553   1.494  0.00  0.00    -0.023 C 
ENDBRANCH  17  20
ENDBRANCH  16  17
ENDBRANCH  13  16
ENDBRANCH  12  13
ENDBRANCH   1  12
TORSDOF 7
