REMARK  Name = 16231
REMARK  3 active torsions:
REMARK  status: ('A' for Active; 'I' for Inactive)
REMARK    1  A    between atoms: C_5  and  C_15
REMARK    2  A    between atoms: C_15  and  N_16
REMARK    3  A    between atoms: N_16  and  C_19
REMARK                            x       y       z     vdW  Elec       q    Type
REMARK                         _______ _______ _______ _____ _____    ______ ____
ROOT
ATOM      1 CL   UNL     1      -2.355   2.660  -0.523  0.00  0.00    -0.044 Cl
ATOM      2  N   UNL     1      -2.090  -1.179   0.517  0.00  0.00    -0.367 NA
ATOM      3  N   UNL     1      -0.515   0.852  -0.606  0.00  0.00    -0.378 NA
ATOM      4  N   UNL     1      -3.905   0.338   0.677  0.00  0.00    -0.330 N 
ATOM      5  C   UNL     1      -0.070  -0.386  -0.391  0.00  0.00    +0.231 C 
ATOM      6  C   UNL     1      -0.810  -1.389   0.150  0.00  0.00    +0.213 C 
ATOM      7  C   UNL     1      -2.569   0.064   0.312  0.00  0.00    +0.220 C 
ATOM      8  C   UNL     1      -1.795   1.062  -0.240  0.00  0.00    +0.232 C 
ATOM      9  H   UNL     1      -4.463  -0.372   1.072  0.00  0.00    +0.145 HD
ATOM     10  H   UNL     1      -4.280   1.237   0.537  0.00  0.00    +0.145 HD
ATOM     11  N   UNL     1      -0.250  -2.672   0.340  0.00  0.00    -0.331 N 
ATOM     12  H   UNL     1      -0.794  -3.393   0.733  0.00  0.00    +0.145 HD
ATOM     13  H   UNL     1       0.683  -2.846   0.078  0.00  0.00    +0.145 HD
ENDROOT
BRANCH   5  15
ATOM     14  O   UNL     1       1.693  -1.699  -1.216  0.00  0.00    -0.265 OA
ATOM     15  C   UNL     1       1.347  -0.596  -0.804  0.00  0.00    +0.305 C 
BRANCH  15  16
ATOM     16  N   UNL     1       2.160   0.512  -0.721  0.00  0.00    -0.141 NA
BRANCH  16  19
ATOM     17  N   UNL     1       3.660   1.795   0.658  0.00  0.00    -0.372 N 
ATOM     18  N   UNL     1       2.693  -0.109   1.459  0.00  0.00    -0.372 N 
ATOM     19  C   UNL     1       2.808   0.747   0.390  0.00  0.00    +0.185 C 
ATOM     20  H   UNL     1       3.829   2.480  -0.028  0.00  0.00    +0.159 HD
ATOM     21  H   UNL     1       4.100   1.859   1.536  0.00  0.00    +0.159 HD
ATOM     22  H   UNL     1       2.111  -0.901   1.395  0.00  0.00    +0.159 HD
ATOM     23  H   UNL     1       3.191   0.069   2.289  0.00  0.00    +0.159 HD
ENDBRANCH  16  19
ENDBRANCH  15  16
ENDBRANCH   5  15
TORSDOF 3
