REMARK  Name = 5281081
REMARK  8 active torsions:
REMARK  status: ('A' for Active; 'I' for Inactive)
REMARK    1  A    between atoms: C_1  and  C_15
REMARK    2  A    between atoms: C_4  and  N_9
REMARK    3  A    between atoms: C_5  and  O_10
REMARK    4  A    between atoms: C_6  and  O_12
REMARK    5  A    between atoms: C_14  and  C_18
REMARK    6  A    between atoms: C_14  and  C_24
REMARK    7  A    between atoms: N_17  and  C_19
REMARK    8  A    between atoms: N_17  and  C_21
REMARK                            x       y       z     vdW  Elec       q    Type
REMARK                         _______ _______ _______ _____ _____    ______ ____
ROOT
ATOM      1  C   UNL     1      -0.783  -0.515   0.566  0.00  0.00    +0.006 C 
ATOM      2  C   UNL     1      -1.416   0.688   0.291  0.00  0.00    +0.027 C 
ATOM      3  C   UNL     1      -1.494  -1.705   0.618  0.00  0.00    +0.040 C 
ATOM      4  C   UNL     1      -2.792   0.701   0.062  0.00  0.00    +0.179 C 
ATOM      5  C   UNL     1      -2.870  -1.691   0.389  0.00  0.00    +0.169 C 
ATOM      6  C   UNL     1      -3.519  -0.488   0.111  0.00  0.00    +0.190 C 
ENDROOT
BRANCH   4   9
ATOM      7  O   UNL     1      -2.749   2.986  -0.251  0.00  0.00    -0.126 OA
ATOM      8  O   UNL     1      -4.674   1.943  -0.422  0.00  0.00    -0.126 OA
ATOM      9  N   UNL     1      -3.437   1.938  -0.217  0.00  0.00    +0.061 N 
ENDBRANCH   4   9
BRANCH   5  10
ATOM     10  O   UNL     1      -3.568  -2.860   0.439  0.00  0.00    -0.503 OA
ATOM     11  H   UNL     1      -3.124  -3.663   0.627  0.00  0.00    +0.292 HD
ENDBRANCH   5  10
BRANCH   6  12
ATOM     12  O   UNL     1      -4.866  -0.487  -0.111  0.00  0.00    -0.502 OA
ATOM     13  H   UNL     1      -5.309   0.317  -0.298  0.00  0.00    +0.292 HD
ENDBRANCH   6  12
BRANCH   1  15
ATOM     14  C   UNL     1       1.630  -0.707  -0.117  0.00  0.00    +0.122 C 
ATOM     15  C   UNL     1       0.667  -0.530   0.806  0.00  0.00    +0.015 C 
BRANCH  14  18
ATOM     16  O   UNL     1       3.545  -1.850   0.589  0.00  0.00    -0.269 OA
ATOM     17  N   UNL     1       3.780   0.442   0.230  0.00  0.00    -0.276 N 
ATOM     18  C   UNL     1       3.069  -0.759   0.268  0.00  0.00    +0.259 C 
BRANCH  17  19
ATOM     19  C   UNL     1       5.192   0.445   0.590  0.00  0.00    +0.094 C 
ATOM     20  C   UNL     1       6.073   0.200  -0.618  0.00  0.00    +0.023 C 
ENDBRANCH  17  19
BRANCH  17  21
ATOM     21  C   UNL     1       3.232   1.739  -0.162  0.00  0.00    +0.094 C 
ATOM     22  C   UNL     1       2.667   2.486   1.029  0.00  0.00    +0.023 C 
ENDBRANCH  17  21
ENDBRANCH  14  18
BRANCH  14  24
ATOM     23  N   UNL     1       1.022  -1.069  -2.603  0.00  0.00    -0.191 NA
ATOM     24  C   UNL     1       1.293  -0.907  -1.486  0.00  0.00    +0.105 C 
ENDBRANCH  14  24
ENDBRANCH   1  15
TORSDOF 8
