REMARK  Name = 2099
REMARK  2 active torsions:
REMARK  status: ('A' for Active; 'I' for Inactive)
REMARK    1  A    between atoms: N_2  and  C_16
REMARK    2  A    between atoms: C_16  and  C_19
REMARK                            x       y       z     vdW  Elec       q    Type
REMARK                         _______ _______ _______ _____ _____    ______ ____
ROOT
ATOM      1  O   UNL     1       0.318  -1.659   1.267  0.00  0.00    -0.270 OA
ATOM      2  N   UNL     1       1.227   0.467   0.930  0.00  0.00    -0.270 N 
ATOM      3  N   UNL     1      -2.561   1.545  -0.246  0.00  0.00    -0.328 N 
ATOM      4  C   UNL     1      -1.284   1.353   0.191  0.00  0.00    +0.043 A 
ATOM      5  C   UNL     1      -0.278   2.413   0.409  0.00  0.00    +0.065 C 
ATOM      6  C   UNL     1      -1.084   0.010   0.414  0.00  0.00    +0.067 A 
ATOM      7  C   UNL     1       1.108   1.777   0.258  0.00  0.00    +0.100 C 
ATOM      8  C   UNL     1      -2.308  -0.653   0.107  0.00  0.00    +0.021 A 
ATOM      9  C   UNL     1      -3.214   0.332  -0.306  0.00  0.00    +0.060 A 
ATOM     10  C   UNL     1       0.193  -0.493   0.902  0.00  0.00    +0.250 C 
ATOM     11  C   UNL     1      -3.143   2.820  -0.608  0.00  0.00    +0.130 C 
ATOM     12  C   UNL     1      -2.743  -1.995   0.136  0.00  0.00    +0.002 C 
ATOM     13  C   UNL     1      -4.527   0.038  -0.690  0.00  0.00    +0.017 C 
ATOM     14  C   UNL     1      -4.054  -2.302  -0.246  0.00  0.00    +0.000 C 
ATOM     15  C   UNL     1      -4.931  -1.299  -0.652  0.00  0.00    +0.001 C 
ENDROOT
BRANCH   2  16
ATOM     16  C   UNL     1       2.553   0.090   1.395  0.00  0.00    +0.136 C 
BRANCH  16  19
ATOM     17  N   UNL     1       3.423  -1.726  -0.032  0.00  0.00    -0.318 N 
ATOM     18  N   UNL     1       4.791  -0.592  -1.364  0.00  0.00    -0.319 N 
ATOM     19  C   UNL     1       3.423  -0.404   0.270  0.00  0.00    +0.052 C 
ATOM     20  C   UNL     1       4.244   0.330  -0.518  0.00  0.00    +0.034 C 
ATOM     21  C   UNL     1       4.580   1.761  -0.583  0.00  0.00    +0.048 C 
ATOM     22  C   UNL     1       4.268  -1.812  -1.034  0.00  0.00    +0.181 C 
ATOM     23  H   UNL     1       2.912  -2.449   0.398  0.00  0.00    +0.148 HD
ATOM     24  H   UNL     1       5.441  -0.412  -2.081  0.00  0.00    +0.148 HD
ENDBRANCH  16  19
ENDBRANCH   2  16
TORSDOF 2
