REMARK  Name = 21319
REMARK  5 active torsions:
REMARK  status: ('A' for Active; 'I' for Inactive)
REMARK    1  A    between atoms: N_2  and  CA_11
REMARK    2  A    between atoms: C_3  and  C_21
REMARK    3  A    between atoms: CA_10  and  C_16
REMARK    4  A    between atoms: C_16  and  O_17
REMARK    5  A    between atoms: C_22  and  C_27
REMARK                            x       y       z     vdW  Elec       q    Type
REMARK                         _______ _______ _______ _____ _____    ______ ____
ROOT
ATOM      1  O   UNL     1       1.498   2.866  -0.544  0.00  0.00    -0.270 OA
ATOM      2  N   UNL     1       0.607   1.192   0.766  0.00  0.00    -0.293 N 
ATOM      3  C   UNL     1       1.620   1.762  -0.015  0.00  0.00    +0.251 C 
ATOM      4  H   UNL     1       0.761   0.305   1.165  0.00  0.00    +0.150 HD
ENDROOT
BRANCH   2  11
ATOM      5  S   UNL     1      -1.323   0.880  -1.601  0.00  0.00    -0.118 S 
ATOM      6  O   UNL     1      -1.751   0.329   2.749  0.00  0.00    -0.273 OA
ATOM      7  N   UNL     1      -2.567   1.080   0.666  0.00  0.00    -0.260 N 
ATOM      8  C   UNL     1      -1.682   1.924  -0.142  0.00  0.00    +0.151 C 
ATOM      9  C   UNL     1      -2.999   0.075  -1.486  0.00  0.00    +0.068 C 
ATOM     10  CA  UNL     1      -3.248  -0.032   0.034  0.00  0.00    +0.184 C 
ATOM     11  CA  UNL     1      -0.676   1.864   1.016  0.00  0.00    +0.178 C 
ATOM     12  C   UNL     1      -1.718   0.980   1.730  0.00  0.00    +0.247 C 
ATOM     13  C   UNL     1      -4.001   0.964  -2.235  0.00  0.00    +0.013 C 
ATOM     14  C   UNL     1      -2.933  -1.306  -2.140  0.00  0.00    +0.013 C 
BRANCH  10  16
ATOM     15  OXT UNL     1      -5.175   0.917   1.136  0.00  0.00    -0.248 OA
ATOM     16  C   UNL     1      -4.682   0.032   0.452  0.00  0.00    +0.333 C 
BRANCH  16  17
ATOM     17  O   UNL     1      -5.370  -1.032  -0.030  0.00  0.00    -0.479 OA
ATOM     18  H   UNL     1      -4.932  -1.676  -0.549  0.00  0.00    +0.295 HD
ENDBRANCH  16  17
ENDBRANCH  10  16
ENDBRANCH   2  11
BRANCH   3  21
ATOM     19  O   UNL     1       4.982   0.494  -0.402  0.00  0.00    -0.358 OA
ATOM     20  N   UNL     1       4.314  -0.718  -0.277  0.00  0.00    -0.077 NA
ATOM     21  C   UNL     1       2.857   0.981  -0.147  0.00  0.00    +0.107 A 
ATOM     22  C   UNL     1       3.028  -0.390  -0.123  0.00  0.00    +0.130 A 
ATOM     23  C   UNL     1       4.085   1.510  -0.321  0.00  0.00    +0.159 A 
ATOM     24  C   UNL     1       4.631   2.869  -0.436  0.00  0.00    +0.076 C 
BRANCH  22  27
ATOM     25 CL   UNL     1       2.400  -1.299   2.749  0.00  0.00    -0.082 Cl
ATOM     26  F   UNL     1       1.746  -1.478  -2.325  0.00  0.00    -0.204 F 
ATOM     27  C   UNL     1       2.031  -1.416   0.038  0.00  0.00    +0.059 C 
ATOM     28  C   UNL     1       1.674  -1.898   1.297  0.00  0.00    +0.061 C 
ATOM     29  C   UNL     1       1.417  -1.929  -1.105  0.00  0.00    +0.142 C 
ATOM     30  C   UNL     1       0.702  -2.892   1.414  0.00  0.00    +0.012 C 
ATOM     31  C   UNL     1       0.446  -2.924  -0.988  0.00  0.00    +0.030 C 
ATOM     32  C   UNL     1       0.088  -3.405   0.271  0.00  0.00    +0.003 C 
ENDBRANCH  22  27
ENDBRANCH   3  21
TORSDOF 5
