REMARK  Name = 2554
REMARK  0 active torsions:
REMARK  status: ('A' for Active; 'I' for Inactive)
REMARK                            x       y       z     vdW  Elec       q    Type
REMARK                         _______ _______ _______ _____ _____    ______ ____
ROOT
ATOM      1  O   UNL     1       1.065   2.930  -0.757  0.00  0.00    -0.252 OA
ATOM      2  N   UNL     1       0.000   0.892  -0.254  0.00  0.00    -0.222 N 
ATOM      3  N   UNL     1      -1.192   2.829  -0.914  0.00  0.00    -0.313 N 
ATOM      4  C   UNL     1       1.215   0.198   0.080  0.00  0.00    +0.060 C 
ATOM      5  C   UNL     1      -1.211   0.193   0.077  0.00  0.00    +0.060 C 
ATOM      6  C   UNL     1       1.512  -1.088  -0.412  0.00  0.00    +0.014 C 
ATOM      7  C   UNL     1      -1.509  -1.092  -0.413  0.00  0.00    +0.014 C 
ATOM      8  C   UNL     1       0.669  -1.802  -1.376  0.00  0.00    +0.001 C 
ATOM      9  C   UNL     1      -0.667  -1.803  -1.378  0.00  0.00    +0.001 C 
ATOM     10  C   UNL     1       2.149   0.827   0.928  0.00  0.00    +0.015 C 
ATOM     11  C   UNL     1      -2.127   0.811   0.953  0.00  0.00    +0.015 C 
ATOM     12  C   UNL     1       2.731  -1.698  -0.062  0.00  0.00    +0.001 C 
ATOM     13  C   UNL     1      -2.721  -1.706  -0.049  0.00  0.00    +0.001 C 
ATOM     14  C   UNL     1       0.036   2.263  -0.613  0.00  0.00    +0.308 C 
ATOM     15  C   UNL     1       3.347   0.202   1.278  0.00  0.00    +0.001 C 
ATOM     16  C   UNL     1      -3.317   0.182   1.318  0.00  0.00    +0.001 C 
ATOM     17  C   UNL     1       3.638  -1.061   0.781  0.00  0.00    +0.000 C 
ATOM     18  C   UNL     1      -3.616  -1.076   0.814  0.00  0.00    +0.000 C 
ATOM     19  H   UNL     1      -1.246   3.778  -1.172  0.00  0.00    +0.147 HD
ATOM     20  H   UNL     1      -2.010   2.283  -0.870  0.00  0.00    +0.147 HD
ENDROOT
TORSDOF 0
