REMARK  Name = 4919
REMARK  6 active torsions:
REMARK  status: ('A' for Active; 'I' for Inactive)
REMARK    1  A    between atoms: C_1  and  C_2
REMARK    2  A    between atoms: C_1  and  C_8
REMARK    3  A    between atoms: C_1  and  O_14
REMARK    4  A    between atoms: C_1  and  C_16
REMARK    5  A    between atoms: C_16  and  C_17
REMARK    6  A    between atoms: C_17  and  N_18
REMARK                            x       y       z     vdW  Elec       q    Type
REMARK                         _______ _______ _______ _____ _____    ______ ____
ROOT
ATOM      1  C   UNL     1       0.728   0.032  -0.752  0.00  0.00    +0.105 C 
ENDROOT
BRANCH   1   2
ATOM      2  C   UNL     1       1.122   1.237   0.099  0.00  0.00    +0.029 C 
ATOM      3  C   UNL     1       2.649   1.364   0.185  0.00  0.00    +0.003 C 
ATOM      4  C   UNL     1       0.497   2.522  -0.459  0.00  0.00    +0.003 C 
ATOM      5  C   UNL     1       3.068   2.594   0.988  0.00  0.00    +0.000 C 
ATOM      6  C   UNL     1       0.920   3.750   0.345  0.00  0.00    +0.000 C 
ATOM      7  C   UNL     1       2.438   3.868   0.435  0.00  0.00    +0.000 C 
ENDBRANCH   1   2
BRANCH   1   8
ATOM      8  C   UNL     1       1.264  -1.317  -0.264  0.00  0.00    +0.002 C 
ATOM      9  C   UNL     1       1.470  -1.494   1.084  0.00  0.00    -0.002 C 
ATOM     10  C   UNL     1       1.520  -2.298  -1.193  0.00  0.00    -0.002 C 
ATOM     11  C   UNL     1       1.960  -2.722   1.529  0.00  0.00    -0.000 C 
ATOM     12  C   UNL     1       2.009  -3.527  -0.749  0.00  0.00    -0.000 C 
ATOM     13  C   UNL     1       2.229  -3.739   0.612  0.00  0.00    -0.000 C 
ENDBRANCH   1   8
BRANCH   1  14
ATOM     14  O   UNL     1       1.327   0.252  -2.047  0.00  0.00    -0.383 OA
ATOM     15  H   UNL     1       1.020   1.099  -2.405  0.00  0.00    +0.211 HD
ENDBRANCH   1  14
BRANCH   1  16
ATOM     16  C   UNL     1      -0.811  -0.022  -0.973  0.00  0.00    +0.008 C 
BRANCH  16  17
ATOM     17  C   UNL     1      -1.623  -0.423   0.262  0.00  0.00    -0.075 C 
BRANCH  17  18
ATOM     18  N   UNL     1      -3.043  -0.435  -0.058  0.00  0.00    +0.387 N 
ATOM     19  C   UNL     1      -3.868  -0.839   1.080  0.00  0.00    -0.077 C 
ATOM     20  C   UNL     1      -3.541   0.886  -0.438  0.00  0.00    -0.077 C 
ATOM     21  C   UNL     1      -5.266  -0.410   0.658  0.00  0.00    -0.025 C 
ATOM     22  C   UNL     1      -5.050   0.722  -0.343  0.00  0.00    -0.025 C 
ATOM     23  H   UNL     1      -3.117  -1.099  -0.829  0.00  0.00    -0.080 HD
ENDBRANCH  17  18
ENDBRANCH  16  17
ENDBRANCH   1  16
TORSDOF 6
