REMARK  Name = 129211
REMARK  12 active torsions:
REMARK  status: ('A' for Active; 'I' for Inactive)
REMARK    1  A    between atoms: C_1  and  N_3
REMARK    2  A    between atoms: C_1  and  C_18
REMARK    3  A    between atoms: N_3  and  C_6
REMARK    4  A    between atoms: C_6  and  C_7
REMARK    5  A    between atoms: C_7  and  O_8
REMARK    6  A    between atoms: O_8  and  C_9
REMARK    7  A    between atoms: C_10  and  O_15
REMARK    8  A    between atoms: O_15  and  C_16
REMARK    9  A    between atoms: C_18  and  C_19
REMARK   10  A    between atoms: C_21  and  S_25
REMARK   11  A    between atoms: C_23  and  O_31
REMARK   12  A    between atoms: S_25  and  N_28
REMARK                            x       y       z     vdW  Elec       q    Type
REMARK                         _______ _______ _______ _____ _____    ______ ____
ROOT
ATOM      1  C   UNL     1       0.077   0.239   0.272  0.00  0.00    -0.057 C 
ATOM      2  C   UNL     1       0.116   1.672   0.805  0.00  0.00    -0.023 C 
ENDROOT
BRANCH   1   3
ATOM      3  N   UNL     1      -1.313  -0.094  -0.052  0.00  0.00    +0.388 N 
ATOM      4  H   UNL     1      -1.555   0.316  -0.955  0.00  0.00    -0.084 HD
ATOM      5  H   UNL     1      -1.920   0.279   0.678  0.00  0.00    -0.084 HD
BRANCH   3   6
ATOM      6  C   UNL     1      -1.492  -1.535  -0.119  0.00  0.00    -0.033 C 
BRANCH   6   7
ATOM      7  C   UNL     1      -2.934  -1.882  -0.453  0.00  0.00    +0.182 C 
BRANCH   7   8
ATOM      8  O   UNL     1      -3.776  -1.366   0.570  0.00  0.00    -0.475 OA
BRANCH   8   9
ATOM      9  C   UNL     1      -5.039  -0.985   0.197  0.00  0.00    +0.172 C 
ATOM     10  C   UNL     1      -5.463   0.332   0.373  0.00  0.00    +0.172 C 
ATOM     11  C   UNL     1      -5.902  -1.927  -0.363  0.00  0.00    +0.040 C 
ATOM     12  C   UNL     1      -6.750   0.707  -0.011  0.00  0.00    +0.040 C 
ATOM     13  C   UNL     1      -7.189  -1.552  -0.747  0.00  0.00    +0.003 C 
ATOM     14  C   UNL     1      -7.614  -0.235  -0.571  0.00  0.00    +0.003 C 
BRANCH  10  15
ATOM     15  O   UNL     1      -4.629   1.261   0.917  0.00  0.00    -0.472 OA
BRANCH  15  16
ATOM     16  C   UNL     1      -4.803   2.613   0.497  0.00  0.00    +0.206 C 
ATOM     17  C   UNL     1      -3.471   3.328   0.576  0.00  0.00    +0.051 C 
ENDBRANCH  15  16
ENDBRANCH  10  15
ENDBRANCH   8   9
ENDBRANCH   7   8
ENDBRANCH   6   7
ENDBRANCH   3   6
ENDBRANCH   1   3
BRANCH   1  18
ATOM     18  C   UNL     1       0.956   0.051  -0.978  0.00  0.00    +0.005 C 
BRANCH  18  19
ATOM     19  C   UNL     1       2.420   0.332  -0.736  0.00  0.00    -0.023 C 
ATOM     20  C   UNL     1       3.269  -0.696  -0.327  0.00  0.00    +0.019 C 
ATOM     21  C   UNL     1       4.621  -0.437  -0.103  0.00  0.00    +0.155 C 
ATOM     22  C   UNL     1       2.922   1.620  -0.921  0.00  0.00    -0.001 C 
ATOM     23  C   UNL     1       5.124   0.851  -0.288  0.00  0.00    +0.157 C 
ATOM     24  C   UNL     1       4.274   1.879  -0.697  0.00  0.00    +0.038 C 
BRANCH  21  25
ATOM     25  S   UNL     1       5.666  -1.743   0.409  0.00  0.00    +0.060 S 
ATOM     26  O   UNL     1       5.073  -2.998  -0.025  0.00  0.00    -0.153 OA
ATOM     27  O   UNL     1       7.032  -1.415   0.029  0.00  0.00    -0.153 OA
BRANCH  25  28
ATOM     28  N   UNL     1       5.523  -1.622   2.107  0.00  0.00    -0.203 NA
ATOM     29  H   UNL     1       6.095  -2.342   2.549  0.00  0.00    +0.144 HD
ATOM     30  H   UNL     1       4.548  -1.750   2.377  0.00  0.00    +0.144 HD
ENDBRANCH  25  28
ENDBRANCH  21  25
BRANCH  23  31
ATOM     31  O   UNL     1       6.440   1.128  -0.074  0.00  0.00    -0.470 OA
ATOM     32  C   UNL     1       6.863   2.473  -0.288  0.00  0.00    +0.253 C 
ENDBRANCH  23  31
ENDBRANCH  18  19
ENDBRANCH   1  18
TORSDOF 12
