REMARK  Name = 5578
REMARK  5 active torsions:
REMARK  status: ('A' for Active; 'I' for Inactive)
REMARK    1  A    between atoms: C_1  and  C_6
REMARK    2  A    between atoms: C_1  and  C_14
REMARK    3  A    between atoms: C_17  and  O_20
REMARK    4  A    between atoms: C_18  and  O_22
REMARK    5  A    between atoms: C_19  and  O_24
REMARK                            x       y       z     vdW  Elec       q    Type
REMARK                         _______ _______ _______ _____ _____    ______ ____
ROOT
ATOM      1  C   UNL     1       1.083  -0.331   1.755  0.00  0.00    +0.058 C 
ENDROOT
BRANCH   1   6
ATOM      2  N   UNL     1       3.840  -0.905  -0.765  0.00  0.00    -0.323 NA
ATOM      3  N   UNL     1       3.822   1.419  -0.127  0.00  0.00    -0.170 NA
ATOM      4  N   UNL     1       2.272  -2.415   0.177  0.00  0.00    -0.332 N 
ATOM      5  N   UNL     1       5.381   0.608  -1.682  0.00  0.00    -0.293 N 
ATOM      6  C   UNL     1       2.249  -0.102   0.815  0.00  0.00    +0.047 C 
ATOM      7  C   UNL     1       2.802  -1.105   0.073  0.00  0.00    +0.188 C 
ATOM      8  C   UNL     1       2.784   1.148   0.691  0.00  0.00    +0.112 C 
ATOM      9  C   UNL     1       4.295   0.362  -0.815  0.00  0.00    +0.143 C 
ATOM     10  H   UNL     1       2.662  -3.147  -0.354  0.00  0.00    +0.145 HD
ATOM     11  H   UNL     1       1.515  -2.593   0.780  0.00  0.00    +0.145 HD
ATOM     12  H   UNL     1       5.767  -0.128  -2.209  0.00  0.00    +0.155 HD
ATOM     13  H   UNL     1       5.754   1.516  -1.758  0.00  0.00    +0.155 HD
ENDBRANCH   1   6
BRANCH   1  14
ATOM     14  C   UNL     1      -0.253  -0.151   1.117  0.00  0.00    -0.011 C 
ATOM     15  C   UNL     1      -0.891  -1.236   0.517  0.00  0.00    +0.036 C 
ATOM     16  C   UNL     1      -0.864   1.103   1.120  0.00  0.00    +0.036 C 
ATOM     17  C   UNL     1      -2.113   1.272   0.523  0.00  0.00    +0.175 C 
ATOM     18  C   UNL     1      -2.141  -1.067  -0.080  0.00  0.00    +0.175 C 
ATOM     19  C   UNL     1      -2.751   0.187  -0.077  0.00  0.00    +0.206 C 
BRANCH  17  20
ATOM     20  O   UNL     1      -2.699   2.502   0.533  0.00  0.00    -0.468 OA
ATOM     21  C   UNL     1      -2.412   3.365  -0.566  0.00  0.00    +0.253 C 
ENDBRANCH  17  20
BRANCH  18  22
ATOM     22  O   UNL     1      -2.753  -2.136  -0.662  0.00  0.00    -0.468 OA
ATOM     23  C   UNL     1      -3.609  -2.922   0.164  0.00  0.00    +0.253 C 
ENDBRANCH  18  22
BRANCH  19  24
ATOM     24  O   UNL     1      -3.973   0.351  -0.661  0.00  0.00    -0.465 OA
ATOM     25  C   UNL     1      -4.070   0.056  -2.052  0.00  0.00    +0.253 C 
ENDBRANCH  19  24
ENDBRANCH   1  14
TORSDOF 5
