REMARK  Name = 60750
REMARK  4 active torsions:
REMARK  status: ('A' for Active; 'I' for Inactive)
REMARK    1  A    between atoms: C_4  and  O_18
REMARK    2  A    between atoms: C_6  and  C_20
REMARK    3  A    between atoms: C_7  and  N_9
REMARK    4  A    between atoms: C_20  and  O_21
REMARK                            x       y       z     vdW  Elec       q    Type
REMARK                         _______ _______ _______ _____ _____    ______ ____
ROOT
ATOM      1  F   UNL     1       0.374  -1.997  -1.075  0.00  0.00    -0.197 F 
ATOM      2  F   UNL     1       1.999  -2.275   0.351  0.00  0.00    -0.197 F 
ATOM      3  O   UNL     1       1.282   0.588   1.121  0.00  0.00    -0.330 OA
ATOM      4  C   UNL     1       2.017  -0.299  -0.931  0.00  0.00    +0.206 C 
ATOM      5  C   UNL     1       1.198  -1.352  -0.232  0.00  0.00    +0.333 C 
ATOM      6  C   UNL     1       2.422   0.573   0.242  0.00  0.00    +0.179 C 
ATOM      7  C   UNL     1       0.469  -0.567   0.839  0.00  0.00    +0.272 C 
ENDROOT
BRANCH   7   9
ATOM      8  O   UNL     1      -1.961  -1.912   1.313  0.00  0.00    -0.193 OA
ATOM      9  N   UNL     1      -0.827  -0.114   0.415  0.00  0.00    -0.175 N 
ATOM     10  N   UNL     1      -3.222  -0.350   0.254  0.00  0.00    -0.306 NA
ATOM     11  N   UNL     1      -4.508   1.253  -0.835  0.00  0.00    -0.332 N 
ATOM     12  C   UNL     1      -0.917   1.077  -0.287  0.00  0.00    +0.084 C 
ATOM     13  C   UNL     1      -2.007  -0.848   0.693  0.00  0.00    +0.276 C 
ATOM     14  C   UNL     1      -2.076   1.573  -0.719  0.00  0.00    +0.065 C 
ATOM     15  C   UNL     1      -3.291   0.776  -0.407  0.00  0.00    +0.193 C 
ATOM     16  H   UNL     1      -5.331   0.746  -0.643  0.00  0.00    +0.145 HD
ATOM     17  H   UNL     1      -4.558   2.101  -1.332  0.00  0.00    +0.145 HD
ENDBRANCH   7   9
BRANCH   4  18
ATOM     18  O   UNL     1       3.140  -0.840  -1.594  0.00  0.00    -0.377 OA
ATOM     19  H   UNL     1       2.845  -1.390  -2.336  0.00  0.00    +0.211 HD
ENDBRANCH   4  18
BRANCH   6  20
ATOM     20  C   UNL     1       2.779   1.993  -0.157  0.00  0.00    +0.169 C 
BRANCH  20  21
ATOM     21  O   UNL     1       3.130   2.722   1.008  0.00  0.00    -0.379 OA
ATOM     22  H   UNL     1       3.360   3.632   0.763  0.00  0.00    +0.211 HD
ENDBRANCH  20  21
ENDBRANCH   6  20
TORSDOF 4
