REMARK  Name = 60773
REMARK  9 active torsions:
REMARK  status: ('A' for Active; 'I' for Inactive)
REMARK    1  A    between atoms: C_1  and  N_3
REMARK    2  A    between atoms: C_1  and  O_16
REMARK    3  A    between atoms: O_16  and  C_17
REMARK    4  A    between atoms: C_17  and  C_18
REMARK    5  A    between atoms: C_18  and  O_19
REMARK    6  A    between atoms: O_19  and  C_21
REMARK    7  A    between atoms: C_21  and  C_22
REMARK    8  A    between atoms: C_22  and  N_23
REMARK    9  A    between atoms: C_22  and  C_27
REMARK                            x       y       z     vdW  Elec       q    Type
REMARK                         _______ _______ _______ _____ _____    ______ ____
ROOT
ATOM      1  C   UNL     1      -0.533   2.164   1.023  0.00  0.00    +0.223 C 
ENDROOT
BRANCH   1   3
ATOM      2  O   UNL     1      -5.167  -0.833  -1.152  0.00  0.00    -0.208 OA
ATOM      3  N   UNL     1      -1.750   1.662   0.401  0.00  0.00    -0.206 NA
ATOM      4  N   UNL     1      -1.657  -0.717   0.885  0.00  0.00    -0.279 N 
ATOM      5  N   UNL     1      -3.674   1.674  -0.729  0.00  0.00    -0.241 NA
ATOM      6  N   UNL     1      -3.518  -1.964   0.019  0.00  0.00    -0.301 NA
ATOM      7  N   UNL     1      -1.778  -3.000   1.226  0.00  0.00    -0.320 N 
ATOM      8  C   UNL     1      -2.193   0.393   0.370  0.00  0.00    +0.191 C 
ATOM      9  C   UNL     1      -3.369   0.406  -0.322  0.00  0.00    +0.183 C 
ATOM     10  C   UNL     1      -2.674   2.412  -0.275  0.00  0.00    +0.205 C 
ATOM     11  C   UNL     1      -4.109  -0.822  -0.534  0.00  0.00    +0.224 C 
ATOM     12  C   UNL     1      -2.375  -1.893   0.677  0.00  0.00    +0.245 C 
ATOM     13  H   UNL     1      -0.807  -0.704   1.382  0.00  0.00    +0.152 HD
ATOM     14  H   UNL     1      -0.925  -2.910   1.710  0.00  0.00    +0.146 HD
ATOM     15  H   UNL     1      -2.202  -3.883   1.135  0.00  0.00    +0.146 HD
ENDBRANCH   1   3
BRANCH   1  16
ATOM     16  O   UNL     1       0.500   2.102   0.050  0.00  0.00    -0.333 OA
BRANCH  16  17
ATOM     17  C   UNL     1       1.728   2.603   0.564  0.00  0.00    +0.191 C 
BRANCH  17  18
ATOM     18  C   UNL     1       2.789   2.513  -0.515  0.00  0.00    +0.240 C 
BRANCH  18  19
ATOM     19  O   UNL     1       2.961   1.141  -0.888  0.00  0.00    -0.447 OA
BRANCH  19  21
ATOM     20  O   UNL     1       4.584   0.907   0.731  0.00  0.00    -0.252 OA
ATOM     21  C   UNL     1       3.900   0.449  -0.175  0.00  0.00    +0.296 C 
BRANCH  21  22
ATOM     22  C   UNL     1       3.961  -0.984  -0.682  0.00  0.00    +0.036 C 
BRANCH  22  23
ATOM     23  N   UNL     1       5.049  -1.674   0.013  0.00  0.00    +0.389 N 
ATOM     24  H   UNL     1       5.104  -2.638  -0.315  0.00  0.00    -0.088 HD
ATOM     25  H   UNL     1       4.870  -1.666   1.017  0.00  0.00    -0.088 HD
ATOM     26  H   UNL     1       5.930  -1.198  -0.179  0.00  0.00    -0.088 HD
ENDBRANCH  22  23
BRANCH  22  27
ATOM     27  C   UNL     1       2.600  -1.704  -0.536  0.00  0.00    -0.010 C 
ATOM     28  C   UNL     1       2.121  -1.696   0.919  0.00  0.00    -0.002 C 
ATOM     29  C   UNL     1       2.604  -3.141  -1.071  0.00  0.00    -0.002 C 
ENDBRANCH  22  27
ENDBRANCH  21  22
ENDBRANCH  19  21
ENDBRANCH  18  19
ENDBRANCH  17  18
ENDBRANCH  16  17
ENDBRANCH   1  16
TORSDOF 9
