REMARK  Name = 5430
REMARK  1 active torsions:
REMARK  status: ('A' for Active; 'I' for Inactive)
REMARK    1  A    between atoms: C_5  and  C_14
REMARK                            x       y       z     vdW  Elec       q    Type
REMARK                         _______ _______ _______ _____ _____    ______ ____
ROOT
ATOM      1  N   UNL     1      -0.215   1.093  -0.001  0.00  0.00    -0.314 N 
ATOM      2  N   UNL     1      -0.172  -1.129   0.000  0.00  0.00    -0.314 N 
ATOM      3  C   UNL     1      -1.530   0.702   0.000  0.00  0.00    +0.059 C 
ATOM      4  C   UNL     1      -1.476  -0.690   0.000  0.00  0.00    +0.059 C 
ATOM      5  C   UNL     1       0.556  -0.035   0.000  0.00  0.00    +0.182 C 
ATOM      6  C   UNL     1      -2.724   1.423   0.000  0.00  0.00    +0.016 C 
ATOM      7  C   UNL     1      -2.676  -1.421   0.000  0.00  0.00    +0.016 C 
ATOM      8  C   UNL     1      -3.909   0.679   0.001  0.00  0.00    +0.001 C 
ATOM      9  C   UNL     1      -3.887  -0.718   0.000  0.00  0.00    +0.001 C 
ATOM     10  H   UNL     1       0.113   2.021  -0.001  0.00  0.00    +0.149 HD
ATOM     11  H   UNL     1       0.146  -2.061  -0.001  0.00  0.00    +0.149 HD
ENDROOT
BRANCH   5  14
ATOM     12  S   UNL     1       4.452  -0.771   0.001  0.00  0.00    -0.108 S 
ATOM     13  N   UNL     1       2.741   1.167   0.000  0.00  0.00    -0.263 NA
ATOM     14  C   UNL     1       2.030  -0.018   0.000  0.00  0.00    +0.080 C 
ATOM     15  C   UNL     1       2.785  -1.173   0.000  0.00  0.00    +0.104 C 
ATOM     16  C   UNL     1       4.026   0.891   0.000  0.00  0.00    +0.183 C 
ENDBRANCH   5  14
TORSDOF 1
