REMARK  Name = 82153
REMARK  4 active torsions:
REMARK  status: ('A' for Active; 'I' for Inactive)
REMARK    1  A    between atoms: C_8  and  C_30
REMARK    2  A    between atoms: C_13  and  O_27
REMARK    3  A    between atoms: C_30  and  C_31
REMARK    4  A    between atoms: C_31  and  O_32
REMARK                            x       y       z     vdW  Elec       q    Type
REMARK                         _______ _______ _______ _____ _____    ______ ____
ROOT
ATOM      1  F   UNL     1      -3.715   2.651  -1.498  0.00  0.00    -0.233 F 
ATOM      2  O   UNL     1       2.868   0.467   1.226  0.00  0.00    -0.330 OA
ATOM      3  O   UNL     1       3.426   2.288  -0.152  0.00  0.00    -0.334 OA
ATOM      4  O   UNL     1      -6.268   0.479   2.081  0.00  0.00    -0.287 OA
ATOM      5  C   UNL     1       1.466  -0.646  -0.485  0.00  0.00    +0.034 C 
ATOM      6  C   UNL     1       0.596   0.627  -0.586  0.00  0.00    +0.005 C 
ATOM      7  C   UNL     1      -0.850   0.346  -1.017  0.00  0.00    +0.006 C 
ATOM      8  C   UNL     1       2.828  -0.002  -0.119  0.00  0.00    +0.173 C 
ATOM      9  C   UNL     1      -1.517  -0.592   0.051  0.00  0.00    +0.034 C 
ATOM     10  C   UNL     1       2.901   1.258  -0.985  0.00  0.00    +0.149 C 
ATOM     11  C   UNL     1       1.454   1.584  -1.416  0.00  0.00    +0.033 C 
ATOM     12  C   UNL     1       0.838  -1.548   0.596  0.00  0.00    +0.032 C 
ATOM     13  C   UNL     1      -0.652  -1.863   0.332  0.00  0.00    +0.111 C 
ATOM     14  C   UNL     1      -3.048  -0.845  -0.251  0.00  0.00    +0.039 C 
ATOM     15  C   UNL     1      -1.633   1.661  -1.163  0.00  0.00    +0.040 C 
ATOM     16  C   UNL     1       1.599  -1.408  -1.832  0.00  0.00    +0.003 C 
ATOM     17  C   UNL     1      -3.108   1.429  -1.458  0.00  0.00    +0.180 C 
ATOM     18  C   UNL     1       3.421   1.786   1.186  0.00  0.00    +0.188 C 
ATOM     19  C   UNL     1      -3.716   0.527  -0.413  0.00  0.00    -0.006 C 
ATOM     20  C   UNL     1      -3.309  -1.661  -1.537  0.00  0.00    +0.009 C 
ATOM     21  C   UNL     1      -3.678  -1.635   0.887  0.00  0.00    -0.020 C 
ATOM     22  C   UNL     1       4.855   1.734   1.702  0.00  0.00    +0.061 C 
ATOM     23  C   UNL     1       2.579   2.716   2.055  0.00  0.00    +0.061 C 
ATOM     24  C   UNL     1      -4.746   0.944   0.340  0.00  0.00    +0.036 C 
ATOM     25  C   UNL     1      -4.702  -1.223   1.640  0.00  0.00    +0.038 C 
ATOM     26  C   UNL     1      -5.317   0.096   1.407  0.00  0.00    +0.195 C 
ENDROOT
BRANCH  13  27
ATOM     27  O   UNL     1      -0.758  -2.802  -0.730  0.00  0.00    -0.384 OA
ATOM     28  H   UNL     1      -1.693  -3.000  -0.894  0.00  0.00    +0.210 HD
ENDBRANCH  13  27
BRANCH   8  30
ATOM     29  O   UNL     1       4.925  -0.661  -1.041  0.00  0.00    -0.291 OA
ATOM     30  C   UNL     1       4.000  -0.925  -0.274  0.00  0.00    +0.207 C 
BRANCH  30  31
ATOM     31  C   UNL     1       3.975  -2.188   0.562  0.00  0.00    +0.204 C 
BRANCH  31  32
ATOM     32  O   UNL     1       5.287  -2.593   0.892  0.00  0.00    -0.375 OA
ATOM     33  H   UNL     1       5.250  -3.402   1.427  0.00  0.00    +0.211 HD
ENDBRANCH  31  32
ENDBRANCH  30  31
ENDBRANCH   8  30
TORSDOF 4
