REMARK  Name = 59768
REMARK  11 active torsions:
REMARK  status: ('A' for Active; 'I' for Inactive)
REMARK    1  A    between atoms: O_1  and  C_3
REMARK    2  A    between atoms: O_1  and  C_14
REMARK    3  A    between atoms: C_2  and  C_8
REMARK    4  A    between atoms: C_8  and  C_9
REMARK    5  A    between atoms: C_9  and  C_11
REMARK    6  A    between atoms: C_11  and  O_12
REMARK    7  A    between atoms: C_14  and  C_15
REMARK    8  A    between atoms: C_15  and  O_16
REMARK    9  A    between atoms: C_15  and  C_18
REMARK   10  A    between atoms: C_18  and  N_19
REMARK   11  A    between atoms: N_19  and  C_22
REMARK                            x       y       z     vdW  Elec       q    Type
REMARK                         _______ _______ _______ _____ _____    ______ ____
ROOT
ATOM      1  O   UNL     1      -2.405  -1.651  -0.219  0.00  0.00    -0.473 OA
ENDROOT
BRANCH   1   3
ATOM      2  C   UNL     1       1.738  -1.292  -0.235  0.00  0.00    -0.021 C 
ATOM      3  C   UNL     1      -1.041  -1.533  -0.224  0.00  0.00    +0.139 C 
ATOM      4  C   UNL     1       1.072  -1.630   0.943  0.00  0.00    -0.001 C 
ATOM      5  C   UNL     1       1.015  -1.075  -1.407  0.00  0.00    -0.001 C 
ATOM      6  C   UNL     1      -0.318  -1.751   0.949  0.00  0.00    +0.037 C 
ATOM      7  C   UNL     1      -0.375  -1.196  -1.402  0.00  0.00    +0.037 C 
BRANCH   2   8
ATOM      8  C   UNL     1       3.224  -1.163  -0.241  0.00  0.00    +0.038 C 
BRANCH   8   9
ATOM      9  C   UNL     1       3.685   0.264   0.085  0.00  0.00    +0.114 C 
BRANCH   9  11
ATOM     10  O   UNL     1       5.980  -0.503  -0.160  0.00  0.00    -0.250 OA
ATOM     11  C   UNL     1       5.190   0.398   0.088  0.00  0.00    +0.317 C 
BRANCH  11  12
ATOM     12  O   UNL     1       5.518   1.684   0.412  0.00  0.00    -0.444 OA
ATOM     13  C   UNL     1       6.920   1.970   0.456  0.00  0.00    +0.256 C 
ENDBRANCH  11  12
ENDBRANCH   9  11
ENDBRANCH   8   9
ENDBRANCH   2   8
ENDBRANCH   1   3
BRANCH   1  14
ATOM     14  C   UNL     1      -3.069  -1.343   1.003  0.00  0.00    +0.232 C 
BRANCH  14  15
ATOM     15  C   UNL     1      -4.455  -0.787   0.684  0.00  0.00    +0.133 C 
BRANCH  15  16
ATOM     16  O   UNL     1      -5.179  -1.768  -0.064  0.00  0.00    -0.383 OA
ATOM     17  H   UNL     1      -6.063  -1.428  -0.274  0.00  0.00    +0.210 HD
ENDBRANCH  15  16
BRANCH  15  18
ATOM     18  C   UNL     1      -4.416   0.505  -0.136  0.00  0.00    -0.048 C 
BRANCH  18  19
ATOM     19  N   UNL     1      -3.662   1.556   0.534  0.00  0.00    +0.387 N 
ATOM     20  H   UNL     1      -2.716   1.223   0.718  0.00  0.00    -0.084 HD
ATOM     21  H   UNL     1      -4.135   1.789   1.407  0.00  0.00    -0.084 HD
BRANCH  19  22
ATOM     22  C   UNL     1      -3.593   2.754  -0.292  0.00  0.00    -0.062 C 
ATOM     23  C   UNL     1      -3.309   3.964   0.592  0.00  0.00    -0.023 C 
ATOM     24  C   UNL     1      -2.520   2.596  -1.365  0.00  0.00    -0.023 C 
ENDBRANCH  19  22
ENDBRANCH  18  19
ENDBRANCH  15  18
ENDBRANCH  14  15
ENDBRANCH   1  14
TORSDOF 11
