REMARK  Name = 5311067
REMARK  4 active torsions:
REMARK  status: ('A' for Active; 'I' for Inactive)
REMARK    1  A    between atoms: C_7  and  C_26
REMARK    2  A    between atoms: C_11  and  O_23
REMARK    3  A    between atoms: C_26  and  C_27
REMARK    4  A    between atoms: C_27  and  O_28
REMARK                            x       y       z     vdW  Elec       q    Type
REMARK                         _______ _______ _______ _____ _____    ______ ____
ROOT
ATOM      1  F   UNL     1       1.230  -0.073  -1.308  0.00  0.00    -0.237 F 
ATOM      2  O   UNL     1       6.099  -0.112  -1.600  0.00  0.00    -0.287 OA
ATOM      3  C   UNL     1      -1.927  -0.131   0.218  0.00  0.00    +0.009 C 
ATOM      4  C   UNL     1      -1.009   1.083  -0.022  0.00  0.00    +0.003 C 
ATOM      5  C   UNL     1       0.369   0.940   0.638  0.00  0.00    +0.033 C 
ATOM      6  C   UNL     1       1.087  -0.324   0.048  0.00  0.00    +0.164 C 
ATOM      7  C   UNL     1      -3.183   0.360  -0.541  0.00  0.00    +0.060 C 
ATOM      8  C   UNL     1      -1.891   2.277   0.339  0.00  0.00    +0.001 C 
ATOM      9  C   UNL     1      -1.250  -1.362  -0.411  0.00  0.00    +0.032 C 
ATOM     10  C   UNL     1      -3.301   1.857  -0.145  0.00  0.00    +0.007 C 
ATOM     11  C   UNL     1       0.186  -1.595   0.114  0.00  0.00    +0.141 C 
ATOM     12  C   UNL     1       2.555  -0.485   0.607  0.00  0.00    +0.064 C 
ATOM     13  C   UNL     1       1.206   2.212   0.415  0.00  0.00    +0.007 C 
ATOM     14  C   UNL     1      -2.255  -0.386   1.712  0.00  0.00    +0.001 C 
ATOM     15  C   UNL     1       2.626   2.070   0.949  0.00  0.00    +0.023 C 
ATOM     16  C   UNL     1       3.284   0.843   0.371  0.00  0.00    -0.035 C 
ATOM     17  C   UNL     1      -3.784   2.711  -1.314  0.00  0.00    +0.000 C 
ATOM     18  C   UNL     1       2.624  -0.804   2.118  0.00  0.00    +0.011 C 
ATOM     19  C   UNL     1       3.263  -1.633  -0.100  0.00  0.00    -0.017 C 
ATOM     20  C   UNL     1       4.418   0.957  -0.340  0.00  0.00    +0.034 C 
ATOM     21  C   UNL     1       4.390  -1.526  -0.810  0.00  0.00    +0.038 C 
ATOM     22  C   UNL     1       5.055  -0.219  -0.966  0.00  0.00    +0.195 C 
ENDROOT
BRANCH  11  23
ATOM     23  O   UNL     1       0.133  -2.128   1.428  0.00  0.00    -0.382 OA
ATOM     24  H   UNL     1       1.035  -2.274   1.754  0.00  0.00    +0.210 HD
ENDBRANCH  11  23
BRANCH   7  26
ATOM     25  O   UNL     1      -5.408   0.128   0.279  0.00  0.00    -0.293 OA
ATOM     26  C   UNL     1      -4.426  -0.415  -0.225  0.00  0.00    +0.180 C 
BRANCH  26  27
ATOM     27  C   UNL     1      -4.398  -1.892  -0.560  0.00  0.00    +0.202 C 
BRANCH  27  28
ATOM     28  O   UNL     1      -5.691  -2.352  -0.891  0.00  0.00    -0.375 OA
ATOM     29  H   UNL     1      -5.653  -3.298  -1.103  0.00  0.00    +0.211 HD
ENDBRANCH  27  28
ENDBRANCH  26  27
ENDBRANCH   7  26
TORSDOF 4
