REMARK  Name = 4060
REMARK  2 active torsions:
REMARK  status: ('A' for Active; 'I' for Inactive)
REMARK    1  A    between atoms: C_5  and  C_10
REMARK    2  A    between atoms: C_5  and  C_16
REMARK                            x       y       z     vdW  Elec       q    Type
REMARK                         _______ _______ _______ _____ _____    ______ ____
ROOT
ATOM      1  O   UNL     1       0.905   0.145  -2.265  0.00  0.00    -0.272 OA
ATOM      2  O   UNL     1       3.034  -0.895   1.683  0.00  0.00    -0.252 OA
ATOM      3  N   UNL     1       1.047   0.228   1.207  0.00  0.00    -0.281 N 
ATOM      4  N   UNL     1       2.276  -0.517  -0.497  0.00  0.00    -0.211 N 
ATOM      5  C   UNL     1       0.286   0.656   0.044  0.00  0.00    +0.147 C 
ATOM      6  C   UNL     1       1.169   0.073  -1.071  0.00  0.00    +0.252 C 
ATOM      7  C   UNL     1       2.224  -0.448   0.881  0.00  0.00    +0.310 C 
ATOM      8  C   UNL     1       3.337  -1.164  -1.243  0.00  0.00    +0.124 C 
ATOM      9  H   UNL     1       0.759   0.397   2.133  0.00  0.00    +0.152 HD
ENDROOT
BRANCH   5  10
ATOM     10  C   UNL     1      -1.107   0.042   0.040  0.00  0.00    +0.002 C 
ATOM     11  C   UNL     1      -1.367  -1.105   0.792  0.00  0.00    -0.002 C 
ATOM     12  C   UNL     1      -2.125   0.625  -0.715  0.00  0.00    -0.002 C 
ATOM     13  C   UNL     1      -2.643  -1.667   0.788  0.00  0.00    -0.000 C 
ATOM     14  C   UNL     1      -3.402   0.062  -0.718  0.00  0.00    -0.000 C 
ATOM     15  C   UNL     1      -3.661  -1.084   0.034  0.00  0.00    -0.000 C 
ENDBRANCH   5  10
BRANCH   5  16
ATOM     16  C   UNL     1       0.360   2.185  -0.065  0.00  0.00    +0.031 C 
ATOM     17  C   UNL     1      -0.333   2.863   1.104  0.00  0.00    +0.003 C 
ENDBRANCH   5  16
TORSDOF 2
