4199
  -OEChem-10051719233D

 44 46  0     0  0  0  0  0  0999 V2000
    7.0371   -1.3829    0.3744 O   0  0  0  0  0  0  0  0  0  0  0  0
    4.6786    0.0234   -0.3747 N   0  0  0  0  0  0  0  0  0  0  0  0
    1.1792    1.2363    0.0300 N   0  0  0  0  0  0  0  0  0  0  0  0
   -0.5081   -0.4101   -0.2506 N   0  0  0  0  0  0  0  0  0  0  0  0
   -1.8171   -0.7789   -0.2608 N   0  0  0  0  0  0  0  0  0  0  0  0
    4.6434   -1.0653    0.6117 C   0  0  0  0  0  0  0  0  0  0  0  0
    5.9917    0.6828   -0.3502 C   0  0  0  0  0  0  0  0  0  0  0  0
    3.6093    0.9870   -0.1224 C   0  0  0  0  0  0  0  0  0  0  0  0
    5.7754   -2.0509    0.3361 C   0  0  0  0  0  0  0  0  0  0  0  0
    7.0913   -0.3443   -0.6040 C   0  0  0  0  0  0  0  0  0  0  0  0
    2.2576    0.2954   -0.2458 C   0  0  0  0  0  0  0  0  0  0  0  0
   -0.1526    0.8816    0.0243 C   0  0  0  0  0  0  0  0  0  0  0  0
   -1.1336    1.8395    0.2985 C   0  0  0  0  0  0  0  0  0  0  0  0
   -2.4655    1.4644    0.2881 C   0  0  0  0  0  0  0  0  0  0  0  0
   -2.7634    0.1467    0.0039 C   0  0  0  0  0  0  0  0  0  0  0  0
   -0.7680    3.2528    0.6006 C   0  0  0  0  0  0  0  0  0  0  0  0
   -4.1232   -0.3318   -0.0283 C   0  0  0  0  0  0  0  0  0  0  0  0
   -5.1622    0.5283   -0.3934 C   0  0  0  0  0  0  0  0  0  0  0  0
   -4.4091   -1.6583    0.3052 C   0  0  0  0  0  0  0  0  0  0  0  0
   -6.4777    0.0653   -0.4249 C   0  0  0  0  0  0  0  0  0  0  0  0
   -5.7245   -2.1214    0.2737 C   0  0  0  0  0  0  0  0  0  0  0  0
   -6.7587   -1.2596   -0.0912 C   0  0  0  0  0  0  0  0  0  0  0  0
    3.7264   -1.6562    0.5568 H   0  0  0  0  0  0  0  0  0  0  0  0
    4.7424   -0.6666    1.6295 H   0  0  0  0  0  0  0  0  0  0  0  0
    6.1584    1.1623    0.6232 H   0  0  0  0  0  0  0  0  0  0  0  0
    6.0435    1.4571   -1.1240 H   0  0  0  0  0  0  0  0  0  0  0  0
    3.7124    1.4486    0.8689 H   0  0  0  0  0  0  0  0  0  0  0  0
    3.6566    1.7997   -0.8588 H   0  0  0  0  0  0  0  0  0  0  0  0
    5.7888   -2.8291    1.1061 H   0  0  0  0  0  0  0  0  0  0  0  0
    5.6538   -2.5473   -0.6346 H   0  0  0  0  0  0  0  0  0  0  0  0
    7.0133   -0.7814   -1.6070 H   0  0  0  0  0  0  0  0  0  0  0  0
    8.0729    0.1342   -0.5271 H   0  0  0  0  0  0  0  0  0  0  0  0
    2.1357   -0.1202   -1.2537 H   0  0  0  0  0  0  0  0  0  0  0  0
    2.1415   -0.5151    0.4773 H   0  0  0  0  0  0  0  0  0  0  0  0
    1.4359    2.0906    0.5117 H   0  0  0  0  0  0  0  0  0  0  0  0
   -3.2314    2.1957    0.5246 H   0  0  0  0  0  0  0  0  0  0  0  0
   -0.1666    3.6807   -0.2085 H   0  0  0  0  0  0  0  0  0  0  0  0
   -1.6551    3.8872    0.7069 H   0  0  0  0  0  0  0  0  0  0  0  0
   -0.2107    3.3132    1.5413 H   0  0  0  0  0  0  0  0  0  0  0  0
   -4.9861    1.5602   -0.6856 H   0  0  0  0  0  0  0  0  0  0  0  0
   -3.6283   -2.3534    0.6044 H   0  0  0  0  0  0  0  0  0  0  0  0
   -7.2828    0.7343   -0.7147 H   0  0  0  0  0  0  0  0  0  0  0  0
   -5.9441   -3.1524    0.5354 H   0  0  0  0  0  0  0  0  0  0  0  0
   -7.7827   -1.6204   -0.1165 H   0  0  0  0  0  0  0  0  0  0  0  0
  1  9  1  0  0  0  0
  1 10  1  0  0  0  0
  2  6  1  0  0  0  0
  2  7  1  0  0  0  0
  2  8  1  0  0  0  0
  3 11  1  0  0  0  0
  3 12  1  0  0  0  0
  3 35  1  0  0  0  0
  4  5  1  0  0  0  0
  4 12  2  0  0  0  0
  5 15  2  0  0  0  0
  6  9  1  0  0  0  0
  6 23  1  0  0  0  0
  6 24  1  0  0  0  0
  7 10  1  0  0  0  0
  7 25  1  0  0  0  0
  7 26  1  0  0  0  0
  8 11  1  0  0  0  0
  8 27  1  0  0  0  0
  8 28  1  0  0  0  0
  9 29  1  0  0  0  0
  9 30  1  0  0  0  0
 10 31  1  0  0  0  0
 10 32  1  0  0  0  0
 11 33  1  0  0  0  0
 11 34  1  0  0  0  0
 12 13  1  0  0  0  0
 13 14  2  0  0  0  0
 13 16  1  0  0  0  0
 14 15  1  0  0  0  0
 14 36  1  0  0  0  0
 15 17  1  0  0  0  0
 16 37  1  0  0  0  0
 16 38  1  0  0  0  0
 16 39  1  0  0  0  0
 17 18  2  0  0  0  0
 17 19  1  0  0  0  0
 18 20  1  0  0  0  0
 18 40  1  0  0  0  0
 19 21  2  0  0  0  0
 19 41  1  0  0  0  0
 20 22  2  0  0  0  0
 20 42  1  0  0  0  0
 21 22  1  0  0  0  0
 21 43  1  0  0  0  0
 22 44  1  0  0  0  0
M  END
> <DATABASE_ID>
DB00805

> <DATABASE_NAME>
drugbank

> <ORIGINAL_SOURCE>
PUBCHEM

> <ORIGINAL_SOURCE_URL>
https://pubchem.ncbi.nlm.nih.gov/rest/pug/compound/inchikey/LDMWSLGGVTVJPG-UHFFFAOYSA-N/SDF?record_type=3d

> <SMILES>
CC1=CC(=NN=C1NCCN1CCOCC1)C1=CC=CC=C1

> <INCHI_IDENTIFIER>
InChI=1S/C17H22N4O/c1-14-13-16(15-5-3-2-4-6-15)19-20-17(14)18-7-8-21-9-11-22-12-10-21/h2-6,13H,7-12H2,1H3,(H,18,20)

> <INCHI_KEY>
LDMWSLGGVTVJPG-UHFFFAOYSA-N

> <FORMULA>
C17H22N4O

> <MOLECULAR_WEIGHT>
298.3828

> <EXACT_MASS>
298.179361346

> <JCHEM_ACCEPTOR_COUNT>
5

> <JCHEM_AVERAGE_POLARIZABILITY>
33.81999320576029

> <JCHEM_BIOAVAILABILITY>
1

> <JCHEM_DONOR_COUNT>
1

> <JCHEM_FORMAL_CHARGE>
0

> <JCHEM_GHOSE_FILTER>
1

> <JCHEM_IUPAC>
4-methyl-N-[2-(morpholin-4-yl)ethyl]-6-phenylpyridazin-3-amine

> <ALOGPS_LOGP>
2.15

> <JCHEM_LOGP>
2.1896802423333326

> <ALOGPS_LOGS>
-3.63

> <JCHEM_MDDR_LIKE_RULE>
0

> <JCHEM_NUMBER_OF_RINGS>
3

> <JCHEM_PHYSIOLOGICAL_CHARGE>
0

> <JCHEM_PKA_STRONGEST_ACIDIC>
19.25458980612889

> <JCHEM_PKA_STRONGEST_BASIC>
6.2776614030799385

> <JCHEM_POLAR_SURFACE_AREA>
50.28

> <JCHEM_REFRACTIVITY>
91.17070000000001

> <JCHEM_ROTATABLE_BOND_COUNT>
5

> <JCHEM_RULE_OF_FIVE>
1

> <ALOGPS_SOLUBILITY>
7.01e-02 g/l

> <JCHEM_TRADITIONAL_IUPAC>
minaprine

> <JCHEM_VEBER_RULE>
0

> <DRUGBANK_ID>
DB00805

> <SECONDARY_ACCESSION_NUMBERS>
APRD00735

> <DRUG_GROUPS>
approved

> <GENERIC_NAME>
Minaprine

> <SYNONYMS>
4-(2-((4-Methyl-6-phenyl-3-pyridazinyl)amino)ethyl)morpholine; 4-Methyl-3-(2-morpholinoethylamino)-6-phenylpyridazin; Minaprina; Minaprinum; N-(4-Methyl-6-phenyl-3-pyridazinyl)-4-morpholineethanamine

> <INTERNATIONAL_BRANDS>
Cantor

> <SALTS>
Minaprine dihydrochloride

$$$$
