REMARK  Name = 216326
REMARK  2 active torsions:
REMARK  status: ('A' for Active; 'I' for Inactive)
REMARK    1  A    between atoms: N_2  and  C_14
REMARK    2  A    between atoms: C_7  and  N_20
REMARK                            x       y       z     vdW  Elec       q    Type
REMARK                         _______ _______ _______ _____ _____    ______ ____
ROOT
ATOM      1  O   UNL     1       0.624  -2.652   0.001  0.00  0.00    -0.270 OA
ATOM      2  N   UNL     1      -0.109  -0.409  -0.130  0.00  0.00    -0.265 N 
ATOM      3  C   UNL     1       0.517   0.907  -0.174  0.00  0.00    +0.122 C 
ATOM      4  C   UNL     1       1.966   0.562  -0.111  0.00  0.00    +0.015 C 
ATOM      5  C   UNL     1       0.809  -1.450  -0.050  0.00  0.00    +0.249 C 
ATOM      6  C   UNL     1       2.135  -0.821  -0.039  0.00  0.00    +0.052 C 
ATOM      7  C   UNL     1       3.065   1.400  -0.118  0.00  0.00    +0.039 C 
ATOM      8  C   UNL     1       3.379  -1.419   0.029  0.00  0.00    +0.004 C 
ATOM      9  C   UNL     1       4.337   0.821  -0.049  0.00  0.00    +0.014 C 
ATOM     10  C   UNL     1       4.492  -0.576   0.023  0.00  0.00    +0.001 C 
ENDROOT
BRANCH   2  14
ATOM     11  O   UNL     1      -1.526   0.090   2.149  0.00  0.00    -0.273 OA
ATOM     12  O   UNL     1      -5.443   0.757  -0.178  0.00  0.00    -0.275 OA
ATOM     13  N   UNL     1      -3.457   0.435   0.946  0.00  0.00    -0.254 N 
ATOM     14  C   UNL     1      -1.533  -0.610  -0.165  0.00  0.00    +0.153 C 
ATOM     15  C   UNL     1      -2.136  -0.016  -1.428  0.00  0.00    +0.039 C 
ATOM     16  C   UNL     1      -3.640  -0.222  -1.414  0.00  0.00    +0.088 C 
ATOM     17  C   UNL     1      -2.132   0.020   1.080  0.00  0.00    +0.246 C 
ATOM     18  C   UNL     1      -4.270   0.385  -0.182  0.00  0.00    +0.228 C 
ATOM     19  H   UNL     1      -3.870   0.813   1.755  0.00  0.00    +0.158 HD
ENDBRANCH   2  14
BRANCH   7  20
ATOM     20  N   UNL     1       2.921   2.796  -0.191  0.00  0.00    -0.357 N 
ATOM     21  H   UNL     1       2.023   3.197  -0.238  0.00  0.00    +0.142 HD
ATOM     22  H   UNL     1       3.719   3.374  -0.194  0.00  0.00    +0.142 HD
ENDBRANCH   7  20
TORSDOF 2
