REMARK  Name = 2130
REMARK  1 active torsions:
REMARK  status: ('A' for Active; 'I' for Inactive)
REMARK    1  A    between atoms: C_1  and  N_11
REMARK                            x       y       z     vdW  Elec       q    Type
REMARK                         _______ _______ _______ _____ _____    ______ ____
ROOT
ATOM      1  C   UNL     1       1.277  -0.003   0.005  0.00  0.00    -0.049 C 
ATOM      2  C   UNL     1      -0.787  -0.757  -1.244  0.00  0.00    -0.002 C 
ATOM      3  C   UNL     1      -0.795  -0.696   1.276  0.00  0.00    -0.002 C 
ATOM      4  C   UNL     1      -0.788   1.456  -0.037  0.00  0.00    -0.002 C 
ATOM      5  C   UNL     1       0.753  -0.758  -1.236  0.00  0.00    -0.020 C 
ATOM      6  C   UNL     1       0.744  -0.697   1.278  0.00  0.00    -0.020 C 
ATOM      7  C   UNL     1       0.752   1.450  -0.032  0.00  0.00    -0.020 C 
ATOM      8  C   UNL     1      -1.301  -1.446   0.032  0.00  0.00    -0.000 C 
ATOM      9  C   UNL     1      -1.292   0.695  -1.275  0.00  0.00    -0.000 C 
ATOM     10  C   UNL     1      -1.301   0.756   1.232  0.00  0.00    -0.000 C 
ENDROOT
BRANCH   1  11
ATOM     11  N   UNL     1       2.739   0.000   0.000  0.00  0.00    +0.383 N 
ATOM     12  H   UNL     1       3.081  -0.960   0.024  0.00  0.00    -0.089 HD
ATOM     13  H   UNL     1       3.080   0.504   0.818  0.00  0.00    -0.089 HD
ATOM     14  H   UNL     1       3.074   0.459  -0.847  0.00  0.00    -0.089 HD
ENDBRANCH   1  11
TORSDOF 1
