REMARK  Name = 5394
REMARK  1 active torsions:
REMARK  status: ('A' for Active; 'I' for Inactive)
REMARK    1  A    between atoms: C_8  and  C_14
REMARK                            x       y       z     vdW  Elec       q    Type
REMARK                         _______ _______ _______ _____ _____    ______ ____
ROOT
ATOM      1  O   UNL     1       2.650   1.685   0.003  0.00  0.00    -0.250 OA
ATOM      2  N   UNL     1       0.586   0.793   0.001  0.00  0.00    -0.202 N 
ATOM      3  N   UNL     1       2.338  -0.659  -0.001  0.00  0.00    -0.154 N 
ATOM      4  N   UNL     1      -1.468   1.645   0.000  0.00  0.00    -0.240 NA
ATOM      5  N   UNL     1       0.223  -1.530  -0.002  0.00  0.00    -0.126 NA
ATOM      6  N   UNL     1       1.461  -1.725  -0.002  0.00  0.00    -0.040 NA
ATOM      7  C   UNL     1      -0.263  -0.275  -0.001  0.00  0.00    +0.183 C 
ATOM      8  C   UNL     1      -1.525   0.275  -0.002  0.00  0.00    +0.164 C 
ATOM      9  C   UNL     1       1.963   0.676   0.001  0.00  0.00    +0.332 C 
ATOM     10  C   UNL     1      -0.184   1.927   0.002  0.00  0.00    +0.229 C 
ATOM     11  C   UNL     1       3.759  -0.958  -0.001  0.00  0.00    +0.144 C 
ENDROOT
BRANCH   8  14
ATOM     12  O   UNL     1      -2.813  -1.698   0.011  0.00  0.00    -0.269 OA
ATOM     13  N   UNL     1      -3.962   0.287  -0.004  0.00  0.00    -0.324 N 
ATOM     14  C   UNL     1      -2.764  -0.443  -0.004  0.00  0.00    +0.263 C 
ATOM     15  H   UNL     1      -4.826  -0.185  -0.006  0.00  0.00    +0.145 HD
ATOM     16  H   UNL     1      -3.938   1.271  -0.003  0.00  0.00    +0.145 HD
ENDBRANCH   8  14
TORSDOF 1
