REMARK  Name = 5568
REMARK  5 active torsions:
REMARK  status: ('A' for Active; 'I' for Inactive)
REMARK    1  A    between atoms: N_2  and  C_19
REMARK    2  A    between atoms: C_9  and  C_18
REMARK    3  A    between atoms: C_19  and  C_20
REMARK    4  A    between atoms: C_20  and  C_21
REMARK    5  A    between atoms: C_21  and  N_22
REMARK                            x       y       z     vdW  Elec       q    Type
REMARK                         _______ _______ _______ _____ _____    ______ ____
ROOT
ATOM      1  S   UNL     1      -1.695   3.152   0.122  0.00  0.00    -0.084 S 
ATOM      2  N   UNL     1      -0.986   0.158   0.564  0.00  0.00    -0.286 N 
ATOM      3  C   UNL     1       0.112   1.018   0.305  0.00  0.00    +0.058 C 
ATOM      4  C   UNL     1      -2.332   0.425   0.210  0.00  0.00    +0.058 C 
ATOM      5  C   UNL     1      -0.084   2.393   0.065  0.00  0.00    +0.043 C 
ATOM      6  C   UNL     1      -2.770   1.741  -0.039  0.00  0.00    +0.043 C 
ATOM      7  C   UNL     1       1.438   0.539   0.239  0.00  0.00    +0.019 C 
ATOM      8  C   UNL     1      -3.284  -0.607   0.056  0.00  0.00    +0.015 C 
ATOM      9  C   UNL     1       2.518   1.384  -0.028  0.00  0.00    +0.073 C 
ATOM     10  C   UNL     1       1.007   3.240  -0.198  0.00  0.00    +0.008 C 
ATOM     11  C   UNL     1      -4.106   2.000  -0.397  0.00  0.00    +0.008 C 
ATOM     12  C   UNL     1       2.303   2.737  -0.244  0.00  0.00    +0.004 C 
ATOM     13  C   UNL     1      -4.609  -0.344  -0.304  0.00  0.00    +0.001 C 
ATOM     14  C   UNL     1      -5.021   0.961  -0.528  0.00  0.00    +0.001 C 
ENDROOT
BRANCH   9  18
ATOM     15  F   UNL     1       4.858   1.772  -0.340  0.00  0.00    -0.166 F 
ATOM     16  F   UNL     1       4.297   0.244   1.093  0.00  0.00    -0.166 F 
ATOM     17  F   UNL     1       4.055  -0.124  -1.036  0.00  0.00    -0.166 F 
ATOM     18  C   UNL     1       3.904   0.832  -0.075  0.00  0.00    +0.419 C 
ENDBRANCH   9  18
BRANCH   2  19
ATOM     19  C   UNL     1      -0.695  -1.141   1.185  0.00  0.00    +0.093 C 
BRANCH  19  20
ATOM     20  C   UNL     1      -0.441  -2.206   0.119  0.00  0.00    -0.001 C 
BRANCH  20  21
ATOM     21  C   UNL     1      -0.182  -3.611   0.671  0.00  0.00    -0.076 C 
BRANCH  21  22
ATOM     22  N   UNL     1       0.099  -4.570  -0.390  0.00  0.00    +0.384 N 
ATOM     23  C   UNL     1       0.404  -5.887   0.172  0.00  0.00    -0.101 C 
ATOM     24  C   UNL     1       1.209  -4.105  -1.224  0.00  0.00    -0.101 C 
ATOM     25  H   UNL     1      -0.733  -4.652  -0.974  0.00  0.00    -0.080 HD
ENDBRANCH  21  22
ENDBRANCH  20  21
ENDBRANCH  19  20
ENDBRANCH   2  19
TORSDOF 5
