REMARK  Name = 4078
REMARK  4 active torsions:
REMARK  status: ('A' for Active; 'I' for Inactive)
REMARK    1  A    between atoms: N_2  and  C_18
REMARK    2  A    between atoms: C_10  and  S_15
REMARK    3  A    between atoms: C_18  and  C_19
REMARK    4  A    between atoms: C_19  and  C_21
REMARK                            x       y       z     vdW  Elec       q    Type
REMARK                         _______ _______ _______ _____ _____    ______ ____
ROOT
ATOM      1  S   UNL     1      -3.788   1.529   0.343  0.00  0.00    -0.084 S 
ATOM      2  N   UNL     1      -0.785   0.736   0.468  0.00  0.00    -0.286 N 
ATOM      3  C   UNL     1      -1.702  -0.341   0.372  0.00  0.00    +0.058 C 
ATOM      4  C   UNL     1      -1.053   2.071   0.072  0.00  0.00    +0.058 C 
ATOM      5  C   UNL     1      -3.089  -0.109   0.285  0.00  0.00    +0.043 C 
ATOM      6  C   UNL     1      -2.375   2.543  -0.045  0.00  0.00    +0.043 C 
ATOM      7  C   UNL     1      -1.273  -1.686   0.324  0.00  0.00    +0.024 C 
ATOM      8  C   UNL     1      -0.019   2.975  -0.256  0.00  0.00    +0.015 C 
ATOM      9  C   UNL     1      -3.993  -1.181   0.183  0.00  0.00    +0.008 C 
ATOM     10  C   UNL     1      -2.176  -2.747   0.218  0.00  0.00    +0.057 C 
ATOM     11  C   UNL     1      -2.635   3.865  -0.446  0.00  0.00    +0.008 C 
ATOM     12  C   UNL     1      -3.538  -2.495   0.150  0.00  0.00    +0.009 C 
ATOM     13  C   UNL     1      -0.283   4.287  -0.659  0.00  0.00    +0.001 C 
ATOM     14  C   UNL     1      -1.593   4.734  -0.751  0.00  0.00    +0.001 C 
ENDROOT
BRANCH  10  15
ATOM     15  S   UNL     1      -1.574  -4.436   0.159  0.00  0.00    +0.066 S 
ATOM     16  O   UNL     1      -0.191  -4.421   0.746  0.00  0.00    -0.251 OA
ATOM     17  C   UNL     1      -1.387  -4.558  -1.640  0.00  0.00    +0.111 C 
ENDBRANCH  10  15
BRANCH   2  18
ATOM     18  C   UNL     1       0.569   0.432   0.947  0.00  0.00    +0.093 C 
BRANCH  18  19
ATOM     19  C   UNL     1       1.484   0.065  -0.217  0.00  0.00    +0.001 C 
BRANCH  19  21
ATOM     20  N   UNL     1       3.797  -0.640  -0.896  0.00  0.00    +0.387 N 
ATOM     21  C   UNL     1       2.926  -0.219   0.226  0.00  0.00    -0.056 C 
ATOM     22  C   UNL     1       3.485   1.057   0.888  0.00  0.00    -0.021 C 
ATOM     23  C   UNL     1       4.927   0.876   1.346  0.00  0.00    -0.004 C 
ATOM     24  C   UNL     1       5.179  -0.871  -0.441  0.00  0.00    -0.077 C 
ATOM     25  C   UNL     1       5.785   0.379   0.193  0.00  0.00    -0.023 C 
ATOM     26  C   UNL     1       3.303  -1.845  -1.568  0.00  0.00    -0.101 C 
ATOM     27  H   UNL     1       3.781   0.128  -1.568  0.00  0.00    -0.080 HD
ENDBRANCH  19  21
ENDBRANCH  18  19
ENDBRANCH   2  18
TORSDOF 4
