REMARK  Name = 1349907
REMARK  0 active torsions:
REMARK  status: ('A' for Active; 'I' for Inactive)
REMARK                            x       y       z     vdW  Elec       q    Type
REMARK                         _______ _______ _______ _____ _____    ______ ____
ROOT
ATOM      1  S   UNL     1      -2.249  -0.843   0.000  0.00  0.00    -0.018 S 
ATOM      2  N   UNL     1       0.019   0.791   0.000  0.00  0.00    -0.266 N 
ATOM      3  N   UNL     1       0.422  -1.417   0.000  0.00  0.00    -0.293 N 
ATOM      4  C   UNL     1      -0.632  -0.471   0.000  0.00  0.00    +0.142 C 
ATOM      5  C   UNL     1       1.383   0.570   0.000  0.00  0.00    +0.083 C 
ATOM      6  C   UNL     1      -0.562   2.118   0.000  0.00  0.00    +0.119 C 
ATOM      7  C   UNL     1       1.619  -0.748   0.000  0.00  0.00    +0.080 C 
ATOM      8  H   UNL     1       0.313  -2.395   0.000  0.00  0.00    +0.154 HD
ENDROOT
TORSDOF 0
