REMARK  Name = 5656
REMARK  6 active torsions:
REMARK  status: ('A' for Active; 'I' for Inactive)
REMARK    1  A    between atoms: C_1  and  C_2
REMARK    2  A    between atoms: C_1  and  C_10
REMARK    3  A    between atoms: C_1  and  C_18
REMARK    4  A    between atoms: C_2  and  O_8
REMARK    5  A    between atoms: C_15  and  O_16
REMARK    6  A    between atoms: C_18  and  N_19
REMARK                            x       y       z     vdW  Elec       q    Type
REMARK                         _______ _______ _______ _____ _____    ______ ____
ROOT
ATOM      1  C   UNL     1      -0.773  -0.690   0.295  0.00  0.00    +0.026 C 
ENDROOT
BRANCH   1   2
ATOM      2  C   UNL     1      -1.771   0.379  -0.154  0.00  0.00    +0.090 C 
ATOM      3  C   UNL     1      -1.706   1.599   0.778  0.00  0.00    +0.027 C 
ATOM      4  C   UNL     1      -3.196  -0.196  -0.206  0.00  0.00    +0.027 C 
ATOM      5  C   UNL     1      -2.753   2.657   0.424  0.00  0.00    +0.002 C 
ATOM      6  C   UNL     1      -4.237   0.868  -0.559  0.00  0.00    +0.002 C 
ATOM      7  C   UNL     1      -4.158   2.066   0.382  0.00  0.00    +0.000 C 
BRANCH   2   8
ATOM      8  O   UNL     1      -1.393   0.806  -1.466  0.00  0.00    -0.386 OA
ATOM      9  H   UNL     1      -0.494   1.170  -1.441  0.00  0.00    +0.210 HD
ENDBRANCH   2   8
ENDBRANCH   1   2
BRANCH   1  10
ATOM     10  C   UNL     1       0.650  -0.146   0.272  0.00  0.00    -0.022 C 
ATOM     11  C   UNL     1       1.350  -0.064   1.457  0.00  0.00    -0.001 C 
ATOM     12  C   UNL     1       1.193   0.246  -0.934  0.00  0.00    -0.001 C 
ATOM     13  C   UNL     1       2.652   0.434   1.436  0.00  0.00    +0.037 C 
ATOM     14  C   UNL     1       2.496   0.744  -0.955  0.00  0.00    +0.037 C 
ATOM     15  C   UNL     1       3.226   0.838   0.231  0.00  0.00    +0.139 C 
BRANCH  15  16
ATOM     16  O   UNL     1       4.497   1.324   0.211  0.00  0.00    -0.471 OA
ATOM     17  C   UNL     1       5.022   1.718  -1.056  0.00  0.00    +0.252 C 
ENDBRANCH  15  16
ENDBRANCH   1  10
BRANCH   1  18
ATOM     18  C   UNL     1      -0.866  -1.988  -0.536  0.00  0.00    -0.071 C 
BRANCH  18  19
ATOM     19  N   UNL     1       0.048  -3.018  -0.051  0.00  0.00    +0.384 N 
ATOM     20  C   UNL     1      -0.017  -4.205  -0.904  0.00  0.00    -0.101 C 
ATOM     21  C   UNL     1      -0.264  -3.370   1.335  0.00  0.00    -0.101 C 
ATOM     22  H   UNL     1       0.997  -2.647  -0.084  0.00  0.00    -0.080 HD
ENDBRANCH  18  19
ENDBRANCH   1  18
TORSDOF 6
