REMARK  Name = 493570
REMARK  9 active torsions:
REMARK  status: ('A' for Active; 'I' for Inactive)
REMARK    1  A    between atoms: N_3  and  C_20
REMARK    2  A    between atoms: C_20  and  C_21
REMARK    3  A    between atoms: C_21  and  O_22
REMARK    4  A    between atoms: C_21  and  C_24
REMARK    5  A    between atoms: C_24  and  O_25
REMARK    6  A    between atoms: C_24  and  C_27
REMARK    7  A    between atoms: C_27  and  O_28
REMARK    8  A    between atoms: C_27  and  C_30
REMARK    9  A    between atoms: C_30  and  O_31
REMARK                            x       y       z     vdW  Elec       q    Type
REMARK                         _______ _______ _______ _____ _____    ______ ____
ROOT
ATOM      1  O   UNL     1      -4.659   1.632   1.067  0.00  0.00    -0.266 OA
ATOM      2  O   UNL     1      -1.599   4.670  -0.523  0.00  0.00    -0.193 OA
ATOM      3  N   UNL     1      -0.395   0.169  -0.677  0.00  0.00    -0.255 N 
ATOM      4  N   UNL     1      -2.929  -0.352   0.477  0.00  0.00    -0.396 NA
ATOM      5  N   UNL     1      -1.006   2.474  -0.601  0.00  0.00    -0.303 NA
ATOM      6  N   UNL     1      -3.123   3.187   0.266  0.00  0.00    -0.196 N 
ATOM      7  C   UNL     1      -0.774  -1.163  -0.398  0.00  0.00    +0.079 C 
ATOM      8  C   UNL     1      -1.259   1.217  -0.385  0.00  0.00    +0.236 C 
ATOM      9  C   UNL     1      -2.041  -1.396   0.176  0.00  0.00    +0.127 C 
ATOM     10  C   UNL     1       0.044  -2.277  -0.663  0.00  0.00    +0.012 C 
ATOM     11  C   UNL     1      -2.589   0.871   0.226  0.00  0.00    +0.230 C 
ATOM     12  C   UNL     1      -0.379  -3.576  -0.369  0.00  0.00    -0.028 C 
ATOM     13  C   UNL     1      -2.455  -2.705   0.467  0.00  0.00    +0.082 C 
ATOM     14  C   UNL     1      -1.629  -3.791   0.196  0.00  0.00    -0.041 C 
ATOM     15  C   UNL     1      -3.585   1.929   0.573  0.00  0.00    +0.293 C 
ATOM     16  C   UNL     1       0.533  -4.720  -0.672  0.00  0.00    +0.030 C 
ATOM     17  C   UNL     1      -2.104  -5.168   0.521  0.00  0.00    +0.026 C 
ATOM     18  C   UNL     1      -1.886   3.491  -0.301  0.00  0.00    +0.273 C 
ATOM     19  H   UNL     1      -3.722   3.943   0.466  0.00  0.00    +0.169 HD
ENDROOT
BRANCH   3  20
ATOM     20  C   UNL     1       0.920   0.400  -1.272  0.00  0.00    +0.130 C 
BRANCH  20  21
ATOM     21  C   UNL     1       1.969   0.594  -0.170  0.00  0.00    +0.160 C 
BRANCH  21  22
ATOM     22  O   UNL     1       1.577   1.704   0.639  0.00  0.00    -0.380 OA
ATOM     23  H   UNL     1       0.688   1.547   0.995  0.00  0.00    +0.211 HD
ENDBRANCH  21  22
BRANCH  21  24
ATOM     24  C   UNL     1       3.381   0.849  -0.733  0.00  0.00    +0.168 C 
BRANCH  24  25
ATOM     25  O   UNL     1       3.772  -0.246  -1.560  0.00  0.00    -0.379 OA
ATOM     26  H   UNL     1       3.111  -0.376  -2.258  0.00  0.00    +0.211 HD
ENDBRANCH  24  25
BRANCH  24  27
ATOM     27  C   UNL     1       4.443   1.038   0.367  0.00  0.00    +0.169 C 
BRANCH  27  28
ATOM     28  O   UNL     1       5.718   1.243  -0.245  0.00  0.00    -0.379 OA
ATOM     29  H   UNL     1       5.673   2.009  -0.838  0.00  0.00    +0.211 HD
ENDBRANCH  27  28
BRANCH  27  30
ATOM     30  C   UNL     1       4.540  -0.171   1.296  0.00  0.00    +0.169 C 
BRANCH  30  31
ATOM     31  O   UNL     1       5.514   0.098   2.299  0.00  0.00    -0.379 OA
ATOM     32  H   UNL     1       5.584  -0.664   2.895  0.00  0.00    +0.211 HD
ENDBRANCH  30  31
ENDBRANCH  27  30
ENDBRANCH  24  27
ENDBRANCH  21  24
ENDBRANCH  20  21
ENDBRANCH   3  20
TORSDOF 9
