REMARK  Name = 441278
REMARK  3 active torsions:
REMARK  status: ('A' for Active; 'I' for Inactive)
REMARK    1  A    between atoms: N_1  and  C_19
REMARK    2  A    between atoms: C_14  and  O_17
REMARK    3  A    between atoms: C_19  and  C_20
REMARK                            x       y       z     vdW  Elec       q    Type
REMARK                         _______ _______ _______ _____ _____    ______ ____
ROOT
ATOM      1  N   UNL     1       1.601   0.976   0.230  0.00  0.00    +0.391 N 
ATOM      2  C   UNL     1      -1.102   1.353  -0.846  0.00  0.00    +0.015 C 
ATOM      3  C   UNL     1      -0.493   2.257   0.269  0.00  0.00    -0.015 C 
ATOM      4  C   UNL     1       0.486   1.402   1.103  0.00  0.00    -0.053 C 
ATOM      5  C   UNL     1       0.079   0.857  -1.727  0.00  0.00    -0.019 C 
ATOM      6  C   UNL     1      -0.279   0.269   1.821  0.00  0.00    +0.005 C 
ATOM      7  C   UNL     1      -1.792   0.121  -0.240  0.00  0.00    -0.024 C 
ATOM      8  C   UNL     1       1.191   0.172  -0.921  0.00  0.00    -0.076 C 
ATOM      9  C   UNL     1      -1.370  -0.390   1.008  0.00  0.00    -0.028 C 
ATOM     10  C   UNL     1      -2.047   2.193  -1.734  0.00  0.00    +0.004 C 
ATOM     11  C   UNL     1      -1.533   2.972   1.147  0.00  0.00    -0.002 C 
ATOM     12  C   UNL     1      -2.809  -0.564  -0.930  0.00  0.00    +0.032 C 
ATOM     13  C   UNL     1      -1.992  -1.530   1.545  0.00  0.00    -0.002 C 
ATOM     14  C   UNL     1      -3.414  -1.700  -0.387  0.00  0.00    +0.133 C 
ATOM     15  C   UNL     1      -3.008  -2.180   0.851  0.00  0.00    +0.036 C 
ATOM     16  H   UNL     1       1.958   1.853  -0.149  0.00  0.00    -0.079 HD
ENDROOT
BRANCH  14  17
ATOM     17  O   UNL     1      -4.399  -2.339  -1.076  0.00  0.00    -0.506 OA
ATOM     18  H   UNL     1      -4.672  -2.015  -1.912  0.00  0.00    +0.292 HD
ENDBRANCH  14  17
BRANCH   1  19
ATOM     19  C   UNL     1       2.698   0.344   0.956  0.00  0.00    -0.051 C 
BRANCH  19  20
ATOM     20  C   UNL     1       3.903   0.164   0.079  0.00  0.00    -0.058 C 
ATOM     21  C   UNL     1       4.525  -0.982  -0.261  0.00  0.00    -0.050 C 
ATOM     22  C   UNL     1       5.733  -1.091  -1.148  0.00  0.00    +0.026 C 
ATOM     23  C   UNL     1       4.021  -2.303   0.260  0.00  0.00    +0.026 C 
ENDBRANCH  19  20
ENDBRANCH   1  19
TORSDOF 3
