REMARK  Name = 4616
REMARK  2 active torsions:
REMARK  status: ('A' for Active; 'I' for Inactive)
REMARK    1  A    between atoms: C_6  and  C_15
REMARK    2  A    between atoms: C_8  and  O_21
REMARK                            x       y       z     vdW  Elec       q    Type
REMARK                         _______ _______ _______ _____ _____    ______ ____
ROOT
ATOM      1 CL   UNL     1      -0.144   4.476  -1.080  0.00  0.00    -0.082 Cl
ATOM      2  O   UNL     1       2.971  -2.668   1.046  0.00  0.00    -0.270 OA
ATOM      3  N   UNL     1       2.479  -0.440   0.957  0.00  0.00    -0.280 N 
ATOM      4  N   UNL     1       0.252  -1.797  -0.552  0.00  0.00    -0.235 NA
ATOM      5  C   UNL     1       0.541   0.625  -0.184  0.00  0.00    +0.032 C 
ATOM      6  C   UNL     1      -0.246  -0.640  -0.277  0.00  0.00    +0.080 C 
ATOM      7  C   UNL     1       1.775   0.686   0.483  0.00  0.00    +0.052 C 
ATOM      8  C   UNL     1       1.670  -1.917  -0.838  0.00  0.00    +0.295 C 
ATOM      9  C   UNL     1      -0.037   1.804  -0.684  0.00  0.00    +0.014 C 
ATOM     10  C   UNL     1       2.356   1.938   0.731  0.00  0.00    +0.016 C 
ATOM     11  C   UNL     1       2.404  -1.732   0.479  0.00  0.00    +0.278 C 
ATOM     12  C   UNL     1       0.579   3.038  -0.472  0.00  0.00    +0.058 C 
ATOM     13  C   UNL     1       1.766   3.107   0.249  0.00  0.00    +0.013 C 
ATOM     14  H   UNL     1       3.092  -0.287   1.712  0.00  0.00    +0.155 HD
ENDROOT
BRANCH   6  15
ATOM     15  C   UNL     1      -1.711  -0.594  -0.003  0.00  0.00    +0.017 C 
ATOM     16  C   UNL     1      -2.213   0.347   0.887  0.00  0.00    +0.001 C 
ATOM     17  C   UNL     1      -2.558  -1.492  -0.641  0.00  0.00    +0.001 C 
ATOM     18  C   UNL     1      -3.583   0.391   1.144  0.00  0.00    +0.000 C 
ATOM     19  C   UNL     1      -3.928  -1.448  -0.385  0.00  0.00    +0.000 C 
ATOM     20  C   UNL     1      -4.441  -0.506   0.508  0.00  0.00    +0.000 C 
ENDBRANCH   6  15
BRANCH   8  21
ATOM     21  O   UNL     1       2.068  -3.180  -1.367  0.00  0.00    -0.357 OA
ATOM     22  H   UNL     1       1.617  -3.333  -2.212  0.00  0.00    +0.213 HD
ENDBRANCH   8  21
TORSDOF 2
