REMARK  Name = 5280360
REMARK  15 active torsions:
REMARK  status: ('A' for Active; 'I' for Inactive)
REMARK    1  A    between atoms: C_2  and  C_9
REMARK    2  A    between atoms: C_3  and  C_19
REMARK    3  A    between atoms: C_4  and  O_7
REMARK    4  A    between atoms: C_10  and  C_11
REMARK    5  A    between atoms: C_11  and  O_12
REMARK    6  A    between atoms: C_11  and  C_14
REMARK    7  A    between atoms: C_14  and  C_15
REMARK    8  A    between atoms: C_15  and  C_16
REMARK    9  A    between atoms: C_16  and  C_17
REMARK   10  A    between atoms: C_19  and  C_20
REMARK   11  A    between atoms: C_21  and  C_22
REMARK   12  A    between atoms: C_22  and  C_23
REMARK   13  A    between atoms: C_23  and  C_24
REMARK   14  A    between atoms: C_24  and  C_26
REMARK   15  A    between atoms: C_26  and  O_27
REMARK                            x       y       z     vdW  Elec       q    Type
REMARK                         _______ _______ _______ _____ _____    ______ ____
ROOT
ATOM      1  O   UNL     1       4.147   1.826   0.840  0.00  0.00    -0.296 OA
ATOM      2  C   UNL     1       2.299  -1.115   0.183  0.00  0.00    +0.056 C 
ATOM      3  C   UNL     1       2.235   0.411   0.356  0.00  0.00    +0.068 C 
ATOM      4  C   UNL     1       3.562  -1.336  -0.660  0.00  0.00    +0.122 C 
ATOM      5  C   UNL     1       4.582  -0.355  -0.086  0.00  0.00    +0.094 C 
ATOM      6  C   UNL     1       3.708   0.760   0.426  0.00  0.00    +0.153 C 
ENDROOT
BRANCH   4   7
ATOM      7  O   UNL     1       4.019  -2.671  -0.513  0.00  0.00    -0.384 OA
ATOM      8  H   UNL     1       3.361  -3.280  -0.882  0.00  0.00    +0.210 HD
ENDBRANCH   4   7
BRANCH   2   9
ATOM      9  C   UNL     1       1.068  -1.673  -0.455  0.00  0.00    -0.026 C 
ATOM     10  C   UNL     1       0.289  -2.605   0.114  0.00  0.00    -0.002 C 
BRANCH  10  11
ATOM     11  C   UNL     1      -0.947  -3.165  -0.532  0.00  0.00    +0.132 C 
BRANCH  11  12
ATOM     12  O   UNL     1      -0.752  -4.566  -0.737  0.00  0.00    -0.380 OA
ATOM     13  H   UNL     1       0.037  -4.706  -1.284  0.00  0.00    +0.211 HD
ENDBRANCH  11  12
BRANCH  11  14
ATOM     14  C   UNL     1      -2.202  -2.997   0.335  0.00  0.00    +0.034 C 
BRANCH  14  15
ATOM     15  C   UNL     1      -2.762  -1.572   0.318  0.00  0.00    +0.003 C 
BRANCH  15  16
ATOM     16  C   UNL     1      -3.967  -1.381   1.244  0.00  0.00    +0.000 C 
BRANCH  16  17
ATOM     17  C   UNL     1      -4.572   0.021   1.177  0.00  0.00    +0.000 C 
ATOM     18  C   UNL     1      -5.757   0.160   2.121  0.00  0.00    +0.000 C 
ENDBRANCH  16  17
ENDBRANCH  15  16
ENDBRANCH  14  15
ENDBRANCH  11  14
ENDBRANCH  10  11
ENDBRANCH   2   9
BRANCH   3  19
ATOM     19  C   UNL     1       1.474   0.846   1.596  0.00  0.00    +0.033 C 
BRANCH  19  20
ATOM     20  C   UNL     1       1.430   2.322   1.887  0.00  0.00    -0.030 C 
ATOM     21  C   UNL     1       0.543   3.213   1.419  0.00  0.00    -0.031 C 
BRANCH  21  22
ATOM     22  C   UNL     1      -0.586   2.855   0.497  0.00  0.00    +0.026 C 
BRANCH  22  23
ATOM     23  C   UNL     1      -0.535   3.586  -0.852  0.00  0.00    +0.016 C 
BRANCH  23  24
ATOM     24  C   UNL     1      -1.696   3.242  -1.790  0.00  0.00    +0.110 C 
BRANCH  24  26
ATOM     25  O   UNL     1      -0.794   1.030  -2.264  0.00  0.00    -0.250 OA
ATOM     26  C   UNL     1      -1.757   1.779  -2.172  0.00  0.00    +0.314 C 
BRANCH  26  27
ATOM     27  O   UNL     1      -3.027   1.386  -2.452  0.00  0.00    -0.480 OA
ATOM     28  H   UNL     1      -3.735   1.994  -2.368  0.00  0.00    +0.295 HD
ENDBRANCH  26  27
ENDBRANCH  24  26
ENDBRANCH  23  24
ENDBRANCH  22  23
ENDBRANCH  21  22
ENDBRANCH  19  20
ENDBRANCH   3  19
TORSDOF 15
