REMARK  Name = 4748
REMARK  7 active torsions:
REMARK  status: ('A' for Active; 'I' for Inactive)
REMARK    1  A    between atoms: N_3  and  C_16
REMARK    2  A    between atoms: C_16  and  C_17
REMARK    3  A    between atoms: C_17  and  C_18
REMARK    4  A    between atoms: C_18  and  N_19
REMARK    5  A    between atoms: N_20  and  C_27
REMARK    6  A    between atoms: C_27  and  C_28
REMARK    7  A    between atoms: C_28  and  O_29
REMARK                            x       y       z     vdW  Elec       q    Type
REMARK                         _______ _______ _______ _____ _____    ______ ____
ROOT
ATOM      1 CL   UNL     1       2.220  -4.884  -0.275  0.00  0.00    -0.082 Cl
ATOM      2  S   UNL     1       5.090   0.715  -0.399  0.00  0.00    -0.084 S 
ATOM      3  N   UNL     1       2.206   0.211   0.645  0.00  0.00    -0.286 N 
ATOM      4  C   UNL     1       2.898  -0.933   0.174  0.00  0.00    +0.058 C 
ATOM      5  C   UNL     1       2.504   1.550   0.284  0.00  0.00    +0.058 C 
ATOM      6  C   UNL     1       4.203  -0.830  -0.346  0.00  0.00    +0.043 C 
ATOM      7  C   UNL     1       3.771   1.899  -0.225  0.00  0.00    +0.043 C 
ATOM      8  C   UNL     1       2.306  -2.216   0.169  0.00  0.00    +0.027 C 
ATOM      9  C   UNL     1       1.545   2.582   0.381  0.00  0.00    +0.015 C 
ATOM     10  C   UNL     1       4.882  -1.966  -0.819  0.00  0.00    +0.009 C 
ATOM     11  C   UNL     1       4.059   3.227  -0.589  0.00  0.00    +0.008 C 
ATOM     12  C   UNL     1       2.984  -3.341  -0.307  0.00  0.00    +0.059 C 
ATOM     13  C   UNL     1       1.835   3.898   0.013  0.00  0.00    +0.001 C 
ATOM     14  C   UNL     1       4.274  -3.217  -0.799  0.00  0.00    +0.012 C 
ATOM     15  C   UNL     1       3.094   4.222  -0.469  0.00  0.00    +0.001 C 
ENDROOT
BRANCH   3  16
ATOM     16  C   UNL     1       1.046  -0.011   1.518  0.00  0.00    +0.093 C 
BRANCH  16  17
ATOM     17  C   UNL     1      -0.235  -0.135   0.693  0.00  0.00    -0.001 C 
BRANCH  17  18
ATOM     18  C   UNL     1      -1.511  -0.314   1.522  0.00  0.00    -0.076 C 
BRANCH  18  19
ATOM     19  N   UNL     1      -2.693  -0.474   0.676  0.00  0.00    +0.384 N 
ATOM     20  N   UNL     1      -5.319   0.304  -0.251  0.00  0.00    +0.386 N 
ATOM     21  C   UNL     1      -3.890  -0.707   1.493  0.00  0.00    -0.101 C 
ATOM     22  C   UNL     1      -2.881   0.700  -0.185  0.00  0.00    -0.101 C 
ATOM     23  C   UNL     1      -5.132  -0.871   0.609  0.00  0.00    -0.101 C 
ATOM     24  C   UNL     1      -4.122   0.535  -1.069  0.00  0.00    -0.101 C 
ATOM     25  H   UNL     1      -2.547  -1.289   0.081  0.00  0.00    -0.080 HD
ATOM     26  H   UNL     1      -5.464   1.119   0.344  0.00  0.00    -0.080 HD
BRANCH  20  27
ATOM     27  C   UNL     1      -6.501   0.146  -1.095  0.00  0.00    -0.045 C 
BRANCH  27  28
ATOM     28  C   UNL     1      -7.755   0.022  -0.245  0.00  0.00    +0.115 C 
BRANCH  28  29
ATOM     29  O   UNL     1      -8.879  -0.112  -1.105  0.00  0.00    -0.384 OA
ATOM     30  H   UNL     1      -9.686  -0.192  -0.572  0.00  0.00    +0.210 HD
ENDBRANCH  28  29
ENDBRANCH  27  28
ENDBRANCH  20  27
ENDBRANCH  18  19
ENDBRANCH  17  18
ENDBRANCH  16  17
ENDBRANCH   3  16
TORSDOF 7
