REMARK  Name = 3182
REMARK  5 active torsions:
REMARK  status: ('A' for Active; 'I' for Inactive)
REMARK    1  A    between atoms: N_3  and  C_14
REMARK    2  A    between atoms: C_14  and  C_15
REMARK    3  A    between atoms: C_15  and  O_16
REMARK    4  A    between atoms: C_15  and  C_18
REMARK    5  A    between atoms: C_18  and  O_19
REMARK                            x       y       z     vdW  Elec       q    Type
REMARK                         _______ _______ _______ _____ _____    ______ ____
ROOT
ATOM      1  O   UNL     1      -0.231  -2.127   0.592  0.00  0.00    -0.272 OA
ATOM      2  O   UNL     1       4.100  -0.750  -0.574  0.00  0.00    -0.252 OA
ATOM      3  N   UNL     1      -0.911   0.786   0.630  0.00  0.00    -0.237 NA
ATOM      4  N   UNL     1       2.482   0.888  -0.237  0.00  0.00    -0.228 N 
ATOM      5  N   UNL     1       1.945  -1.461   0.007  0.00  0.00    -0.211 N 
ATOM      6  N   UNL     1       0.575   2.387   0.180  0.00  0.00    -0.240 NA
ATOM      7  C   UNL     1       0.267   0.150   0.359  0.00  0.00    +0.192 C 
ATOM      8  C   UNL     1       1.158   1.152   0.088  0.00  0.00    +0.136 C 
ATOM      9  C   UNL     1       0.583  -1.242   0.343  0.00  0.00    +0.254 C 
ATOM     10  C   UNL     1      -0.675   2.132   0.509  0.00  0.00    +0.203 C 
ATOM     11  C   UNL     1       2.933  -0.455  -0.290  0.00  0.00    +0.318 C 
ATOM     12  C   UNL     1       3.401   1.984  -0.519  0.00  0.00    +0.123 C 
ATOM     13  C   UNL     1       2.391  -2.850  -0.042  0.00  0.00    +0.124 C 
ENDROOT
BRANCH   3  14
ATOM     14  C   UNL     1      -2.175   0.184   0.980  0.00  0.00    +0.106 C 
BRANCH  14  15
ATOM     15  C   UNL     1      -3.035  -0.120  -0.248  0.00  0.00    +0.156 C 
BRANCH  15  16
ATOM     16  O   UNL     1      -3.318   1.109  -0.919  0.00  0.00    -0.380 OA
ATOM     17  H   UNL     1      -2.486   1.532  -1.184  0.00  0.00    +0.211 HD
ENDBRANCH  15  16
BRANCH  15  18
ATOM     18  C   UNL     1      -4.357  -0.765   0.156  0.00  0.00    +0.168 C 
BRANCH  18  19
ATOM     19  O   UNL     1      -5.131  -1.002  -1.014  0.00  0.00    -0.379 OA
ATOM     20  H   UNL     1      -5.975  -1.412  -0.767  0.00  0.00    +0.211 HD
ENDBRANCH  18  19
ENDBRANCH  15  18
ENDBRANCH  14  15
ENDBRANCH   3  14
TORSDOF 5
