REMARK  Name = 5447130
REMARK  4 active torsions:
REMARK  status: ('A' for Active; 'I' for Inactive)
REMARK    1  A    between atoms: N_1  and  C_2
REMARK    2  A    between atoms: N_1  and  N_4
REMARK    3  A    between atoms: C_2  and  C_11
REMARK    4  A    between atoms: C_13  and  N_17
REMARK                            x       y       z     vdW  Elec       q    Type
REMARK                         _______ _______ _______ _____ _____    ______ ____
ROOT
ATOM      1  C   UNL     1      -0.857  -0.529   0.000  0.00  0.00    +0.176 C 
ENDROOT
BRANCH   1   3
ATOM      2  O   UNL     1       1.524  -0.643   0.000  0.00  0.00    -0.436 OA
ATOM      3  C   UNL     1       0.432   0.142   0.000  0.00  0.00    +0.144 C 
ATOM      4  C   UNL     1       0.738   1.462   0.000  0.00  0.00    +0.040 C 
ATOM      5  C   UNL     1       2.583   0.209   0.000  0.00  0.00    +0.289 C 
ATOM      6  C   UNL     1       2.152   1.515   0.000  0.00  0.00    +0.066 C 
BRANCH   5   9
ATOM      7  O   UNL     1       4.886   0.320  -0.001  0.00  0.00    -0.123 OA
ATOM      8  O   UNL     1       3.936  -1.659   0.000  0.00  0.00    -0.123 OA
ATOM      9  N   UNL     1       3.841  -0.396   0.000  0.00  0.00    +0.093 N 
ENDBRANCH   5   9
ENDBRANCH   1   3
BRANCH   1  10
ATOM     10  N   UNL     1      -1.971   0.129   0.000  0.00  0.00    -0.122 NA
BRANCH  10  12
ATOM     11  O   UNL     1      -4.526   1.155   0.000  0.00  0.00    -0.252 OA
ATOM     12  N   UNL     1      -3.073  -0.655   0.000  0.00  0.00    -0.216 N 
ATOM     13  N   UNL     1      -5.343  -0.991   0.000  0.00  0.00    -0.312 N 
ATOM     14  C   UNL     1      -4.322  -0.058   0.000  0.00  0.00    +0.312 C 
ATOM     15  H   UNL     1      -2.987  -1.636  -0.001  0.00  0.00    +0.172 HD
ATOM     16  H   UNL     1      -6.282  -0.694   0.000  0.00  0.00    +0.147 HD
ATOM     17  H   UNL     1      -5.131  -1.953   0.001  0.00  0.00    +0.147 HD
ENDBRANCH  10  12
ENDBRANCH   1  10
TORSDOF 4
