REMARK  Name = 6918140
REMARK  13 active torsions:
REMARK  status: ('A' for Active; 'I' for Inactive)
REMARK    1  A    between atoms: C_3  and  C_22
REMARK    2  A    between atoms: C_4  and  O_14
REMARK    3  A    between atoms: C_10  and  O_16
REMARK    4  A    between atoms: O_16  and  C_17
REMARK    5  A    between atoms: C_17  and  C_19
REMARK    6  A    between atoms: C_19  and  O_20
REMARK    7  A    between atoms: C_22  and  C_23
REMARK    8  A    between atoms: C_23  and  C_24
REMARK    9  A    between atoms: C_24  and  O_25
REMARK   10  A    between atoms: C_24  and  C_27
REMARK   11  A    between atoms: C_27  and  C_28
REMARK   12  A    between atoms: C_28  and  C_29
REMARK   13  A    between atoms: C_29  and  C_30
REMARK                            x       y       z     vdW  Elec       q    Type
REMARK                         _______ _______ _______ _____ _____    ______ ____
ROOT
ATOM      1  C   UNL     1      -0.587   2.060   1.532  0.00  0.00    +0.007 C 
ATOM      2  C   UNL     1      -1.490   0.929   2.099  0.00  0.00    +0.007 C 
ATOM      3  C   UNL     1       0.728   1.360   1.118  0.00  0.00    +0.027 C 
ATOM      4  C   UNL     1       0.787   0.141   2.035  0.00  0.00    +0.110 C 
ATOM      5  C   UNL     1      -0.650  -0.354   2.005  0.00  0.00    +0.030 C 
ATOM      6  C   UNL     1      -1.216   2.870   0.389  0.00  0.00    +0.026 C 
ATOM      7  C   UNL     1      -2.859   0.785   1.423  0.00  0.00    +0.029 C 
ATOM      8  C   UNL     1      -1.962   1.990  -0.580  0.00  0.00    -0.023 C 
ATOM      9  C   UNL     1      -2.771   0.961  -0.070  0.00  0.00    +0.008 C 
ATOM     10  C   UNL     1      -3.510   0.160  -0.945  0.00  0.00    +0.135 C 
ATOM     11  C   UNL     1      -1.900   2.207  -1.960  0.00  0.00    -0.004 C 
ATOM     12  C   UNL     1      -3.433   0.373  -2.321  0.00  0.00    +0.037 C 
ATOM     13  C   UNL     1      -2.630   1.395  -2.827  0.00  0.00    +0.003 C 
ENDROOT
BRANCH   4  14
ATOM     14  O   UNL     1       1.680  -0.834   1.532  0.00  0.00    -0.384 OA
ATOM     15  H   UNL     1       2.586  -0.490   1.564  0.00  0.00    +0.210 HD
ENDBRANCH   4  14
BRANCH  10  16
ATOM     16  O   UNL     1      -4.319  -0.836  -0.483  0.00  0.00    -0.464 OA
BRANCH  16  17
ATOM     17  C   UNL     1      -4.030  -2.161  -0.923  0.00  0.00    +0.314 C 
BRANCH  17  19
ATOM     18  O   UNL     1      -4.950  -2.875   1.209  0.00  0.00    -0.246 OA
ATOM     19  C   UNL     1      -4.455  -3.150   0.127  0.00  0.00    +0.359 C 
BRANCH  19  20
ATOM     20  O   UNL     1      -4.212  -4.416  -0.297  0.00  0.00    -0.478 OA
ATOM     21  H   UNL     1      -3.830  -4.563  -1.139  0.00  0.00    +0.295 HD
ENDBRANCH  19  20
ENDBRANCH  17  19
ENDBRANCH  16  17
ENDBRANCH  10  16
BRANCH   3  22
ATOM     22  C   UNL     1       1.957   2.252   1.252  0.00  0.00    +0.005 C 
BRANCH  22  23
ATOM     23  C   UNL     1       3.257   1.560   0.832  0.00  0.00    +0.029 C 
BRANCH  23  24
ATOM     24  C   UNL     1       3.314   1.160  -0.650  0.00  0.00    +0.111 C 
BRANCH  24  25
ATOM     25  O   UNL     1       3.122   2.318  -1.463  0.00  0.00    -0.384 OA
ATOM     26  H   UNL     1       2.283   2.744  -1.226  0.00  0.00    +0.210 HD
ENDBRANCH  24  25
BRANCH  24  27
ATOM     27  C   UNL     1       4.649   0.517  -1.053  0.00  0.00    +0.029 C 
BRANCH  27  28
ATOM     28  C   UNL     1       4.933  -0.806  -0.341  0.00  0.00    +0.002 C 
BRANCH  28  29
ATOM     29  C   UNL     1       6.234  -1.437  -0.844  0.00  0.00    +0.000 C 
BRANCH  29  30
ATOM     30  C   UNL     1       6.502  -2.778  -0.161  0.00  0.00    +0.000 C 
ATOM     31  C   UNL     1       7.809  -3.392  -0.634  0.00  0.00    +0.000 C 
ENDBRANCH  29  30
ENDBRANCH  28  29
ENDBRANCH  27  28
ENDBRANCH  24  27
ENDBRANCH  23  24
ENDBRANCH  22  23
ENDBRANCH   3  22
TORSDOF 13
