REMARK  Name = 1060
REMARK  2 active torsions:
REMARK  status: ('A' for Active; 'I' for Inactive)
REMARK    1  A    between atoms: C_2  and  C_4
REMARK    2  A    between atoms: C_2  and  O_6
REMARK                            x       y       z     vdW  Elec       q    Type
REMARK                         _______ _______ _______ _____ _____    ______ ____
ROOT
ATOM      1  O   UNL     1      -1.194   1.282  -0.018  0.00  0.00    -0.242 OA
ATOM      2  C   UNL     1      -0.762   0.148   0.014  0.00  0.00    +0.373 C 
ENDROOT
BRANCH   2   4
ATOM      3  O   UNL     1       1.059  -1.317  -0.014  0.00  0.00    -0.284 OA
ATOM      4  C   UNL     1       0.711  -0.145   0.000  0.00  0.00    +0.248 C 
ATOM      5  C   UNL     1       1.644   1.027   0.010  0.00  0.00    +0.084 C 
ENDBRANCH   2   4
BRANCH   2   6
ATOM      6  O   UNL     1      -1.458  -0.996   0.008  0.00  0.00    -0.475 OA
ATOM      7  H   UNL     1      -1.009  -1.818   0.036  0.00  0.00    +0.295 HD
ENDBRANCH   2   6
TORSDOF 2
