REMARK  Name = 34312
REMARK  0 active torsions:
REMARK  status: ('A' for Active; 'I' for Inactive)
REMARK                            x       y       z     vdW  Elec       q    Type
REMARK                         _______ _______ _______ _____ _____    ______ ____
ROOT
ATOM      1  O   UNL     1       1.096  -3.063  -1.013  0.00  0.00    -0.291 OA
ATOM      2  O   UNL     1       0.762   3.077  -1.044  0.00  0.00    -0.252 OA
ATOM      3  N   UNL     1      -0.128   1.036  -0.279  0.00  0.00    -0.222 N 
ATOM      4  N   UNL     1      -1.482   2.798  -1.105  0.00  0.00    -0.313 N 
ATOM      5  C   UNL     1      -1.554  -0.957  -0.417  0.00  0.00    -0.000 C 
ATOM      6  C   UNL     1      -1.280   0.300   0.133  0.00  0.00    +0.056 C 
ATOM      7  C   UNL     1      -0.642  -1.518  -1.460  0.00  0.00    +0.097 C 
ATOM      8  C   UNL     1       1.140   0.448   0.088  0.00  0.00    +0.062 C 
ATOM      9  C   UNL     1       1.493  -0.907  -0.111  0.00  0.00    +0.049 C 
ATOM     10  C   UNL     1       0.676  -1.916  -0.860  0.00  0.00    +0.179 C 
ATOM     11  C   UNL     1      -2.684  -1.667   0.009  0.00  0.00    -0.003 C 
ATOM     12  C   UNL     1      -2.148   0.840   1.096  0.00  0.00    +0.015 C 
ATOM     13  C   UNL     1       2.076   1.278   0.747  0.00  0.00    +0.015 C 
ATOM     14  C   UNL     1       2.743  -1.375   0.347  0.00  0.00    +0.004 C 
ATOM     15  C   UNL     1      -0.207   2.355  -0.792  0.00  0.00    +0.308 C 
ATOM     16  C   UNL     1      -3.540  -1.127   0.968  0.00  0.00    -0.000 C 
ATOM     17  C   UNL     1      -3.273   0.127   1.510  0.00  0.00    +0.001 C 
ATOM     18  C   UNL     1       3.310   0.800   1.189  0.00  0.00    +0.001 C 
ATOM     19  C   UNL     1       3.643  -0.529   0.991  0.00  0.00    +0.000 C 
ATOM     20  H   UNL     1      -1.614   3.704  -1.465  0.00  0.00    +0.147 HD
ATOM     21  H   UNL     1      -2.257   2.206  -0.966  0.00  0.00    +0.147 HD
ENDROOT
TORSDOF 0
