REMARK  Name = 4543
REMARK  3 active torsions:
REMARK  status: ('A' for Active; 'I' for Inactive)
REMARK    1  A    between atoms: C_8  and  C_17
REMARK    2  A    between atoms: C_17  and  C_18
REMARK    3  A    between atoms: C_18  and  N_19
REMARK                            x       y       z     vdW  Elec       q    Type
REMARK                         _______ _______ _______ _____ _____    ______ ____
ROOT
ATOM      1  C   UNL     1      -2.195   0.995  -1.528  0.00  0.00    +0.031 C 
ATOM      2  C   UNL     1      -0.746   1.341  -1.872  0.00  0.00    +0.031 C 
ATOM      3  C   UNL     1      -2.476  -0.193  -0.625  0.00  0.00    -0.022 C 
ATOM      4  C   UNL     1       0.004   1.869  -0.676  0.00  0.00    -0.022 C 
ATOM      5  C   UNL     1      -0.130  -0.394   0.353  0.00  0.00    -0.005 C 
ATOM      6  C   UNL     1      -1.547  -0.827   0.229  0.00  0.00    -0.004 C 
ATOM      7  C   UNL     1       0.297   1.020   0.404  0.00  0.00    -0.004 C 
ATOM      8  C   UNL     1       0.850  -1.318   0.325  0.00  0.00    -0.028 C 
ATOM      9  C   UNL     1      -3.811  -0.657  -0.636  0.00  0.00    -0.004 C 
ATOM     10  C   UNL     1       0.410   3.210  -0.627  0.00  0.00    -0.004 C 
ATOM     11  C   UNL     1      -1.994  -1.890   1.047  0.00  0.00    -0.000 C 
ATOM     12  C   UNL     1       0.983   1.525   1.519  0.00  0.00    -0.000 C 
ATOM     13  C   UNL     1      -4.225  -1.718   0.166  0.00  0.00    -0.000 C 
ATOM     14  C   UNL     1       1.096   3.702   0.483  0.00  0.00    -0.000 C 
ATOM     15  C   UNL     1      -3.315  -2.334   1.010  0.00  0.00    -0.000 C 
ATOM     16  C   UNL     1       1.381   2.861   1.555  0.00  0.00    -0.000 C 
ENDROOT
BRANCH   8  17
ATOM     17  C   UNL     1       2.304  -0.989   0.441  0.00  0.00    +0.003 C 
BRANCH  17  18
ATOM     18  C   UNL     1       3.156  -1.990  -0.338  0.00  0.00    -0.077 C 
BRANCH  18  19
ATOM     19  N   UNL     1       4.569  -1.644  -0.230  0.00  0.00    +0.383 N 
ATOM     20  C   UNL     1       5.389  -2.568  -0.999  0.00  0.00    -0.106 C 
ATOM     21  H   UNL     1       4.849  -1.684   0.750  0.00  0.00    -0.085 HD
ATOM     22  H   UNL     1       4.703  -0.703  -0.601  0.00  0.00    -0.085 HD
ENDBRANCH  18  19
ENDBRANCH  17  18
ENDBRANCH   8  17
TORSDOF 3
