REMARK  Name = 5484727
REMARK  11 active torsions:
REMARK  status: ('A' for Active; 'I' for Inactive)
REMARK    1  A    between atoms: N_1  and  CA_4
REMARK    2  A    between atoms: N_1  and  C_21
REMARK    3  A    between atoms: CA_4  and  C_16
REMARK    4  A    between atoms: CA_11  and  C_18
REMARK    5  A    between atoms: C_18  and  O_19
REMARK    6  A    between atoms: C_21  and  C_23
REMARK    7  A    between atoms: C_21  and  C_27
REMARK    8  A    between atoms: C_23  and  O_24
REMARK    9  A    between atoms: O_24  and  C_25
REMARK   10  A    between atoms: C_27  and  C_28
REMARK   11  A    between atoms: C_28  and  C_29
REMARK                            x       y       z     vdW  Elec       q    Type
REMARK                         _______ _______ _______ _____ _____    ______ ____
ROOT
ATOM      1  N   ALA A   1      -0.683   1.964  -0.065  0.00  0.00    +0.399 N 
ATOM      2  H1  ALA A   1      -0.461   2.959  -0.024  0.00  0.00    -0.083 HD
ATOM      3  H2  ALA A   1      -0.684   1.558   0.871  0.00  0.00    -0.083 HD
ENDROOT
BRANCH   1   4
ATOM      4  CA  ALA A   1       0.326   1.286  -0.860  0.00  0.00    +0.018 C 
ATOM      5  CB  ALA A   1       0.374   1.841  -2.269  0.00  0.00    -0.014 C 
BRANCH   4  16
ATOM      6  O   ALA A   1       1.840   2.556   0.453  0.00  0.00    -0.277 OA
ATOM      7  N   ALA A   1       2.584   0.492  -0.299  0.00  0.00    -0.275 N 
ATOM      8  C   ALA A   1       4.605  -0.702  -0.200  0.00  0.00    +0.020 C 
ATOM      9  C   ALA A   1       4.006   0.698  -0.036  0.00  0.00    +0.076 C 
ATOM     10  C   ALA A   1       3.807  -1.253  -1.373  0.00  0.00    +0.033 C 
ATOM     11  CA  ALA A   1       2.389  -0.765  -1.036  0.00  0.00    +0.174 C 
ATOM     12  C   ALA A   1       6.115  -0.617  -0.317  0.00  0.00    +0.002 C 
ATOM     13  C   ALA A   1       4.445   1.255   1.314  0.00  0.00    +0.020 C 
ATOM     14  C   ALA A   1       6.672   0.009   0.971  0.00  0.00    +0.000 C 
ATOM     15  C   ALA A   1       5.981   1.328   1.353  0.00  0.00    +0.002 C 
ATOM     16  C   ALA A   1       1.649   1.512  -0.172  0.00  0.00    +0.206 C 
BRANCH  11  18
ATOM     17  OXT ALA A   1       1.326  -1.510   1.003  0.00  0.00    -0.248 OA
ATOM     18  C   ALA A   1       1.687  -1.742  -0.141  0.00  0.00    +0.332 C 
BRANCH  18  19
ATOM     19  O   ALA A   1       1.508  -2.927  -0.773  0.00  0.00    -0.479 OA
ATOM     20  H   ALA A   1       1.810  -3.039  -1.653  0.00  0.00    +0.295 HD
ENDBRANCH  18  19
ENDBRANCH  11  18
ENDBRANCH   4  16
ENDBRANCH   1   4
BRANCH   1  21
ATOM     21  C   UNK A   0      -2.010   1.796  -0.645  0.00  0.00    +0.041 C 
BRANCH  21  23
ATOM     22  O   UNK A   0      -2.720   3.079   1.307  0.00  0.00    -0.252 OA
ATOM     23  C   UNK A   0      -2.998   2.519   0.255  0.00  0.00    +0.297 C 
BRANCH  23  24
ATOM     24  O   UNK A   0      -4.245   2.449  -0.302  0.00  0.00    -0.450 OA
BRANCH  24  25
ATOM     25  C   UNK A   0      -5.288   3.098   0.434  0.00  0.00    +0.208 C 
ATOM     26  C   UNK A   0      -6.595   2.931  -0.311  0.00  0.00    +0.051 C 
ENDBRANCH  24  25
ENDBRANCH  23  24
ENDBRANCH  21  23
BRANCH  21  27
ATOM     27  C   UNK A   0      -2.399   0.313  -0.753  0.00  0.00    -0.006 C 
BRANCH  27  28
ATOM     28  C   UNK A   0      -2.467  -0.446   0.580  0.00  0.00    +0.025 C 
BRANCH  28  29
ATOM     29  C   UNK A   0      -2.911  -1.880   0.441  0.00  0.00    -0.022 C 
ATOM     30  C   UNK A   0      -1.962  -2.871   0.243  0.00  0.00    -0.004 C 
ATOM     31  C   UNK A   0      -4.262  -2.185   0.514  0.00  0.00    -0.004 C 
ATOM     32  C   UNK A   0      -2.373  -4.198   0.114  0.00  0.00    -0.000 C 
ATOM     33  C   UNK A   0      -4.673  -3.512   0.385  0.00  0.00    -0.000 C 
ATOM     34  C   UNK A   0      -3.728  -4.518   0.185  0.00  0.00    -0.000 C 
ENDBRANCH  28  29
ENDBRANCH  27  28
ENDBRANCH  21  27
ENDBRANCH   1  21
TORSDOF 11
