REMARK  Name = 2678
REMARK  9 active torsions:
REMARK  status: ('A' for Active; 'I' for Inactive)
REMARK    1  A    between atoms: N_1  and  C_9
REMARK    2  A    between atoms: N_2  and  C_23
REMARK    3  A    between atoms: C_9  and  C_11
REMARK    4  A    between atoms: C_9  and  C_17
REMARK    5  A    between atoms: C_23  and  C_24
REMARK    6  A    between atoms: C_24  and  O_25
REMARK    7  A    between atoms: O_25  and  C_26
REMARK    8  A    between atoms: C_26  and  C_28
REMARK    9  A    between atoms: C_28  and  O_29
REMARK                            x       y       z     vdW  Elec       q    Type
REMARK                         _______ _______ _______ _____ _____    ______ ____
ROOT
ATOM      1  N   UNL     1      -0.716  -0.011  -0.101  0.00  0.00    +0.390 N 
ATOM      2  N   UNL     1       2.057   0.761  -0.361  0.00  0.00    +0.386 N 
ATOM      3  C   UNL     1      -0.338   1.363  -0.451  0.00  0.00    -0.100 C 
ATOM      4  C   UNL     1       0.297  -0.959  -0.581  0.00  0.00    -0.100 C 
ATOM      5  C   UNL     1       1.043   1.709   0.117  0.00  0.00    -0.101 C 
ATOM      6  C   UNL     1       1.679  -0.614  -0.014  0.00  0.00    -0.101 C 
ATOM      7  H   UNL     1      -0.768  -0.082   0.915  0.00  0.00    -0.079 HD
ATOM      8  H   UNL     1       2.110   0.833  -1.378  0.00  0.00    -0.080 HD
ENDROOT
BRANCH   1   9
ATOM      9  C   UNL     1      -2.033  -0.341  -0.643  0.00  0.00    -0.012 C 
BRANCH   9  11
ATOM     10 CL   UNL     1      -6.102   3.858   0.711  0.00  0.00    -0.082 Cl
ATOM     11  C   UNL     1      -3.064   0.724  -0.300  0.00  0.00    -0.038 C 
ATOM     12  C   UNL     1      -3.788   0.599   0.869  0.00  0.00    -0.005 C 
ATOM     13  C   UNL     1      -3.245   1.782  -1.167  0.00  0.00    -0.005 C 
ATOM     14  C   UNL     1      -4.734   1.575   1.183  0.00  0.00    +0.011 C 
ATOM     15  C   UNL     1      -4.191   2.758  -0.852  0.00  0.00    +0.011 C 
ATOM     16  C   UNL     1      -4.935   2.655   0.323  0.00  0.00    +0.058 C 
ENDBRANCH   9  11
BRANCH   9  17
ATOM     17  C   UNL     1      -2.500  -1.734  -0.247  0.00  0.00    -0.038 C 
ATOM     18  C   UNL     1      -3.331  -2.427  -1.103  0.00  0.00    -0.006 C 
ATOM     19  C   UNL     1      -2.079  -2.262   0.956  0.00  0.00    -0.006 C 
ATOM     20  C   UNL     1      -3.760  -3.704  -0.740  0.00  0.00    -0.000 C 
ATOM     21  C   UNL     1      -2.508  -3.539   1.319  0.00  0.00    -0.000 C 
ATOM     22  C   UNL     1      -3.348  -4.260   0.471  0.00  0.00    -0.000 C 
ENDBRANCH   9  17
ENDBRANCH   1   9
BRANCH   2  23
ATOM     23  C   UNL     1       3.373   1.091   0.183  0.00  0.00    -0.045 C 
BRANCH  23  24
ATOM     24  C   UNL     1       4.440   0.181  -0.405  0.00  0.00    +0.120 C 
BRANCH  24  25
ATOM     25  O   UNL     1       5.702   0.547   0.138  0.00  0.00    -0.345 OA
BRANCH  25  26
ATOM     26  C   UNL     1       6.743  -0.284  -0.357  0.00  0.00    +0.252 C 
BRANCH  26  28
ATOM     27  O   UNL     1       8.226   1.065   1.015  0.00  0.00    -0.247 OA
ATOM     28  C   UNL     1       8.057   0.136   0.240  0.00  0.00    +0.344 C 
BRANCH  28  29
ATOM     29  O   UNL     1       9.053  -0.671  -0.204  0.00  0.00    -0.478 OA
ATOM     30  H   UNL     1       8.861  -1.369  -0.799  0.00  0.00    +0.295 HD
ENDBRANCH  28  29
ENDBRANCH  26  28
ENDBRANCH  25  26
ENDBRANCH  24  25
ENDBRANCH  23  24
ENDBRANCH   2  23
TORSDOF 9
