REMARK  Name = 60726
REMARK  6 active torsions:
REMARK  status: ('A' for Active; 'I' for Inactive)
REMARK    1  A    between atoms: C_1  and  C_19
REMARK    2  A    between atoms: C_2  and  C_11
REMARK    3  A    between atoms: C_3  and  N_7
REMARK    4  A    between atoms: C_11  and  C_13
REMARK    5  A    between atoms: C_19  and  C_21
REMARK    6  A    between atoms: C_21  and  O_22
REMARK                            x       y       z     vdW  Elec       q    Type
REMARK                         _______ _______ _______ _____ _____    ______ ____
ROOT
ATOM      1  C   UNL     1      -2.630  -0.466  -0.032  0.00  0.00    +0.002 C 
ATOM      2  C   UNL     1      -0.412  -1.338  -0.062  0.00  0.00    +0.052 C 
ATOM      3  C   UNL     1      -1.376  -0.586   0.568  0.00  0.00    +0.041 C 
ATOM      4  C   UNL     1      -2.887  -1.104  -1.245  0.00  0.00    -0.003 C 
ATOM      5  C   UNL     1      -0.635  -1.980  -1.261  0.00  0.00    +0.004 C 
ATOM      6  C   UNL     1      -1.889  -1.861  -1.860  0.00  0.00    -0.000 C 
ENDROOT
BRANCH   3   7
ATOM      7  N   UNL     1      -1.119   0.063   1.798  0.00  0.00    -0.357 N 
ATOM      8  H   UNL     1      -1.824   0.596   2.231  0.00  0.00    +0.142 HD
ATOM      9  H   UNL     1      -0.234  -0.019   2.222  0.00  0.00    +0.142 HD
ENDBRANCH   3   7
BRANCH   2  11
ATOM     10  O   UNL     1       1.116  -2.439   1.325  0.00  0.00    -0.287 OA
ATOM     11  C   UNL     1       0.943  -1.487   0.550  0.00  0.00    +0.197 C 
BRANCH  11  13
ATOM     12 BR   UNL     1       5.537   2.395  -0.654  0.00  0.00    -0.049 Br
ATOM     13  C   UNL     1       2.032  -0.567   0.264  0.00  0.00    +0.039 C 
ATOM     14  C   UNL     1       1.832   0.502  -0.610  0.00  0.00    +0.004 C 
ATOM     15  C   UNL     1       3.278  -0.753   0.864  0.00  0.00    +0.004 C 
ATOM     16  C   UNL     1       2.876   1.385  -0.883  0.00  0.00    +0.007 C 
ATOM     17  C   UNL     1       4.322   0.130   0.590  0.00  0.00    +0.007 C 
ATOM     18  C   UNL     1       4.122   1.199  -0.283  0.00  0.00    +0.035 C 
ENDBRANCH  11  13
ENDBRANCH   2  11
BRANCH   1  19
ATOM     19  C   UNL     1      -3.719   0.336   0.604  0.00  0.00    +0.137 C 
BRANCH  19  21
ATOM     20  O   UNL     1      -2.912   2.305  -0.581  0.00  0.00    -0.250 OA
ATOM     21  C   UNL     1      -3.724   1.789   0.175  0.00  0.00    +0.318 C 
BRANCH  21  22
ATOM     22  O   UNL     1      -4.754   2.477   0.735  0.00  0.00    -0.480 OA
ATOM     23  H   UNL     1      -5.352   2.039   1.308  0.00  0.00    +0.295 HD
ENDBRANCH  21  22
ENDBRANCH  19  21
ENDBRANCH   1  19
TORSDOF 6
