REMARK  Name = 7028
REMARK  4 active torsions:
REMARK  status: ('A' for Active; 'I' for Inactive)
REMARK    1  A    between atoms: C_1  and  C_2
REMARK    2  A    between atoms: C_1  and  O_8
REMARK    3  A    between atoms: C_1  and  C_10
REMARK    4  A    between atoms: C_10  and  N_12
REMARK                            x       y       z     vdW  Elec       q    Type
REMARK                         _______ _______ _______ _____ _____    ______ ____
ROOT
ATOM      1  C   UNL     1       0.761   0.838   0.893  0.00  0.00    +0.113 C 
ENDROOT
BRANCH   1   2
ATOM      2  C   UNL     1      -0.565   0.288   0.412  0.00  0.00    +0.002 C 
ATOM      3  C   UNL     1      -1.264   0.971  -0.568  0.00  0.00    -0.002 C 
ATOM      4  C   UNL     1      -1.048  -0.887   0.962  0.00  0.00    -0.002 C 
ATOM      5  C   UNL     1      -2.485   0.464  -1.012  0.00  0.00    -0.000 C 
ATOM      6  C   UNL     1      -2.270  -1.394   0.518  0.00  0.00    -0.000 C 
ATOM      7  C   UNL     1      -2.988  -0.718  -0.468  0.00  0.00    -0.000 C 
ENDBRANCH   1   2
BRANCH   1   8
ATOM      8  O   UNL     1       0.679   2.262   0.787  0.00  0.00    -0.382 OA
ATOM      9  H   UNL     1       1.513   2.656   1.087  0.00  0.00    +0.211 HD
ENDBRANCH   1   8
BRANCH   1  10
ATOM     10  C   UNL     1       1.977   0.319   0.092  0.00  0.00    -0.030 C 
ATOM     11  C   UNL     1       1.875   0.636  -1.401  0.00  0.00    -0.021 C 
BRANCH  10  12
ATOM     12  N   UNL     1       2.079  -1.138   0.241  0.00  0.00    +0.385 N 
ATOM     13  C   UNL     1       3.250  -1.640  -0.456  0.00  0.00    -0.105 C 
ATOM     14  H   UNL     1       1.243  -1.574  -0.150  0.00  0.00    -0.084 HD
ATOM     15  H   UNL     1       2.163  -1.363   1.232  0.00  0.00    -0.084 HD
ENDBRANCH  10  12
ENDBRANCH   1  10
TORSDOF 4
