REMARK  Name = 4170
REMARK  3 active torsions:
REMARK  status: ('A' for Active; 'I' for Inactive)
REMARK    1  A    between atoms: N_3  and  C_15
REMARK    2  A    between atoms: C_12  and  S_22
REMARK    3  A    between atoms: S_22  and  N_25
REMARK                            x       y       z     vdW  Elec       q    Type
REMARK                         _______ _______ _______ _____ _____    ______ ____
ROOT
ATOM      1 CL   UNL     1      -4.777   1.792   0.731  0.00  0.00    -0.081 Cl
ATOM      2  O   UNL     1       0.724  -1.709  -0.659  0.00  0.00    -0.269 OA
ATOM      3  N   UNL     1       1.738   0.373  -0.236  0.00  0.00    -0.240 N 
ATOM      4  N   UNL     1       0.286   2.220   0.322  0.00  0.00    -0.318 N 
ATOM      5  C   UNL     1       1.508   1.827  -0.358  0.00  0.00    +0.153 C 
ATOM      6  C   UNL     1      -0.829   1.407   0.209  0.00  0.00    +0.051 C 
ATOM      7  C   UNL     1      -0.704   0.068  -0.180  0.00  0.00    +0.068 C 
ATOM      8  C   UNL     1       0.650  -0.513  -0.387  0.00  0.00    +0.255 C 
ATOM      9  C   UNL     1       1.439   2.277  -1.821  0.00  0.00    +0.044 C 
ATOM     10  C   UNL     1      -1.838  -0.744  -0.308  0.00  0.00    +0.027 C 
ATOM     11  C   UNL     1      -2.105   1.908   0.499  0.00  0.00    +0.027 C 
ATOM     12  C   UNL     1      -3.103  -0.223  -0.038  0.00  0.00    +0.132 C 
ATOM     13  C   UNL     1      -3.236   1.100   0.372  0.00  0.00    +0.077 C 
ATOM     14  H   UNL     1       0.251   3.049   0.853  0.00  0.00    +0.148 HD
ENDROOT
BRANCH   3  15
ATOM     15  C   UNL     1       3.094  -0.116  -0.100  0.00  0.00    +0.052 C 
ATOM     16  C   UNL     1       3.625  -0.394   1.156  0.00  0.00    -0.008 C 
ATOM     17  C   UNL     1       3.860  -0.305  -1.247  0.00  0.00    +0.015 C 
ATOM     18  C   UNL     1       4.934  -0.865   1.266  0.00  0.00    -0.003 C 
ATOM     19  C   UNL     1       2.822  -0.200   2.401  0.00  0.00    +0.032 C 
ATOM     20  C   UNL     1       5.168  -0.776  -1.136  0.00  0.00    +0.001 C 
ATOM     21  C   UNL     1       5.705  -1.055   0.120  0.00  0.00    -0.000 C 
ENDBRANCH   3  15
BRANCH  12  22
ATOM     22  S   UNL     1      -4.485  -1.286  -0.215  0.00  0.00    +0.058 S 
ATOM     23  O   UNL     1      -5.629  -0.420  -0.488  0.00  0.00    -0.153 OA
ATOM     24  O   UNL     1      -4.073  -2.292  -1.188  0.00  0.00    -0.153 OA
BRANCH  22  25
ATOM     25  N   UNL     1      -4.776  -2.074   1.285  0.00  0.00    -0.203 NA
ATOM     26  H   UNL     1      -5.579  -2.695   1.192  0.00  0.00    +0.144 HD
ATOM     27  H   UNL     1      -4.966  -1.376   2.004  0.00  0.00    +0.144 HD
ENDBRANCH  22  25
ENDBRANCH  12  22
TORSDOF 3
