REMARK  Name = 4914
REMARK  8 active torsions:
REMARK  status: ('A' for Active; 'I' for Inactive)
REMARK    1  A    between atoms: C_2  and  C_3
REMARK    2  A    between atoms: C_2  and  O_12
REMARK    3  A    between atoms: C_6  and  N_9
REMARK    4  A    between atoms: O_12  and  C_13
REMARK    5  A    between atoms: C_13  and  C_14
REMARK    6  A    between atoms: C_14  and  N_15
REMARK    7  A    between atoms: N_15  and  C_17
REMARK    8  A    between atoms: N_15  and  C_19
REMARK                            x       y       z     vdW  Elec       q    Type
REMARK                         _______ _______ _______ _____ _____    ______ ____
ROOT
ATOM      1  O   UNL     1       0.564  -2.138  -0.861  0.00  0.00    -0.245 OA
ATOM      2  C   UNL     1       0.749  -1.011  -0.429  0.00  0.00    +0.341 C 
ENDROOT
BRANCH   2   3
ATOM      3  C   UNL     1       2.099  -0.443  -0.185  0.00  0.00    +0.076 C 
ATOM      4  C   UNL     1       3.129  -1.295   0.158  0.00  0.00    +0.008 C 
ATOM      5  C   UNL     1       2.283   0.919  -0.311  0.00  0.00    +0.008 C 
ATOM      6  C   UNL     1       4.609   0.611   0.265  0.00  0.00    +0.042 C 
ATOM      7  C   UNL     1       4.397  -0.762   0.386  0.00  0.00    +0.014 C 
ATOM      8  C   UNL     1       3.552   1.452  -0.084  0.00  0.00    +0.014 C 
BRANCH   6   9
ATOM      9  N   UNL     1       5.892   1.150   0.493  0.00  0.00    -0.357 N 
ATOM     10  H   UNL     1       6.638   0.557   0.739  0.00  0.00    +0.142 HD
ATOM     11  H   UNL     1       6.041   2.120   0.407  0.00  0.00    +0.142 HD
ENDBRANCH   6   9
ENDBRANCH   2   3
BRANCH   2  12
ATOM     12  O   UNL     1      -0.219  -0.110  -0.105  0.00  0.00    -0.448 OA
BRANCH  12  13
ATOM     13  C   UNL     1      -1.561  -0.539  -0.294  0.00  0.00    +0.186 C 
BRANCH  13  14
ATOM     14  C   UNL     1      -2.497   0.586   0.116  0.00  0.00    -0.029 C 
BRANCH  14  15
ATOM     15  N   UNL     1      -3.893   0.194  -0.079  0.00  0.00    +0.389 N 
ATOM     16  H   UNL     1      -4.031  -0.029  -1.064  0.00  0.00    -0.080 HD
BRANCH  15  17
ATOM     17  C   UNL     1      -4.787   1.295   0.278  0.00  0.00    -0.077 C 
ATOM     18  C   UNL     1      -4.477   2.540  -0.536  0.00  0.00    -0.025 C 
ENDBRANCH  15  17
BRANCH  15  19
ATOM     19  C   UNL     1      -4.205  -0.995   0.713  0.00  0.00    -0.077 C 
ATOM     20  C   UNL     1      -5.634  -1.453   0.476  0.00  0.00    -0.025 C 
ENDBRANCH  15  19
ENDBRANCH  14  15
ENDBRANCH  13  14
ENDBRANCH  12  13
ENDBRANCH   2  12
TORSDOF 8
