REMARK  Name = 6915944
REMARK  7 active torsions:
REMARK  status: ('A' for Active; 'I' for Inactive)
REMARK    1  A    between atoms: N_2  and  C_9
REMARK    2  A    between atoms: C_3  and  C_21
REMARK    3  A    between atoms: C_11  and  C_15
REMARK    4  A    between atoms: C_13  and  C_18
REMARK    5  A    between atoms: C_15  and  O_16
REMARK    6  A    between atoms: N_20  and  O_30
REMARK    7  A    between atoms: C_21  and  C_25
REMARK                            x       y       z     vdW  Elec       q    Type
REMARK                         _______ _______ _______ _____ _____    ______ ____
ROOT
ATOM      1  O   UNK A   0      -1.955   2.123  -1.449  0.00  0.00    -0.268 OA
ATOM      2  N   UNK A   1      -0.759   1.463   0.460  0.00  0.00    -0.291 N 
ATOM      3  C   UNK A   0      -1.869   1.578  -0.360  0.00  0.00    +0.269 C 
ATOM      4  H   UNK A   1      -0.853   0.988   1.318  0.00  0.00    +0.150 HD
ENDROOT
BRANCH   2   9
ATOM      5  S   UNK A   1       1.481   0.442   2.291  0.00  0.00    -0.114 S 
ATOM      6  O   UNK A   1       0.987   1.169  -2.275  0.00  0.00    -0.273 OA
ATOM      7  N   UNK A   1       2.145   0.781  -0.257  0.00  0.00    -0.242 N 
ATOM      8  C   UNK A   1       1.785   1.566   0.910  0.00  0.00    +0.155 C 
ATOM      9  C   UNK A   1       0.546   2.017   0.106  0.00  0.00    +0.179 C 
ATOM     10  C   UNK A   1       1.221   1.298  -1.097  0.00  0.00    +0.251 C 
ATOM     11  C   UNK A   1       3.150  -0.135  -0.273  0.00  0.00    +0.128 C 
ATOM     12  C   UNK A   1       3.183  -0.219   2.268  0.00  0.00    +0.087 C 
ATOM     13  C   UNK A   1       3.694  -0.598   0.879  0.00  0.00    +0.009 C 
BRANCH  11  15
ATOM     14  O   UNK A   1       4.469  -0.127  -2.250  0.00  0.00    -0.244 OA
ATOM     15  C   UNK A   1       3.575  -0.621  -1.596  0.00  0.00    +0.352 C 
BRANCH  15  16
ATOM     16  O   UNK A   1       2.818  -1.679  -1.945  0.00  0.00    -0.476 OA
ATOM     17  H   UNK A   1       2.148  -1.987  -1.367  0.00  0.00    +0.295 HD
ENDBRANCH  15  16
ENDBRANCH  11  15
BRANCH  13  18
ATOM     18  C   UNK A   1       4.810  -1.523   0.947  0.00  0.00    -0.002 C 
ATOM     19  C   UNK A   1       5.321  -1.958   2.093  0.00  0.00    -0.000 C 
ENDBRANCH  13  18
ENDBRANCH   2   9
BRANCH   3  21
ATOM     20  N   UNK A   0      -3.909   1.609   0.967  0.00  0.00    -0.079 NA
ATOM     21  C   UNK A   0      -3.099   0.926   0.216  0.00  0.00    +0.198 C 
BRANCH  21  25
ATOM     22  S   UNK A   0      -3.333  -2.834  -0.912  0.00  0.00    -0.060 S 
ATOM     23  N   UNK A   0      -4.541  -1.028   0.488  0.00  0.00    -0.383 NA
ATOM     24  N   UNK A   0      -5.595  -3.144   0.452  0.00  0.00    -0.328 N 
ATOM     25  C   UNK A   0      -3.414  -0.480  -0.057  0.00  0.00    +0.148 C 
ATOM     26  C   UNK A   0      -2.628  -1.273  -0.838  0.00  0.00    +0.127 C 
ATOM     27  C   UNK A   0      -4.603  -2.282   0.101  0.00  0.00    +0.204 C 
ATOM     28  H   UNK A   0      -5.579  -4.072   0.125  0.00  0.00    +0.145 HD
ATOM     29  H   UNK A   0      -6.329  -2.839   1.033  0.00  0.00    +0.145 HD
ENDBRANCH  21  25
BRANCH  20  30
ATOM     30  O   UNK A   0      -3.480   2.929   1.129  0.00  0.00    -0.409 OA
ATOM     31  H   UNK A   0      -3.981   3.524   1.651  0.00  0.00    +0.328 HD
ENDBRANCH  20  30
ENDBRANCH   3  21
TORSDOF 7
