REMARK  Name = 33741
REMARK  5 active torsions:
REMARK  status: ('A' for Active; 'I' for Inactive)
REMARK    1  A    between atoms: C_1  and  C_17
REMARK    2  A    between atoms: C_2  and  C_7
REMARK    3  A    between atoms: C_2  and  O_15
REMARK    4  A    between atoms: C_10  and  O_13
REMARK    5  A    between atoms: C_17  and  N_18
REMARK                            x       y       z     vdW  Elec       q    Type
REMARK                         _______ _______ _______ _____ _____    ______ ____
ROOT
ATOM      1  C   UNL     1      -1.598  -0.049  -0.211  0.00  0.00    +0.008 C 
ATOM      2  C   UNL     1      -0.698   1.076   0.390  0.00  0.00    +0.105 C 
ATOM      3  C   UNL     1      -3.039   0.449  -0.441  0.00  0.00    +0.001 C 
ATOM      4  C   UNL     1      -0.784   2.354  -0.481  0.00  0.00    +0.031 C 
ATOM      5  C   UNL     1      -3.080   1.712  -1.295  0.00  0.00    +0.000 C 
ATOM      6  C   UNL     1      -2.224   2.821  -0.699  0.00  0.00    +0.003 C 
ENDROOT
BRANCH   2   7
ATOM      7  C   UNL     1       0.764   0.631   0.523  0.00  0.00    +0.005 C 
ATOM      8  C   UNL     1       1.494   0.308  -0.617  0.00  0.00    +0.035 C 
ATOM      9  C   UNL     1       1.351   0.555   1.782  0.00  0.00    -0.002 C 
ATOM     10  C   UNL     1       2.824  -0.096  -0.496  0.00  0.00    +0.138 C 
ATOM     11  C   UNL     1       2.681   0.152   1.903  0.00  0.00    +0.003 C 
ATOM     12  C   UNL     1       3.417  -0.173   0.764  0.00  0.00    +0.037 C 
BRANCH  10  13
ATOM     13  O   UNL     1       3.543  -0.413  -1.608  0.00  0.00    -0.471 OA
ATOM     14  C   UNL     1       4.897  -0.817  -1.412  0.00  0.00    +0.252 C 
ENDBRANCH  10  13
ENDBRANCH   2   7
BRANCH   2  15
ATOM     15  O   UNL     1      -1.242   1.406   1.678  0.00  0.00    -0.383 OA
ATOM     16  H   UNL     1      -2.166   1.685   1.577  0.00  0.00    +0.211 HD
ENDBRANCH   2  15
BRANCH   1  17
ATOM     17  C   UNL     1      -1.647  -1.308   0.667  0.00  0.00    -0.075 C 
BRANCH  17  18
ATOM     18  N   UNL     1      -2.397  -2.362   0.009  0.00  0.00    +0.384 N 
ATOM     19  C   UNL     1      -2.447  -3.566   0.843  0.00  0.00    -0.101 C 
ATOM     20  C   UNL     1      -1.814  -2.679  -1.298  0.00  0.00    -0.101 C 
ATOM     21  H   UNL     1      -3.349  -2.024  -0.133  0.00  0.00    -0.080 HD
ENDBRANCH  17  18
ENDBRANCH   1  17
TORSDOF 5
