REMARK  Name = 439693
REMARK  5 active torsions:
REMARK  status: ('A' for Active; 'I' for Inactive)
REMARK    1  A    between atoms: N_1  and  C1*_13
REMARK    2  A    between atoms: C_8  and  O_22
REMARK    3  A    between atoms: C3*_15  and  O3*_17
REMARK    4  A    between atoms: C4*_16  and  C5*_19
REMARK    5  A    between atoms: C5*_19  and  O5*_20
REMARK                            x       y       z     vdW  Elec       q    Type
REMARK                         _______ _______ _______ _____ _____    ______ ____
ROOT
ATOM      1  N   UNL     1      -0.077   0.254  -0.025  0.00  0.00    -0.210 NA
ATOM      2  N   UNL     1       1.166   2.034   0.468  0.00  0.00    -0.255 NA
ATOM      3  N   UNL     1       1.581  -1.413  -0.402  0.00  0.00    -0.301 N 
ATOM      4  N   UNL     1       4.009  -1.428  -0.024  0.00  0.00    -0.251 NA
ATOM      5  C   UNL     1       1.221  -0.158  -0.079  0.00  0.00    +0.175 C 
ATOM      6  C   UNL     1       1.975   0.950   0.223  0.00  0.00    +0.095 C 
ATOM      7  C   UNL     1      -0.060   1.582   0.310  0.00  0.00    +0.204 C 
ATOM      8  C   UNL     1       3.455   1.026   0.288  0.00  0.00    +0.173 C 
ATOM      9  C   UNL     1       4.079  -0.253   0.855  0.00  0.00    +0.162 C 
ATOM     10  C   UNL     1       2.884  -1.863  -0.466  0.00  0.00    +0.157 C 
ATOM     11  H   UNL     1       0.864  -2.056  -0.607  0.00  0.00    +0.150 HD
ENDROOT
BRANCH   1  13
ATOM     12  O4* UNL     1      -2.293   0.284  -0.872  0.00  0.00    -0.338 OA
ATOM     13  C1* UNL     1      -1.277  -0.538  -0.272  0.00  0.00    +0.182 C 
ATOM     14  C2* UNL     1      -1.891  -1.150   0.979  0.00  0.00    +0.079 C 
ATOM     15  C3* UNL     1      -3.336  -1.308   0.563  0.00  0.00    +0.144 C 
ATOM     16  C4* UNL     1      -3.575  -0.094  -0.328  0.00  0.00    +0.173 C 
BRANCH  15  17
ATOM     17  O3* UNL     1      -3.454  -2.499  -0.211  0.00  0.00    -0.382 OA
ATOM     18  H3* UNL     1      -3.301  -3.271   0.357  0.00  0.00    +0.210 HD
ENDBRANCH  15  17
BRANCH  16  19
ATOM     19  C5* UNL     1      -4.131   1.098   0.440  0.00  0.00    +0.169 C 
BRANCH  19  20
ATOM     20  O5* UNL     1      -4.310   2.175  -0.462  0.00  0.00    -0.379 OA
ATOM     21  H5* UNL     1      -4.664   2.942   0.016  0.00  0.00    +0.211 HD
ENDBRANCH  19  20
ENDBRANCH  16  19
ENDBRANCH   1  13
BRANCH   8  22
ATOM     22  O   UNL     1       4.034   1.301  -0.986  0.00  0.00    -0.377 OA
ATOM     23  H   UNL     1       3.642   2.111  -1.350  0.00  0.00    +0.211 HD
ENDBRANCH   8  22
TORSDOF 5
