REMARK  Name = 2266
REMARK  10 active torsions:
REMARK  status: ('A' for Active; 'I' for Inactive)
REMARK    1  A    between atoms: C_1  and  C_2
REMARK    2  A    between atoms: C_1  and  C_9
REMARK    3  A    between atoms: C_2  and  C_3
REMARK    4  A    between atoms: C_3  and  C_4
REMARK    5  A    between atoms: C_4  and  C_6
REMARK    6  A    between atoms: C_6  and  O_7
REMARK    7  A    between atoms: C_9  and  C_10
REMARK    8  A    between atoms: C_10  and  C_11
REMARK    9  A    between atoms: C_11  and  C_13
REMARK   10  A    between atoms: C_13  and  O_14
REMARK                            x       y       z     vdW  Elec       q    Type
REMARK                         _______ _______ _______ _____ _____    ______ ____
ROOT
ATOM      1  C   UNL     1       0.016   0.168  -0.118  0.00  0.00    +0.000 C 
ENDROOT
BRANCH   1   2
ATOM      2  C   UNL     1       1.283  -0.689  -0.080  0.00  0.00    +0.001 C 
BRANCH   2   3
ATOM      3  C   UNL     1       2.540   0.182  -0.036  0.00  0.00    +0.012 C 
BRANCH   3   4
ATOM      4  C   UNL     1       3.802  -0.668   0.040  0.00  0.00    +0.109 C 
BRANCH   4   6
ATOM      5  O   UNL     1       5.019   1.423   0.041  0.00  0.00    -0.250 OA
ATOM      6  C   UNL     1       5.030   0.200   0.041  0.00  0.00    +0.314 C 
BRANCH   6   7
ATOM      7  O   UNL     1       6.159  -0.550   0.063  0.00  0.00    -0.480 OA
ATOM      8  H   UNL     1       6.100  -1.485   0.062  0.00  0.00    +0.295 HD
ENDBRANCH   6   7
ENDBRANCH   4   6
ENDBRANCH   3   4
ENDBRANCH   2   3
ENDBRANCH   1   2
BRANCH   1   9
ATOM      9  C   UNL     1      -1.276  -0.653  -0.089  0.00  0.00    +0.001 C 
BRANCH   9  10
ATOM     10  C   UNL     1      -2.542   0.204  -0.051  0.00  0.00    +0.012 C 
BRANCH  10  11
ATOM     11  C   UNL     1      -3.792  -0.662   0.050  0.00  0.00    +0.109 C 
BRANCH  11  13
ATOM     12  O   UNL     1      -5.030   1.410  -0.003  0.00  0.00    -0.250 OA
ATOM     13  C   UNL     1      -5.037   0.187   0.048  0.00  0.00    +0.314 C 
BRANCH  13  14
ATOM     14  O   UNL     1      -6.173  -0.553   0.095  0.00  0.00    -0.480 OA
ATOM     15  H   UNL     1      -6.122  -1.487   0.133  0.00  0.00    +0.295 HD
ENDBRANCH  13  14
ENDBRANCH  11  13
ENDBRANCH  10  11
ENDBRANCH   9  10
ENDBRANCH   1   9
TORSDOF 10
