REMARK  Name = 3114
REMARK  8 active torsions:
REMARK  status: ('A' for Active; 'I' for Inactive)
REMARK    1  A    between atoms: C_1  and  C_3
REMARK    2  A    between atoms: C_1  and  C_8
REMARK    3  A    between atoms: C_1  and  C_16
REMARK    4  A    between atoms: C_1  and  C_19
REMARK    5  A    between atoms: C_19  and  C_20
REMARK    6  A    between atoms: C_20  and  N_21
REMARK    7  A    between atoms: N_21  and  C_23
REMARK    8  A    between atoms: N_21  and  C_26
REMARK                            x       y       z     vdW  Elec       q    Type
REMARK                         _______ _______ _______ _____ _____    ______ ____
ROOT
ATOM      1  C   UNL     1       0.763   0.545   0.297  0.00  0.00    +0.120 C 
ENDROOT
BRANCH   1   3
ATOM      2  N   UNL     1       2.616   0.887  -1.224  0.00  0.00    -0.247 NA
ATOM      3  C   UNL     1       2.260   0.330  -0.077  0.00  0.00    +0.070 C 
ATOM      4  C   UNL     1       3.012  -0.388   0.791  0.00  0.00    +0.016 C 
ATOM      5  C   UNL     1       4.343  -0.562   0.428  0.00  0.00    +0.003 C 
ATOM      6  C   UNL     1       3.915   0.697  -1.544  0.00  0.00    +0.098 C 
ATOM      7  C   UNL     1       4.811  -0.012  -0.760  0.00  0.00    +0.021 C 
ENDBRANCH   1   3
BRANCH   1   8
ATOM      8  C   UNL     1       0.120  -0.867   0.407  0.00  0.00    -0.009 C 
ATOM      9  C   UNL     1       0.634  -1.860  -0.375  0.00  0.00    -0.003 C 
ATOM     10  C   UNL     1      -0.917  -1.026   1.278  0.00  0.00    -0.003 C 
ATOM     11  C   UNL     1       0.058  -3.126  -0.277  0.00  0.00    -0.000 C 
ATOM     12  C   UNL     1      -1.494  -2.292   1.376  0.00  0.00    -0.000 C 
ATOM     13  C   UNL     1      -1.006  -3.343   0.598  0.00  0.00    -0.000 C 
ENDBRANCH   1   8
BRANCH   1  16
ATOM     14  O   UNL     1       0.019   0.916   2.622  0.00  0.00    -0.275 OA
ATOM     15  N   UNL     1       1.176   2.607   1.620  0.00  0.00    -0.328 N 
ATOM     16  C   UNL     1       0.627   1.339   1.638  0.00  0.00    +0.227 C 
ATOM     17  H   UNL     1       1.133   3.174   2.424  0.00  0.00    +0.145 HD
ATOM     18  H   UNL     1       1.610   2.944   0.803  0.00  0.00    +0.145 HD
ENDBRANCH   1  16
BRANCH   1  19
ATOM     19  C   UNL     1       0.047   1.475  -0.764  0.00  0.00    -0.004 C 
BRANCH  19  20
ATOM     20  C   UNL     1      -1.421   1.819  -0.454  0.00  0.00    -0.076 C 
BRANCH  20  21
ATOM     21  N   UNL     1      -2.218   0.597  -0.392  0.00  0.00    +0.390 N 
ATOM     22  H   UNL     1      -1.826  -0.006   0.333  0.00  0.00    -0.080 HD
BRANCH  21  23
ATOM     23  C   UNL     1      -3.604   0.905  -0.039  0.00  0.00    -0.058 C 
ATOM     24  C   UNL     1      -4.426  -0.380  -0.041  0.00  0.00    -0.023 C 
ATOM     25  C   UNL     1      -3.663   1.592   1.322  0.00  0.00    -0.023 C 
ENDBRANCH  21  23
BRANCH  21  26
ATOM     26  C   UNL     1      -2.163  -0.117  -1.667  0.00  0.00    -0.058 C 
ATOM     27  C   UNL     1      -2.769   0.754  -2.763  0.00  0.00    -0.023 C 
ATOM     28  C   UNL     1      -0.722  -0.493  -2.002  0.00  0.00    -0.023 C 
ENDBRANCH  21  26
ENDBRANCH  20  21
ENDBRANCH  19  20
ENDBRANCH   1  19
TORSDOF 8
