REMARK  Name = 60835
REMARK  6 active torsions:
REMARK  status: ('A' for Active; 'I' for Inactive)
REMARK    1  A    between atoms: C_1  and  C_3
REMARK    2  A    between atoms: C_1  and  O_7
REMARK    3  A    between atoms: C_1  and  C_18
REMARK    4  A    between atoms: O_7  and  C_8
REMARK    5  A    between atoms: C_18  and  C_19
REMARK    6  A    between atoms: C_19  and  N_20
REMARK                            x       y       z     vdW  Elec       q    Type
REMARK                         _______ _______ _______ _____ _____    ______ ____
ROOT
ATOM      1  C   UNL     1      -1.275   0.281  -0.044  0.00  0.00    +0.192 C 
ENDROOT
BRANCH   1   3
ATOM      2  S   UNL     1      -1.537  -1.870   1.665  0.00  0.00    -0.087 S 
ATOM      3  C   UNL     1      -1.637  -1.178   0.119  0.00  0.00    +0.047 C 
ATOM      4  C   UNL     1      -2.046  -2.039  -0.848  0.00  0.00    +0.006 C 
ATOM      5  C   UNL     1      -2.293  -3.334  -0.306  0.00  0.00    +0.007 C 
ATOM      6  C   UNL     1      -2.056  -3.382   1.050  0.00  0.00    +0.035 C 
ENDBRANCH   1   3
BRANCH   1   7
ATOM      7  O   UNL     1      -0.137   0.349  -0.899  0.00  0.00    -0.474 OA
BRANCH   7   8
ATOM      8  C   UNL     1       0.994   0.911  -0.378  0.00  0.00    +0.139 C 
ATOM      9  C   UNL     1       2.192   0.185  -0.282  0.00  0.00    +0.034 C 
ATOM     10  C   UNL     1       3.338   0.811   0.265  0.00  0.00    +0.003 C 
ATOM     11  C   UNL     1       0.925   2.234   0.060  0.00  0.00    +0.037 C 
ATOM     12  C   UNL     1       2.280  -1.147  -0.718  0.00  0.00    +0.003 C 
ATOM     13  C   UNL     1       3.251   2.143   0.701  0.00  0.00    +0.000 C 
ATOM     14  C   UNL     1       2.052   2.849   0.598  0.00  0.00    +0.003 C 
ATOM     15  C   UNL     1       4.537   0.085   0.361  0.00  0.00    +0.000 C 
ATOM     16  C   UNL     1       3.479  -1.853  -0.615  0.00  0.00    +0.000 C 
ATOM     17  C   UNL     1       4.605  -1.238  -0.076  0.00  0.00    +0.000 C 
ENDBRANCH   7   8
ENDBRANCH   1   7
BRANCH   1  18
ATOM     18  C   UNL     1      -2.393   1.128  -0.665  0.00  0.00    +0.025 C 
BRANCH  18  19
ATOM     19  C   UNL     1      -3.666   1.150   0.182  0.00  0.00    -0.078 C 
BRANCH  19  20
ATOM     20  N   UNL     1      -4.690   1.959  -0.470  0.00  0.00    +0.382 N 
ATOM     21  C   UNL     1      -5.923   1.957   0.304  0.00  0.00    -0.106 C 
ATOM     22  H   UNL     1      -4.877   1.577  -1.398  0.00  0.00    -0.085 HD
ATOM     23  H   UNL     1      -4.351   2.918  -0.542  0.00  0.00    -0.085 HD
ENDBRANCH  19  20
ENDBRANCH  18  19
ENDBRANCH   1  18
TORSDOF 6
