REMARK  Name = 8944
REMARK  8 active torsions:
REMARK  status: ('A' for Active; 'I' for Inactive)
REMARK    1  A    between atoms: N_1  and  C_19
REMARK    2  A    between atoms: C_2  and  C_8
REMARK    3  A    between atoms: C_2  and  C_15
REMARK    4  A    between atoms: C_15  and  O_16
REMARK    5  A    between atoms: O_16  and  C_17
REMARK    6  A    between atoms: C_19  and  C_20
REMARK    7  A    between atoms: C_20  and  C_21
REMARK    8  A    between atoms: C_26  and  N_27
REMARK                            x       y       z     vdW  Elec       q    Type
REMARK                         _______ _______ _______ _____ _____    ______ ____
ROOT
ATOM      1  N   UNL     1       0.711  -0.827   0.301  0.00  0.00    +0.387 N 
ATOM      2  C   UNL     1      -2.216  -0.261   0.233  0.00  0.00    +0.104 C 
ATOM      3  C   UNL     1      -1.294  -0.229  -1.012  0.00  0.00    -0.008 C 
ATOM      4  C   UNL     1      -1.531  -1.137   1.313  0.00  0.00    -0.008 C 
ATOM      5  C   UNL     1       0.164   0.112  -0.682  0.00  0.00    -0.076 C 
ATOM      6  C   UNL     1      -0.058  -0.779   1.548  0.00  0.00    -0.076 C 
ATOM      7  H   UNL     1       0.638  -1.769  -0.083  0.00  0.00    -0.080 HD
ENDROOT
BRANCH   2   8
ATOM      8  C   UNL     1      -3.638  -0.774  -0.052  0.00  0.00    -0.013 C 
ATOM      9  C   UNL     1      -3.983  -1.177  -1.339  0.00  0.00    -0.004 C 
ATOM     10  C   UNL     1      -4.572  -0.833   0.979  0.00  0.00    -0.004 C 
ATOM     11  C   UNL     1      -5.273  -1.643  -1.597  0.00  0.00    -0.000 C 
ATOM     12  C   UNL     1      -5.861  -1.298   0.721  0.00  0.00    -0.000 C 
ATOM     13  C   UNL     1      -6.212  -1.703  -0.567  0.00  0.00    -0.000 C 
ENDBRANCH   2   8
BRANCH   2  15
ATOM     14  O   UNL     1      -1.954   1.532   1.842  0.00  0.00    -0.250 OA
ATOM     15  C   UNL     1      -2.344   1.161   0.743  0.00  0.00    +0.320 C 
BRANCH  15  16
ATOM     16  O   UNL     1      -2.951   1.932  -0.204  0.00  0.00    -0.448 OA
BRANCH  16  17
ATOM     17  C   UNL     1      -3.137   3.306   0.149  0.00  0.00    +0.209 C 
ATOM     18  C   UNL     1      -3.817   4.022  -0.998  0.00  0.00    +0.051 C 
ENDBRANCH  16  17
ENDBRANCH  15  16
ENDBRANCH   2  15
BRANCH   1  19
ATOM     19  C   UNL     1       2.122  -0.538   0.558  0.00  0.00    -0.073 C 
BRANCH  19  20
ATOM     20  C   UNL     1       2.942  -0.631  -0.729  0.00  0.00    +0.004 C 
BRANCH  20  21
ATOM     21  C   UNL     1       4.403  -0.357  -0.474  0.00  0.00    -0.024 C 
ATOM     22  C   UNL     1       4.878   0.943  -0.562  0.00  0.00    -0.003 C 
ATOM     23  C   UNL     1       5.248  -1.410  -0.156  0.00  0.00    -0.003 C 
ATOM     24  C   UNL     1       6.229   1.196  -0.326  0.00  0.00    +0.014 C 
ATOM     25  C   UNL     1       6.599  -1.157   0.081  0.00  0.00    +0.014 C 
ATOM     26  C   UNL     1       7.090   0.147  -0.004  0.00  0.00    +0.042 C 
BRANCH  26  27
ATOM     27  N   UNL     1       8.456   0.403   0.235  0.00  0.00    -0.357 N 
ATOM     28  H   UNL     1       8.802   1.323   0.175  0.00  0.00    +0.142 HD
ATOM     29  H   UNL     1       9.063  -0.338   0.461  0.00  0.00    +0.142 HD
ENDBRANCH  26  27
ENDBRANCH  20  21
ENDBRANCH  19  20
ENDBRANCH   1  19
TORSDOF 8
