REMARK  Name = 54676038
REMARK  4 active torsions:
REMARK  status: ('A' for Active; 'I' for Inactive)
REMARK    1  A    between atoms: C_1  and  C_4
REMARK    2  A    between atoms: C_1  and  C_17
REMARK    3  A    between atoms: C_5  and  O_13
REMARK    4  A    between atoms: C_18  and  O_26
REMARK                            x       y       z     vdW  Elec       q    Type
REMARK                         _______ _______ _______ _____ _____    ______ ____
ROOT
ATOM      1  C   UNL     1       0.011  -0.006  -1.901  0.00  0.00    +0.072 C 
ENDROOT
BRANCH   1   4
ATOM      2  O   UNL     1       2.405  -1.815   0.376  0.00  0.00    -0.421 OA
ATOM      3  O   UNL     1       0.436  -2.407  -0.598  0.00  0.00    -0.245 OA
ATOM      4  C   UNL     1       1.223  -0.209  -1.068  0.00  0.00    +0.092 A 
ATOM      5  C   UNL     1       2.196   0.699  -0.865  0.00  0.00    +0.139 A 
ATOM      6  C   UNL     1       3.346   0.392  -0.011  0.00  0.00    +0.068 A 
ATOM      7  C   UNL     1       3.416  -0.862   0.587  0.00  0.00    +0.152 A 
ATOM      8  C   UNL     1       1.303  -1.555  -0.428  0.00  0.00    +0.345 A 
ATOM      9  C   UNL     1       4.387   1.296   0.240  0.00  0.00    +0.006 C 
ATOM     10  C   UNL     1       4.476  -1.234   1.415  0.00  0.00    +0.038 C 
ATOM     11  C   UNL     1       5.457   0.939   1.067  0.00  0.00    +0.000 C 
ATOM     12  C   UNL     1       5.501  -0.325   1.654  0.00  0.00    +0.003 C 
BRANCH   5  13
ATOM     13  O   UNL     1       2.215   1.962  -1.417  0.00  0.00    -0.506 OA
ATOM     14  H   UNL     1       1.517   2.239  -1.977  0.00  0.00    +0.292 HD
ENDBRANCH   5  13
ENDBRANCH   1   4
BRANCH   1  17
ATOM     15  O   UNL     1      -2.407   1.816   0.371  0.00  0.00    -0.421 OA
ATOM     16  O   UNL     1      -0.435   2.404  -0.599  0.00  0.00    -0.245 OA
ATOM     17  C   UNL     1      -1.220   0.205  -1.062  0.00  0.00    +0.092 A 
ATOM     18  C   UNL     1      -2.194  -0.703  -0.858  0.00  0.00    +0.139 A 
ATOM     19  C   UNL     1      -3.347  -0.392  -0.009  0.00  0.00    +0.068 A 
ATOM     20  C   UNL     1      -3.418   0.864   0.583  0.00  0.00    +0.152 A 
ATOM     21  C   UNL     1      -1.303   1.553  -0.428  0.00  0.00    +0.345 A 
ATOM     22  C   UNL     1      -4.389  -1.294   0.242  0.00  0.00    +0.006 C 
ATOM     23  C   UNL     1      -4.481   1.241   1.405  0.00  0.00    +0.038 C 
ATOM     24  C   UNL     1      -5.462  -0.934   1.065  0.00  0.00    +0.000 C 
ATOM     25  C   UNL     1      -5.507   0.333   1.646  0.00  0.00    +0.003 C 
BRANCH  18  26
ATOM     26  O   UNL     1      -2.211  -1.968  -1.404  0.00  0.00    -0.506 OA
ATOM     27  H   UNL     1      -1.511  -2.248  -1.960  0.00  0.00    +0.292 HD
ENDBRANCH  18  26
ENDBRANCH   1  17
TORSDOF 4
