REMARK  Name = 31640
REMARK  3 active torsions:
REMARK  status: ('A' for Active; 'I' for Inactive)
REMARK    1  A    between atoms: N_3  and  C_20
REMARK    2  A    between atoms: C_7  and  C_14
REMARK    3  A    between atoms: C_20  and  C_24
REMARK                            x       y       z     vdW  Elec       q    Type
REMARK                         _______ _______ _______ _____ _____    ______ ____
ROOT
ATOM      1 CL   UNL     1      -1.421  -4.631  -0.070  0.00  0.00    -0.082 Cl
ATOM      2  O   UNL     1       2.360   2.338  -1.695  0.00  0.00    -0.272 OA
ATOM      3  N   UNL     1       1.957   0.270  -0.699  0.00  0.00    -0.249 N 
ATOM      4  N   UNL     1      -0.679   1.347  -1.754  0.00  0.00    -0.261 NA
ATOM      5  C   UNL     1       1.107  -0.874  -0.514  0.00  0.00    +0.056 C 
ATOM      6  C   UNL     1      -0.295  -0.824  -0.664  0.00  0.00    +0.032 C 
ATOM      7  C   UNL     1      -1.034   0.453  -0.895  0.00  0.00    +0.078 C 
ATOM      8  C   UNL     1       1.686   1.309  -1.597  0.00  0.00    +0.254 C 
ATOM      9  C   UNL     1       0.519   1.098  -2.529  0.00  0.00    +0.210 C 
ATOM     10  C   UNL     1       1.680  -2.110  -0.154  0.00  0.00    +0.016 C 
ATOM     11  C   UNL     1      -1.068  -1.992  -0.533  0.00  0.00    +0.014 C 
ATOM     12  C   UNL     1       0.903  -3.261  -0.005  0.00  0.00    +0.013 C 
ATOM     13  C   UNL     1      -0.469  -3.205  -0.207  0.00  0.00    +0.058 C 
ENDROOT
BRANCH   7  14
ATOM     14  C   UNL     1      -2.250   0.740  -0.080  0.00  0.00    +0.017 C 
ATOM     15  C   UNL     1      -2.348   0.235   1.210  0.00  0.00    +0.001 C 
ATOM     16  C   UNL     1      -3.272   1.511  -0.622  0.00  0.00    +0.001 C 
ATOM     17  C   UNL     1      -3.486   0.505   1.972  0.00  0.00    +0.000 C 
ATOM     18  C   UNL     1      -4.409   1.781   0.140  0.00  0.00    +0.000 C 
ATOM     19  C   UNL     1      -4.516   1.278   1.436  0.00  0.00    +0.000 C 
ENDBRANCH   7  14
BRANCH   3  20
ATOM     20  C   UNL     1       3.213   0.322   0.049  0.00  0.00    +0.202 C 
BRANCH  20  24
ATOM     21  F   UNL     1       4.174   0.846   2.130  0.00  0.00    -0.168 F 
ATOM     22  F   UNL     1       2.482   2.057   1.477  0.00  0.00    -0.168 F 
ATOM     23  F   UNL     1       2.164  -0.001   2.142  0.00  0.00    -0.168 F 
ATOM     24  C   UNL     1       3.001   0.810   1.460  0.00  0.00    +0.416 C 
ENDBRANCH  20  24
ENDBRANCH   3  20
TORSDOF 3
