REMARK  Name = 3468
REMARK  6 active torsions:
REMARK  status: ('A' for Active; 'I' for Inactive)
REMARK    1  A    between atoms: N_1  and  C_6
REMARK    2  A    between atoms: C_2  and  C_3
REMARK    3  A    between atoms: C_2  and  C_11
REMARK    4  A    between atoms: C_2  and  C_20
REMARK    5  A    between atoms: C_14  and  N_17
REMARK    6  A    between atoms: C_23  and  N_26
REMARK                            x       y       z     vdW  Elec       q    Type
REMARK                         _______ _______ _______ _____ _____    ______ ____
ROOT
ATOM      1  C   UNL     1      -0.001   0.027  -0.001  0.00  0.00    +0.067 C 
ENDROOT
BRANCH   1   2
ATOM      2  C   UNL     1       0.003  -1.316  -0.001  0.00  0.00    -0.014 C 
ATOM      3  C   UNL     1      -1.253  -2.051  -0.007  0.00  0.00    -0.002 C 
ATOM      4  C   UNL     1       1.262  -2.045   0.005  0.00  0.00    -0.002 C 
ATOM      5  C   UNL     1       0.009  -4.144   0.000  0.00  0.00    +0.048 C 
ATOM      6  C   UNL     1      -1.272  -3.391  -0.006  0.00  0.00    +0.014 C 
ATOM      7  C   UNL     1       1.288  -3.385   0.005  0.00  0.00    +0.014 C 
BRANCH   5   8
ATOM      8  N   UNL     1       0.013  -5.428   0.001  0.00  0.00    -0.304 N 
ATOM      9  C   UNL     1       1.281  -6.202   0.005  0.00  0.00    +0.112 C 
ATOM     10  C   UNL     1      -1.252  -6.208  -0.005  0.00  0.00    +0.112 C 
ENDBRANCH   5   8
ENDBRANCH   1   2
BRANCH   1  11
ATOM     11  C   UNL     1      -1.311   0.729  -0.007  0.00  0.00    -0.014 C 
ATOM     12  C   UNL     1      -1.892   1.043  -1.218  0.00  0.00    -0.002 C 
ATOM     13  C   UNL     1      -1.903   1.042   1.198  0.00  0.00    -0.002 C 
ATOM     14  C   UNL     1      -3.743   2.030  -0.018  0.00  0.00    +0.048 C 
ATOM     15  C   UNL     1      -3.122   1.702  -1.223  0.00  0.00    +0.014 C 
ATOM     16  C   UNL     1      -3.133   1.700   1.193  0.00  0.00    +0.014 C 
BRANCH  14  17
ATOM     17  N   UNL     1      -4.986   2.695  -0.023  0.00  0.00    -0.304 N 
ATOM     18  C   UNL     1      -5.939   2.479   1.048  0.00  0.00    +0.112 C 
ATOM     19  C   UNL     1      -5.333   3.593  -1.106  0.00  0.00    +0.112 C 
ENDBRANCH  14  17
ENDBRANCH   1  11
BRANCH   1  20
ATOM     20  C   UNL     1       1.307   0.734   0.006  0.00  0.00    -0.014 C 
ATOM     21  C   UNL     1       1.887   1.049   1.217  0.00  0.00    -0.002 C 
ATOM     22  C   UNL     1       1.898   1.050  -1.199  0.00  0.00    -0.002 C 
ATOM     23  C   UNL     1       3.733   2.044   0.018  0.00  0.00    +0.048 C 
ATOM     24  C   UNL     1       3.114   1.712   1.223  0.00  0.00    +0.014 C 
ATOM     25  C   UNL     1       3.126   1.713  -1.193  0.00  0.00    +0.014 C 
BRANCH  23  26
ATOM     26  N   UNL     1       4.974   2.714   0.024  0.00  0.00    -0.304 N 
ATOM     27  C   UNL     1       5.928   2.503  -1.047  0.00  0.00    +0.112 C 
ATOM     28  C   UNL     1       5.318   3.612   1.109  0.00  0.00    +0.112 C 
ENDBRANCH  23  26
ENDBRANCH   1  20
TORSDOF 6
