REMARK  Name = 26987
REMARK  6 active torsions:
REMARK  status: ('A' for Active; 'I' for Inactive)
REMARK    1  A    between atoms: C_1  and  C_4
REMARK    2  A    between atoms: C_1  and  C_10
REMARK    3  A    between atoms: C_1  and  O_16
REMARK    4  A    between atoms: O_16  and  C_17
REMARK    5  A    between atoms: C_17  and  C_18
REMARK    6  A    between atoms: C_18  and  C_20
REMARK                            x       y       z     vdW  Elec       q    Type
REMARK                         _______ _______ _______ _____ _____    ______ ____
ROOT
ATOM      1  C   UNL     1      -1.137   0.569  -0.588  0.00  0.00    +0.130 C 
ATOM      2  C   UNL     1      -0.848   0.892  -2.068  0.00  0.00    +0.039 C 
ENDROOT
BRANCH   1   4
ATOM      3 CL   UNL     1      -1.486  -5.280   0.714  0.00  0.00    -0.082 Cl
ATOM      4  C   UNL     1      -1.227  -0.924  -0.256  0.00  0.00    +0.006 C 
ATOM      5  C   UNL     1      -1.761  -1.775  -1.194  0.00  0.00    -0.001 C 
ATOM      6  C   UNL     1      -0.769  -1.353   0.968  0.00  0.00    -0.001 C 
ATOM      7  C   UNL     1      -1.842  -3.134  -0.892  0.00  0.00    +0.011 C 
ATOM      8  C   UNL     1      -0.850  -2.712   1.270  0.00  0.00    +0.011 C 
ATOM      9  C   UNL     1      -1.386  -3.603   0.341  0.00  0.00    +0.058 C 
ENDBRANCH   1   4
BRANCH   1  10
ATOM     10  C   UNL     1      -2.406   1.313  -0.152  0.00  0.00    +0.006 C 
ATOM     11  C   UNL     1      -3.609   0.930  -0.695  0.00  0.00    -0.002 C 
ATOM     12  C   UNL     1      -2.287   2.332   0.763  0.00  0.00    -0.002 C 
ATOM     13  C   UNL     1      -4.763   1.607  -0.298  0.00  0.00    -0.000 C 
ATOM     14  C   UNL     1      -3.441   3.008   1.159  0.00  0.00    -0.000 C 
ATOM     15  C   UNL     1      -4.678   2.646   0.628  0.00  0.00    -0.000 C 
ENDBRANCH   1  10
BRANCH   1  16
ATOM     16  O   UNL     1      -0.006   1.087   0.099  0.00  0.00    -0.350 OA
BRANCH  16  17
ATOM     17  C   UNL     1       1.188   0.417  -0.284  0.00  0.00    +0.141 C 
BRANCH  17  18
ATOM     18  C   UNL     1       2.366   0.998   0.469  0.00  0.00    +0.011 C 
BRANCH  18  20
ATOM     19  N   UNL     1       4.853   0.896   0.716  0.00  0.00    +0.387 N 
ATOM     20  C   UNL     1       3.663   0.287   0.106  0.00  0.00    -0.056 C 
ATOM     21  C   UNL     1       3.965   0.388  -1.391  0.00  0.00    -0.023 C 
ATOM     22  C   UNL     1       5.486   0.441  -1.492  0.00  0.00    -0.025 C 
ATOM     23  C   UNL     1       5.983   0.375  -0.058  0.00  0.00    -0.077 C 
ATOM     24  C   UNL     1       4.993   0.594   2.135  0.00  0.00    -0.101 C 
ATOM     25  H   UNL     1       4.794   1.914   0.685  0.00  0.00    -0.080 HD
ENDBRANCH  18  20
ENDBRANCH  17  18
ENDBRANCH  16  17
ENDBRANCH   1  16
TORSDOF 6
