REMARK  Name = 3517
REMARK  4 active torsions:
REMARK  status: ('A' for Active; 'I' for Inactive)
REMARK    1  A    between atoms: N_1  and  C_2
REMARK    2  A    between atoms: N_1  and  N_11
REMARK    3  A    between atoms: C_2  and  C_5
REMARK    4  A    between atoms: N_11  and  C_14
REMARK                            x       y       z     vdW  Elec       q    Type
REMARK                         _______ _______ _______ _____ _____    ______ ____
ROOT
ATOM      1  N   UNL     1       1.341   0.062   0.022  0.00  0.00    -0.092 NA
ENDROOT
BRANCH   1   2
ATOM      2  C   UNL     1       0.287   0.726  -0.344  0.00  0.00    +0.144 C 
BRANCH   2   5
ATOM      3 CL   UNL     1      -0.031  -2.299  -0.399  0.00  0.00    -0.082 Cl
ATOM      4 CL   UNL     1      -1.884   2.816   0.070  0.00  0.00    -0.082 Cl
ATOM      5  C   UNL     1      -1.069   0.216  -0.148  0.00  0.00    +0.019 C 
ATOM      6  C   UNL     1      -1.306  -1.158  -0.158  0.00  0.00    +0.056 C 
ATOM      7  C   UNL     1      -2.126   1.105   0.049  0.00  0.00    +0.056 C 
ATOM      8  C   UNL     1      -2.601  -1.644   0.029  0.00  0.00    +0.011 C 
ATOM      9  C   UNL     1      -3.420   0.619   0.236  0.00  0.00    +0.011 C 
ATOM     10  C   UNL     1      -3.658  -0.755   0.227  0.00  0.00    +0.002 C 
ENDBRANCH   2   5
ENDBRANCH   1   2
BRANCH   1  11
ATOM     11  N   UNL     1       2.504   0.766  -0.276  0.00  0.00    -0.145 NA
BRANCH  11  14
ATOM     12  N   UNL     1       4.882   0.543  -0.071  0.00  0.00    -0.369 N 
ATOM     13  N   UNL     1       3.500  -1.115   0.681  0.00  0.00    -0.369 N 
ATOM     14  C   UNL     1       3.581   0.119   0.083  0.00  0.00    +0.207 C 
ATOM     15  H   UNL     1       5.069   1.415  -0.488  0.00  0.00    +0.159 HD
ATOM     16  H   UNL     1       5.625  -0.026   0.235  0.00  0.00    +0.159 HD
ATOM     17  H   UNL     1       2.621  -1.526   0.846  0.00  0.00    +0.159 HD
ATOM     18  H   UNL     1       4.322  -1.590   0.944  0.00  0.00    +0.159 HD
ENDBRANCH  11  14
ENDBRANCH   1  11
TORSDOF 4
