REMARK  Name = 5487
REMARK  1 active torsions:
REMARK  status: ('A' for Active; 'I' for Inactive)
REMARK    1  A    between atoms: C_5  and  N_12
REMARK                            x       y       z     vdW  Elec       q    Type
REMARK                         _______ _______ _______ _____ _____    ______ ____
ROOT
ATOM      1 CL   UNL     1      -1.040  -3.442   0.071  0.00  0.00    -0.081 Cl
ATOM      2  S   UNL     1      -1.071   2.959  -0.275  0.00  0.00    +0.117 S 
ATOM      3  N   UNL     1      -0.078   1.631  -0.355  0.00  0.00    -0.189 NA
ATOM      4  N   UNL     1      -2.541   2.234  -0.010  0.00  0.00    -0.190 NA
ATOM      5  C   UNL     1      -0.439  -0.795  -0.167  0.00  0.00    +0.081 C 
ATOM      6  C   UNL     1      -0.862   0.555  -0.176  0.00  0.00    +0.123 A 
ATOM      7  C   UNL     1      -2.314   0.911   0.028  0.00  0.00    +0.110 A 
ATOM      8  C   UNL     1      -1.446  -1.753   0.041  0.00  0.00    +0.073 C 
ATOM      9  C   UNL     1      -3.286  -0.098   0.233  0.00  0.00    +0.022 C 
ATOM     10  C   UNL     1      -2.807  -1.420   0.232  0.00  0.00    +0.014 C 
ENDROOT
BRANCH   5  12
ATOM     11  N   UNL     1       3.117  -0.632  -0.789  0.00  0.00    -0.284 N 
ATOM     12  N   UNL     1       0.907  -1.157  -0.354  0.00  0.00    -0.284 N 
ATOM     13  N   UNL     1       2.124   0.398   0.973  0.00  0.00    -0.214 NA
ATOM     14  C   UNL     1       4.196   0.178  -0.312  0.00  0.00    +0.085 C 
ATOM     15  C   UNL     1       3.534   0.883   0.879  0.00  0.00    +0.117 C 
ATOM     16  C   UNL     1       2.006  -0.451  -0.021  0.00  0.00    +0.190 C 
ATOM     17  H   UNL     1       3.170  -1.236  -1.565  0.00  0.00    +0.155 HD
ATOM     18  H   UNL     1       1.065  -2.030  -0.779  0.00  0.00    +0.155 HD
ENDBRANCH   5  12
TORSDOF 1
