REMARK  Name = 5983
REMARK  2 active torsions:
REMARK  status: ('A' for Active; 'I' for Inactive)
REMARK    1  A    between atoms: C_14  and  O_17
REMARK    2  A    between atoms: O_17  and  C_20
REMARK                            x       y       z     vdW  Elec       q    Type
REMARK                         _______ _______ _______ _____ _____    ______ ____
ROOT
ATOM      1  N   UNL     1      -3.250  -0.783  -1.007  0.00  0.00    +0.398 N 
ATOM      2  N   UNL     1      -2.217   1.384  -0.024  0.00  0.00    -0.327 N 
ATOM      3  C   UNL     1      -1.722  -0.824   0.839  0.00  0.00    +0.017 C 
ATOM      4  C   UNL     1      -2.832   0.056   0.143  0.00  0.00    +0.023 C 
ATOM      5  C   UNL     1      -1.727  -2.153   0.077  0.00  0.00    -0.019 C 
ATOM      6  C   UNL     1      -0.485   0.003   0.616  0.00  0.00    -0.007 C 
ATOM      7  C   UNL     1      -3.088  -2.175  -0.593  0.00  0.00    -0.075 C 
ATOM      8  C   UNL     1      -0.847   1.262   0.122  0.00  0.00    +0.042 C 
ATOM      9  C   UNL     1      -2.002  -1.015   2.333  0.00  0.00    +0.004 C 
ATOM     10  C   UNL     1      -4.606  -0.501  -1.455  0.00  0.00    -0.098 C 
ATOM     11  C   UNL     1       0.839  -0.339   0.852  0.00  0.00    +0.035 C 
ATOM     12  C   UNL     1      -2.884   2.493  -0.656  0.00  0.00    +0.110 C 
ATOM     13  C   UNL     1       0.136   2.205  -0.141  0.00  0.00    +0.017 C 
ATOM     14  C   UNL     1       1.825   0.609   0.581  0.00  0.00    +0.150 C 
ATOM     15  C   UNL     1       1.475   1.873   0.088  0.00  0.00    +0.039 C 
ATOM     16  H   UNL     1      -2.668  -0.573  -1.818  0.00  0.00    -0.077 HD
ENDROOT
BRANCH  14  17
ATOM     17  O   UNL     1       3.135   0.307   0.800  0.00  0.00    -0.410 OA
BRANCH  17  20
ATOM     18  O   UNL     1       3.269  -0.483  -1.382  0.00  0.00    -0.226 OA
ATOM     19  N   UNL     1       5.119  -0.533   0.016  0.00  0.00    -0.269 N 
ATOM     20  C   UNL     1       3.804  -0.263  -0.299  0.00  0.00    +0.406 C 
ATOM     21  C   UNL     1       6.058  -1.122  -0.911  0.00  0.00    +0.114 C 
ATOM     22  H   UNL     1       5.436  -0.313   0.922  0.00  0.00    +0.153 HD
ENDBRANCH  17  20
ENDBRANCH  14  17
TORSDOF 2
