REMARK  Name = 6194
REMARK  5 active torsions:
REMARK  status: ('A' for Active; 'I' for Inactive)
REMARK    1  A    between atoms: C_5  and  N_11
REMARK    2  A    between atoms: N_11  and  C_12
REMARK    3  A    between atoms: N_11  and  C_15
REMARK    4  A    between atoms: C_12  and  C_14
REMARK    5  A    between atoms: C_15  and  C_17
REMARK                            x       y       z     vdW  Elec       q    Type
REMARK                         _______ _______ _______ _____ _____    ______ ____
ROOT
ATOM      1  O   UNL     1      -0.244   0.065   2.123  0.00  0.00    -0.268 OA
ATOM      2  O   UNL     1      -4.211  -0.701  -0.101  0.00  0.00    -0.252 OA
ATOM      3  N   UNL     1      -2.232  -0.319   1.022  0.00  0.00    -0.235 N 
ATOM      4  N   UNL     1      -2.280  -0.389  -1.312  0.00  0.00    -0.266 N 
ATOM      5  C   UNL     1      -0.183   0.013  -0.256  0.00  0.00    +0.117 C 
ATOM      6  C   UNL     1      -0.866  -0.074   1.072  0.00  0.00    +0.267 C 
ATOM      7  C   UNL     1      -0.934  -0.150  -1.353  0.00  0.00    +0.085 C 
ATOM      8  C   UNL     1      -2.999  -0.486  -0.132  0.00  0.00    +0.311 C 
ATOM      9  H   UNL     1      -2.705  -0.380   1.883  0.00  0.00    +0.159 HD
ATOM     10  H   UNL     1      -2.762  -0.497  -2.164  0.00  0.00    +0.156 HD
ENDROOT
BRANCH   5  11
ATOM     11  N   UNL     1       1.159   0.251  -0.244  0.00  0.00    -0.300 N 
BRANCH  11  12
ATOM     12  C   UNL     1       2.089  -0.660   0.412  0.00  0.00    +0.108 C 
BRANCH  12  14
ATOM     13 CL   UNL     1       3.719  -2.846   0.237  0.00  0.00    -0.112 Cl
ATOM     14  C   UNL     1       2.573  -1.732  -0.551  0.00  0.00    +0.116 C 
ENDBRANCH  12  14
ENDBRANCH  11  12
BRANCH  11  15
ATOM     15  C   UNL     1       1.757   1.280  -1.086  0.00  0.00    +0.108 C 
BRANCH  15  17
ATOM     16 CL   UNL     1       1.470   3.096   0.935  0.00  0.00    -0.112 Cl
ATOM     17  C   UNL     1       1.182   2.651  -0.766  0.00  0.00    +0.116 C 
ENDBRANCH  15  17
ENDBRANCH  11  15
ENDBRANCH   5  11
TORSDOF 5
