REMARK  Name = 5215
REMARK  3 active torsions:
REMARK  status: ('A' for Active; 'I' for Inactive)
REMARK    1  A    between atoms: S_1  and  N_4
REMARK    2  A    between atoms: S_1  and  C_12
REMARK    3  A    between atoms: C_15  and  N_18
REMARK                            x       y       z     vdW  Elec       q    Type
REMARK                         _______ _______ _______ _____ _____    ______ ____
ROOT
ATOM      1  S   UNL     1       0.140   2.132  -0.128  0.00  0.00    +0.081 S 
ATOM      2  O   UNL     1      -0.425   3.268   0.591  0.00  0.00    -0.149 OA
ATOM      3  O   UNL     1       0.607   2.329  -1.495  0.00  0.00    -0.149 OA
ENDROOT
BRANCH   1   4
ATOM      4  N   UNL     1       1.413   1.473   0.827  0.00  0.00    -0.158 N 
ATOM      5  N   UNL     1       1.671  -0.809   1.364  0.00  0.00    -0.202 NA
ATOM      6  N   UNL     1       2.568   0.081  -0.687  0.00  0.00    -0.180 NA
ATOM      7  C   UNL     1       1.915   0.170   0.481  0.00  0.00    +0.106 C 
ATOM      8  C   UNL     1       2.154  -2.018   1.008  0.00  0.00    +0.165 C 
ATOM      9  C   UNL     1       3.024  -1.154  -0.981  0.00  0.00    +0.108 C 
ATOM     10  C   UNL     1       2.845  -2.252  -0.164  0.00  0.00    +0.022 C 
ATOM     11  H   UNL     1       1.787   1.974   1.588  0.00  0.00    +0.186 HD
ENDBRANCH   1   4
BRANCH   1  12
ATOM     12  C   UNL     1      -1.050   0.854  -0.123  0.00  0.00    +0.126 C 
ATOM     13  C   UNL     1      -2.026   0.815   0.873  0.00  0.00    +0.021 C 
ATOM     14  C   UNL     1      -1.024  -0.127  -1.113  0.00  0.00    +0.021 C 
ATOM     15  C   UNL     1      -2.950  -1.188  -0.113  0.00  0.00    +0.042 C 
ATOM     16  C   UNL     1      -2.976  -0.206   0.878  0.00  0.00    +0.015 C 
ATOM     17  C   UNL     1      -1.974  -1.148  -1.109  0.00  0.00    +0.015 C 
BRANCH  15  18
ATOM     18  N   UNL     1      -3.912  -2.220  -0.109  0.00  0.00    -0.357 N 
ATOM     19  H   UNL     1      -4.601  -2.248   0.594  0.00  0.00    +0.142 HD
ATOM     20  H   UNL     1      -3.894  -2.912  -0.809  0.00  0.00    +0.142 HD
ENDBRANCH  15  18
ENDBRANCH   1  12
TORSDOF 3
