REMARK  Name = 5281104
REMARK  8 active torsions:
REMARK  status: ('A' for Active; 'I' for Inactive)
REMARK    1  A    between atoms: C_2  and  C_23
REMARK    2  A    between atoms: C_11  and  C_12
REMARK    3  A    between atoms: C_16  and  O_19
REMARK    4  A    between atoms: C_17  and  O_21
REMARK    5  A    between atoms: C_23  and  C_25
REMARK    6  A    between atoms: C_26  and  C_27
REMARK    7  A    between atoms: C_27  and  C_29
REMARK    8  A    between atoms: C_29  and  O_32
REMARK                            x       y       z     vdW  Elec       q    Type
REMARK                         _______ _______ _______ _____ _____    ______ ____
ROOT
ATOM      1  C   UNL     1      -0.459   1.417  -0.111  0.00  0.00    +0.004 C 
ATOM      2  C   UNL     1      -1.840   1.028   0.470  0.00  0.00    +0.004 C 
ATOM      3  C   UNL     1       0.442   1.013   1.082  0.00  0.00    +0.018 C 
ATOM      4  C   UNL     1      -1.579  -0.319   1.185  0.00  0.00    +0.001 C 
ATOM      5  C   UNL     1      -0.063  -0.384   1.448  0.00  0.00    +0.004 C 
ATOM      6  C   UNL     1      -0.281   2.927  -0.368  0.00  0.00    +0.001 C 
ATOM      7  C   UNL     1       1.892   1.298   0.794  0.00  0.00    -0.045 C 
ATOM      8  C   UNL     1      -0.148   0.627  -1.408  0.00  0.00    +0.000 C 
ATOM      9  C   UNL     1       1.193   3.291  -0.620  0.00  0.00    +0.004 C 
ATOM     10  C   UNL     1       2.146   2.754   0.461  0.00  0.00    +0.022 C 
ATOM     11  C   UNL     1       2.877   0.390   0.825  0.00  0.00    -0.009 C 
ENDROOT
BRANCH  11  12
ATOM     12  C   UNL     1       4.255   0.709   0.549  0.00  0.00    -0.009 C 
ATOM     13  C   UNL     1       5.241  -0.199   0.581  0.00  0.00    -0.039 C 
ATOM     14  C   UNL     1       6.673   0.158   0.289  0.00  0.00    +0.051 C 
ATOM     15  C   UNL     1       4.991  -1.656   0.885  0.00  0.00    +0.051 C 
ATOM     16  C   UNL     1       7.240  -0.732  -0.818  0.00  0.00    +0.117 C 
ATOM     17  C   UNL     1       5.589  -2.564  -0.195  0.00  0.00    +0.117 C 
ATOM     18  C   UNL     1       7.049  -2.219  -0.496  0.00  0.00    +0.059 C 
BRANCH  16  19
ATOM     19  O   UNL     1       8.630  -0.452  -0.956  0.00  0.00    -0.384 OA
ATOM     20  H   UNL     1       8.751   0.488  -1.160  0.00  0.00    +0.210 HD
ENDBRANCH  16  19
BRANCH  17  21
ATOM     21  O   UNL     1       4.830  -2.450  -1.398  0.00  0.00    -0.384 OA
ATOM     22  H   UNL     1       3.902  -2.667  -1.216  0.00  0.00    +0.210 HD
ENDBRANCH  17  21
ENDBRANCH  11  12
BRANCH   2  23
ATOM     23  C   UNL     1      -2.997   0.960  -0.517  0.00  0.00    +0.022 C 
ATOM     24  C   UNL     1      -3.215   2.314  -1.195  0.00  0.00    +0.005 C 
BRANCH  23  25
ATOM     25  C   UNL     1      -4.262   0.526   0.183  0.00  0.00    -0.031 C 
ATOM     26  C   UNL     1      -4.944  -0.587  -0.130  0.00  0.00    -0.029 C 
BRANCH  26  27
ATOM     27  C   UNL     1      -6.209  -1.022   0.575  0.00  0.00    +0.046 C 
ATOM     28  C   UNL     1      -5.936  -2.335   1.322  0.00  0.00    +0.007 C 
BRANCH  27  29
ATOM     29  C   UNL     1      -7.446  -1.106  -0.371  0.00  0.00    +0.092 C 
ATOM     30  C   UNL     1      -7.276  -2.096  -1.529  0.00  0.00    +0.030 C 
ATOM     31  C   UNL     1      -7.823   0.273  -0.932  0.00  0.00    +0.030 C 
BRANCH  29  32
ATOM     32  O   UNL     1      -8.570  -1.565   0.394  0.00  0.00    -0.386 OA
ATOM     33  H   UNL     1      -8.372  -2.438   0.767  0.00  0.00    +0.210 HD
ENDBRANCH  29  32
ENDBRANCH  27  29
ENDBRANCH  26  27
ENDBRANCH  23  25
ENDBRANCH   2  23
TORSDOF 8
