REMARK  Name = 6274
REMARK  5 active torsions:
REMARK  status: ('A' for Active; 'I' for Inactive)
REMARK    1  A    between atoms: CA_1  and  N_2
REMARK    2  A    between atoms: CA_1  and  C_7
REMARK    3  A    between atoms: CA_1  and  CB_10
REMARK    4  A    between atoms: C_7  and  O_8
REMARK    5  A    between atoms: CB_10  and  CG_13
REMARK                            x       y       z     vdW  Elec       q    Type
REMARK                         _______ _______ _______ _____ _____    ______ ____
ROOT
ATOM      1  CA  HIS A   1      -1.506   0.640  -0.457  0.00  0.00    +0.041 C 
ENDROOT
BRANCH   1   2
ATOM      2  N   HIS A   1      -2.749   1.369  -0.218  0.00  0.00    +0.389 N 
ATOM      3  H1  HIS A   1      -2.634   2.341  -0.504  0.00  0.00    -0.088 HD
ATOM      4  H2  HIS A   1      -2.980   1.332   0.775  0.00  0.00    -0.088 HD
ATOM      5  H3  HIS A   1      -3.503   0.943  -0.758  0.00  0.00    -0.088 HD
ENDBRANCH   1   2
BRANCH   1   7
ATOM      6  OXT HIS A   1      -2.495  -1.122   0.904  0.00  0.00    -0.253 OA
ATOM      7  C   HIS A   1      -1.750  -0.792  -0.010  0.00  0.00    +0.293 C 
BRANCH   7   8
ATOM      8  O   HIS A   1      -1.069  -1.692  -0.766  0.00  0.00    -0.482 OA
ATOM      9  H   HIS A   1      -0.509  -1.396  -1.456  0.00  0.00    +0.295 HD
ENDBRANCH   7   8
ENDBRANCH   1   7
BRANCH   1  10
ATOM     10  CB  HIS A   1      -0.358   1.300   0.322  0.00  0.00    +0.031 C 
BRANCH  10  13
ATOM     11  ND1 HIS A   1       1.680   0.141   1.162  0.00  0.00    -0.319 N 
ATOM     12  NE2 HIS A   1       2.820  -0.337  -0.682  0.00  0.00    -0.315 N 
ATOM     13  CG  HIS A   1       0.967   0.602   0.119  0.00  0.00    +0.036 C 
ATOM     14  CD2 HIS A   1       1.656   0.315  -1.003  0.00  0.00    +0.069 C 
ATOM     15  CE1 HIS A   1       2.804  -0.425   0.629  0.00  0.00    +0.182 C 
ATOM     16  HD1 HIS A   1       1.440   0.199   2.116  0.00  0.00    +0.148 HD
ATOM     17  HE2 HIS A   1       3.514  -0.665  -1.299  0.00  0.00    +0.148 HD
ENDBRANCH  10  13
ENDBRANCH   1  10
TORSDOF 5
