REMARK  Name = 51039
REMARK  6 active torsions:
REMARK  status: ('A' for Active; 'I' for Inactive)
REMARK    1  A    between atoms: N_2  and  CA_10
REMARK    2  A    between atoms: C_3  and  CA_19
REMARK    3  A    between atoms: CA_12  and  C_16
REMARK    4  A    between atoms: C_16  and  O_17
REMARK    5  A    between atoms: CA_19  and  C_20
REMARK    6  A    between atoms: CA_19  and  N_26
REMARK                            x       y       z     vdW  Elec       q    Type
REMARK                         _______ _______ _______ _____ _____    ______ ____
ROOT
ATOM      1  O   UNL     1      -2.151   2.085   1.557  0.00  0.00    -0.277 OA
ATOM      2  N   UNL     1      -0.635   1.408  -0.062  0.00  0.00    -0.298 N 
ATOM      3  C   UNL     1      -1.917   1.683   0.418  0.00  0.00    +0.206 C 
ATOM      4  H   UNL     1      -0.538   1.090  -0.989  0.00  0.00    +0.150 HD
ENDROOT
BRANCH   2  10
ATOM      5 CL   UNL     1       4.376  -2.861   0.180  0.00  0.00    -0.085 Cl
ATOM      6  S   UNL     1       0.421  -1.264   1.022  0.00  0.00    -0.113 S 
ATOM      7  O   UNL     1       2.311   2.564  -0.854  0.00  0.00    -0.273 OA
ATOM      8  N   UNL     1       2.271   0.515   0.311  0.00  0.00    -0.241 N 
ATOM      9  C   UNL     1       1.252   0.314   1.327  0.00  0.00    +0.155 C 
ATOM     10  CA  UNL     1       0.569   1.574   0.751  0.00  0.00    +0.178 C 
ATOM     11  C   UNL     1       1.868   1.739  -0.089  0.00  0.00    +0.251 C 
ATOM     12  CA  UNL     1       3.244  -0.392   0.034  0.00  0.00    +0.138 C 
ATOM     13  C   UNL     1       1.954  -2.241   1.219  0.00  0.00    +0.098 C 
ATOM     14  C   UNL     1       3.142  -1.666   0.471  0.00  0.00    +0.066 C 
BRANCH  12  16
ATOM     15  OXT UNL     1       4.387   0.033  -2.006  0.00  0.00    -0.244 OA
ATOM     16  C   UNL     1       4.372   0.064  -0.793  0.00  0.00    +0.353 C 
BRANCH  16  17
ATOM     17  O   UNL     1       5.360   0.510   0.008  0.00  0.00    -0.476 OA
ATOM     18  H   UNL     1       5.253   0.493   0.938  0.00  0.00    +0.295 HD
ENDBRANCH  16  17
ENDBRANCH  12  16
ENDBRANCH   2  10
BRANCH   3  19
ATOM     19  CA  UNL     1      -3.008   1.411  -0.612  0.00  0.00    +0.036 C 
BRANCH  19  20
ATOM     20  C   UNL     1      -3.505  -0.015  -0.508  0.00  0.00    -0.034 C 
ATOM     21  C   UNL     1      -2.888  -1.001  -1.258  0.00  0.00    -0.006 C 
ATOM     22  C   UNL     1      -4.565  -0.301   0.334  0.00  0.00    -0.006 C 
ATOM     23  C   UNL     1      -3.346  -2.315  -1.162  0.00  0.00    -0.000 C 
ATOM     24  C   UNL     1      -5.023  -1.615   0.430  0.00  0.00    -0.000 C 
ATOM     25  C   UNL     1      -4.413  -2.622  -0.318  0.00  0.00    -0.000 C 
ENDBRANCH  19  20
BRANCH  19  26
ATOM     26  N   UNL     1      -4.077   2.392  -0.400  0.00  0.00    +0.390 N 
ATOM     27  H1  UNL     1      -3.694   3.334  -0.479  0.00  0.00    -0.088 HD
ATOM     28  H2  UNL     1      -4.476   2.264   0.530  0.00  0.00    -0.088 HD
ATOM     29  H3  UNL     1      -4.804   2.260  -1.103  0.00  0.00    -0.088 HD
ENDBRANCH  19  26
ENDBRANCH   3  19
TORSDOF 6
