REMARK  Name = 3397
REMARK  4 active torsions:
REMARK  status: ('A' for Active; 'I' for Inactive)
REMARK    1  A    between atoms: C_1  and  N_12
REMARK    2  A    between atoms: C_2  and  C_10
REMARK    3  A    between atoms: C_4  and  N_20
REMARK    4  A    between atoms: C_13  and  C_15
REMARK                            x       y       z     vdW  Elec       q    Type
REMARK                         _______ _______ _______ _____ _____    ______ ____
ROOT
ATOM      1  C   UNL     1      -0.874  -0.020   0.052  0.00  0.00    +0.050 C 
ATOM      2  C   UNL     1       1.483  -0.468   0.035  0.00  0.00    +0.095 C 
ATOM      3  C   UNL     1       0.168  -0.932   0.080  0.00  0.00    +0.020 C 
ATOM      4  C   UNL     1       1.737   0.902  -0.036  0.00  0.00    +0.147 C 
ATOM      5  C   UNL     1      -0.639   1.343  -0.018  0.00  0.00    +0.016 C 
ATOM      6  C   UNL     1       0.676   1.807  -0.063  0.00  0.00    +0.025 C 
ENDROOT
BRANCH   2  10
ATOM      7  F   UNL     1       2.169  -2.758   0.136  0.00  0.00    -0.166 F 
ATOM      8  F   UNL     1       3.402  -1.412  -1.035  0.00  0.00    -0.166 F 
ATOM      9  F   UNL     1       3.423  -1.290   1.136  0.00  0.00    -0.166 F 
ATOM     10  C   UNL     1       2.597  -1.464   0.066  0.00  0.00    +0.420 C 
ENDBRANCH   2  10
BRANCH   1  12
ATOM     11  O   UNL     1      -3.465   1.487   0.014  0.00  0.00    -0.275 OA
ATOM     12  N   UNL     1      -2.207  -0.491   0.097  0.00  0.00    -0.284 N 
ATOM     13  C   UNL     1      -3.376   0.265   0.079  0.00  0.00    +0.226 C 
ATOM     14  H   UNL     1      -2.322  -1.468   0.147  0.00  0.00    +0.155 HD
BRANCH  13  15
ATOM     15  C   UNL     1      -4.620  -0.627   0.143  0.00  0.00    +0.077 C 
ATOM     16  C   UNL     1      -5.767   0.076   0.867  0.00  0.00    +0.010 C 
ATOM     17  C   UNL     1      -5.049  -1.032  -1.266  0.00  0.00    +0.010 C 
ENDBRANCH  13  15
ENDBRANCH   1  12
BRANCH   4  20
ATOM     18  O   UNL     1       3.252   2.636  -0.147  0.00  0.00    -0.126 OA
ATOM     19  O   UNL     1       4.020   0.582  -0.058  0.00  0.00    -0.126 OA
ATOM     20  N   UNL     1       3.069   1.398  -0.083  0.00  0.00    +0.058 N 
ENDBRANCH   4  20
TORSDOF 4
