REMARK  Name = 5291
REMARK  6 active torsions:
REMARK  status: ('A' for Active; 'I' for Inactive)
REMARK    1  A    between atoms: C_1  and  N_23
REMARK    2  A    between atoms: C_2  and  N_8
REMARK    3  A    between atoms: C_12  and  C_17
REMARK    4  A    between atoms: C_24  and  C_31
REMARK    5  A    between atoms: C_26  and  C_32
REMARK    6  A    between atoms: C_32  and  N_33
REMARK                            x       y       z     vdW  Elec       q    Type
REMARK                         _______ _______ _______ _____ _____    ______ ____
ROOT
ATOM      1  C   UNL     1      -1.324  -2.513   0.015  0.00  0.00    +0.052 C 
ATOM      2  C   UNL     1      -3.721  -2.541  -0.003  0.00  0.00    +0.055 C 
ATOM      3  C   UNL     1      -2.523  -1.871  -0.246  0.00  0.00    +0.030 C 
ATOM      4  C   UNL     1      -3.703  -3.843   0.498  0.00  0.00    -0.008 C 
ATOM      5  C   UNL     1      -1.288  -3.804   0.512  0.00  0.00    +0.014 C 
ATOM      6  C   UNL     1      -2.487  -4.474   0.756  0.00  0.00    -0.002 C 
ATOM      7  C   UNL     1      -4.972  -4.584   0.769  0.00  0.00    +0.032 C 
ENDROOT
BRANCH   2   8
ATOM      8  N   UNL     1      -4.945  -1.888  -0.270  0.00  0.00    -0.248 N 
ATOM      9  N   UNL     1      -4.375   0.358   0.104  0.00  0.00    -0.337 NA
ATOM     10  N   UNL     1      -6.608  -0.258  -0.560  0.00  0.00    -0.170 NA
ATOM     11  C   UNL     1      -5.327  -0.534  -0.241  0.00  0.00    +0.149 C 
ATOM     12  C   UNL     1      -4.775   1.646   0.123  0.00  0.00    +0.147 C 
ATOM     13  C   UNL     1      -6.057   2.055  -0.184  0.00  0.00    +0.055 C 
ATOM     14  C   UNL     1      -6.940   1.050  -0.521  0.00  0.00    +0.114 C 
ATOM     15  H   UNL     1      -5.672  -2.499  -0.528  0.00  0.00    +0.165 HD
BRANCH  12  17
ATOM     16  N   UNL     1      -2.852   4.834   0.299  0.00  0.00    -0.242 NA
ATOM     17  C   UNL     1      -3.756   2.599   0.491  0.00  0.00    +0.050 C 
ATOM     18  C   UNL     1      -2.724   2.249   1.356  0.00  0.00    +0.006 C 
ATOM     19  C   UNL     1      -3.774   3.893  -0.005  0.00  0.00    +0.101 C 
ATOM     20  C   UNL     1      -1.757   3.189   1.692  0.00  0.00    +0.021 C 
ATOM     21  C   UNL     1      -1.865   4.456   1.142  0.00  0.00    +0.099 C 
ENDBRANCH  12  17
ENDBRANCH   2   8
BRANCH   1  23
ATOM     22  O   UNL     1      -0.828   0.249  -1.042  0.00  0.00    -0.270 OA
ATOM     23  N   UNL     1      -0.107  -1.833  -0.233  0.00  0.00    -0.280 N 
ATOM     24  C   UNL     1       0.083  -0.535  -0.730  0.00  0.00    +0.249 C 
ATOM     25  H   UNL     1       0.714  -2.337  -0.030  0.00  0.00    +0.155 HD
BRANCH  24  31
ATOM     26  C   UNL     1       4.104   0.676  -1.235  0.00  0.00    -0.043 C 
ATOM     27  C   UNL     1       3.783  -0.672  -1.305  0.00  0.00    -0.006 C 
ATOM     28  C   UNL     1       3.126   1.633  -1.002  0.00  0.00    -0.006 C 
ATOM     29  C   UNL     1       2.457  -1.071  -1.139  0.00  0.00    +0.004 C 
ATOM     30  C   UNL     1       1.800   1.234  -0.836  0.00  0.00    +0.004 C 
ATOM     31  C   UNL     1       1.465  -0.118  -0.905  0.00  0.00    +0.054 C 
BRANCH  26  32
ATOM     32  C   UNL     1       5.535   1.108  -1.415  0.00  0.00    -0.050 C 
BRANCH  32  33
ATOM     33  N   UNL     1       6.458   0.266  -0.655  0.00  0.00    +0.387 N 
ATOM     34  N   UNL     1       8.515  -0.162   1.331  0.00  0.00    +0.383 N 
ATOM     35  C   UNL     1       6.155   0.324   0.780  0.00  0.00    -0.100 C 
ATOM     36  C   UNL     1       7.849   0.663  -0.902  0.00  0.00    -0.100 C 
ATOM     37  C   UNL     1       7.123  -0.558   1.577  0.00  0.00    -0.101 C 
ATOM     38  C   UNL     1       8.818  -0.217  -0.105  0.00  0.00    -0.101 C 
ATOM     39  C   UNL     1       9.436  -1.005   2.089  0.00  0.00    -0.101 C 
ATOM     40  H   UNL     1       6.337  -0.696  -0.971  0.00  0.00    -0.079 HD
ATOM     41  H   UNL     1       8.636   0.800   1.647  0.00  0.00    -0.080 HD
ENDBRANCH  32  33
ENDBRANCH  26  32
ENDBRANCH  24  31
ENDBRANCH   1  23
TORSDOF 6
