REMARK  Name = 34755
REMARK  10 active torsions:
REMARK  status: ('A' for Active; 'I' for Inactive)
REMARK    1  A    between atoms: C_2  and  C_22
REMARK    2  A    between atoms: C_3  and  O_18
REMARK    3  A    between atoms: C_4  and  O_20
REMARK    4  A    between atoms: C_5  and  N_6
REMARK    5  A    between atoms: C_22  and  S_23
REMARK    6  A    between atoms: S_23  and  C_25
REMARK    7  A    between atoms: C_25  and  C_26
REMARK    8  A    between atoms: C_26  and  CA_27
REMARK    9  A    between atoms: CA_27  and  N_28
REMARK   10  A    between atoms: CA_27  and  C_34
REMARK                            x       y       z     vdW  Elec       q    Type
REMARK                         _______ _______ _______ _____ _____    ______ ____
ROOT
ATOM      1  O   UNL     1      -1.129  -1.675   1.065  0.00  0.00    -0.335 OA
ATOM      2  C   UNL     1       0.021  -2.408   0.582  0.00  0.00    +0.156 C 
ATOM      3  C   UNL     1      -0.435  -3.148  -0.672  0.00  0.00    +0.169 C 
ATOM      4  C   UNL     1      -1.534  -2.247  -1.197  0.00  0.00    +0.187 C 
ATOM      5  C   UNL     1      -2.188  -1.782   0.095  0.00  0.00    +0.225 C 
ENDROOT
BRANCH   5   6
ATOM      6  N   UNL     1      -2.885  -0.502  -0.017  0.00  0.00    -0.247 N 
ATOM      7  N   UNL     1      -4.557   0.943  -0.323  0.00  0.00    -0.242 NA
ATOM      8  N   UNL     1      -1.063   1.053   0.388  0.00  0.00    -0.228 NA
ATOM      9  N   UNL     1      -1.831   3.367   0.286  0.00  0.00    -0.229 NA
ATOM     10  C   UNL     1      -2.341   0.744   0.122  0.00  0.00    +0.152 C 
ATOM     11  C   UNL     1      -4.218  -0.329  -0.284  0.00  0.00    +0.223 C 
ATOM     12  C   UNL     1      -3.393   1.625  -0.071  0.00  0.00    +0.140 C 
ATOM     13  C   UNL     1      -3.102   2.982   0.020  0.00  0.00    +0.143 C 
ATOM     14  C   UNL     1      -0.904   2.393   0.451  0.00  0.00    +0.253 C 
ATOM     15  N   UNL     1      -4.109   3.946  -0.160  0.00  0.00    -0.342 N 
ATOM     16  H   UNL     1      -3.892   4.904  -0.094  0.00  0.00    +0.144 HD
ATOM     17  H   UNL     1      -5.033   3.663  -0.353  0.00  0.00    +0.144 HD
ENDBRANCH   5   6
BRANCH   3  18
ATOM     18  O   UNL     1      -0.993  -4.405  -0.287  0.00  0.00    -0.379 OA
ATOM     19  H   UNL     1      -0.290  -4.982   0.050  0.00  0.00    +0.211 HD
ENDBRANCH   3  18
BRANCH   4  20
ATOM     20  O   UNL     1      -2.449  -2.921  -2.038  0.00  0.00    -0.378 OA
ATOM     21  H   UNL     1      -1.997  -3.201  -2.849  0.00  0.00    +0.211 HD
ENDBRANCH   4  20
BRANCH   2  22
ATOM     22  C   UNL     1       1.144  -1.417   0.310  0.00  0.00    +0.080 C 
BRANCH  22  23
ATOM     23  S   UNL     1       1.649  -0.557   1.826  0.00  0.00    -0.176 S 
ATOM     24  C   UNL     1       2.141  -2.037   2.740  0.00  0.00    +0.059 C 
BRANCH  23  25
ATOM     25  C   UNL     1       3.303  -0.105   1.257  0.00  0.00    +0.047 C 
BRANCH  25  26
ATOM     26  C   UNL     1       3.258   1.190   0.450  0.00  0.00    -0.000 C 
BRANCH  26  27
ATOM     27  CA  UNL     1       4.644   1.588  -0.065  0.00  0.00    +0.041 C 
BRANCH  27  28
ATOM     28  N   UNL     1       4.533   2.783  -0.904  0.00  0.00    +0.389 N 
ATOM     29  H1  UNL     1       4.087   3.531  -0.373  0.00  0.00    -0.088 HD
ATOM     30  H2  UNL     1       3.971   2.569  -1.728  0.00  0.00    -0.088 HD
ATOM     31  H3  UNL     1       5.464   3.081  -1.195  0.00  0.00    -0.088 HD
ENDBRANCH  27  28
BRANCH  27  34
ATOM     32  O   UNL     1       4.648   0.221  -1.992  0.00  0.00    -0.248 OA
ATOM     33  OXT UNL     1       6.465   0.149  -0.610  0.00  0.00    -0.248 OA
ATOM     34  C   UNL     1       5.325   0.551  -0.975  0.00  0.00    +0.345 C 
ENDBRANCH  27  34
ENDBRANCH  26  27
ENDBRANCH  25  26
ENDBRANCH  23  25
ENDBRANCH  22  23
ENDBRANCH   2  22
TORSDOF 10
