REMARK  Name = 3292
REMARK  2 active torsions:
REMARK  status: ('A' for Active; 'I' for Inactive)
REMARK    1  A    between atoms: N_3  and  C_15
REMARK    2  A    between atoms: C_5  and  C_9
REMARK                            x       y       z     vdW  Elec       q    Type
REMARK                         _______ _______ _______ _____ _____    ______ ____
ROOT
ATOM      1  O   UNL     1       0.787   1.293   1.733  0.00  0.00    -0.272 OA
ATOM      2  O   UNL     1       2.686  -1.698  -1.210  0.00  0.00    -0.252 OA
ATOM      3  N   UNL     1       2.069   0.019   0.253  0.00  0.00    -0.213 N 
ATOM      4  N   UNL     1       0.633  -1.650  -0.101  0.00  0.00    -0.279 N 
ATOM      5  C   UNL     1      -0.058  -0.802   0.840  0.00  0.00    +0.173 C 
ATOM      6  C   UNL     1       0.961   0.314   1.020  0.00  0.00    +0.255 C 
ATOM      7  C   UNL     1       1.897  -1.163  -0.441  0.00  0.00    +0.310 C 
ATOM      8  H   UNL     1       0.254  -2.483  -0.465  0.00  0.00    +0.152 HD
ENDROOT
BRANCH   5   9
ATOM      9  C   UNL     1      -1.348  -0.304   0.296  0.00  0.00    +0.004 C 
ATOM     10  C   UNL     1      -2.545  -0.948   0.623  0.00  0.00    -0.002 C 
ATOM     11  C   UNL     1      -1.373   0.811  -0.546  0.00  0.00    -0.002 C 
ATOM     12  C   UNL     1      -3.756  -0.481   0.113  0.00  0.00    -0.000 C 
ATOM     13  C   UNL     1      -2.584   1.279  -1.057  0.00  0.00    -0.000 C 
ATOM     14  C   UNL     1      -3.776   0.633  -0.727  0.00  0.00    -0.000 C 
ENDBRANCH   5   9
BRANCH   3  15
ATOM     15  C   UNL     1       3.259   0.842   0.163  0.00  0.00    +0.103 C 
ATOM     16  C   UNL     1       3.149   1.855  -0.958  0.00  0.00    +0.024 C 
ENDBRANCH   3  15
TORSDOF 2
