REMARK  Name = 6106
REMARK  5 active torsions:
REMARK  status: ('A' for Active; 'I' for Inactive)
REMARK    1  A    between atoms: CA_1  and  N_2
REMARK    2  A    between atoms: CA_1  and  C_7
REMARK    3  A    between atoms: CA_1  and  CB_10
REMARK    4  A    between atoms: C_7  and  O_8
REMARK    5  A    between atoms: CB_10  and  CG_11
REMARK                            x       y       z     vdW  Elec       q    Type
REMARK                         _______ _______ _______ _____ _____    ______ ____
ROOT
ATOM      1  CA  LEU A   1       0.625   0.841   0.295  0.00  0.00    +0.036 C 
ENDROOT
BRANCH   1   2
ATOM      2  N   LEU A   1       1.731   1.754   0.012  0.00  0.00    +0.389 N 
ATOM      3  H1  LEU A   1       1.415   2.717   0.128  0.00  0.00    -0.088 HD
ATOM      4  H2  LEU A   1       2.051   1.615  -0.946  0.00  0.00    -0.088 HD
ATOM      5  H3  LEU A   1       2.499   1.569   0.657  0.00  0.00    -0.088 HD
ENDBRANCH   1   2
BRANCH   1   7
ATOM      6  OXT LEU A   1       1.554  -1.051  -0.943  0.00  0.00    -0.253 OA
ATOM      7  C   LEU A   1       1.146  -0.575   0.109  0.00  0.00    +0.293 C 
BRANCH   7   8
ATOM      8  O   LEU A   1       1.103  -1.286   1.267  0.00  0.00    -0.482 OA
ATOM      9  H   LEU A   1       0.784  -0.885   2.052  0.00  0.00    +0.295 HD
ENDBRANCH   7   8
ENDBRANCH   1   7
BRANCH   1  10
ATOM     10  CB  LEU A   1      -0.564   1.079  -0.649  0.00  0.00    -0.011 C 
BRANCH  10  11
ATOM     11  CG  LEU A   1      -1.802   0.191  -0.409  0.00  0.00    -0.002 C 
ATOM     12  CD1 LEU A   1      -2.342   0.318   1.016  0.00  0.00    -0.000 C 
ATOM     13  CD2 LEU A   1      -1.451  -1.272  -0.698  0.00  0.00    -0.000 C 
ENDBRANCH  10  11
ENDBRANCH   1  10
TORSDOF 5
