REMARK  Name = 5833
REMARK  2 active torsions:
REMARK  status: ('A' for Active; 'I' for Inactive)
REMARK    1  A    between atoms: C_14  and  S_26
REMARK    2  A    between atoms: S_26  and  C_28
REMARK                            x       y       z     vdW  Elec       q    Type
REMARK                         _______ _______ _______ _____ _____    ______ ____
ROOT
ATOM      1  O   UNL     1       4.710   0.447   0.294  0.00  0.00    -0.456 OA
ATOM      2  O   UNL     1       6.880   0.483  -0.446  0.00  0.00    -0.250 OA
ATOM      3  O   UNL     1      -5.509   1.345  -1.768  0.00  0.00    -0.291 OA
ATOM      4  C   UNL     1       2.224   0.571   0.387  0.00  0.00    +0.034 C 
ATOM      5  C   UNL     1       1.173  -0.557   0.297  0.00  0.00    +0.004 C 
ATOM      6  C   UNL     1      -0.203  -0.153   0.856  0.00  0.00    +0.011 C 
ATOM      7  C   UNL     1       3.488  -0.183  -0.123  0.00  0.00    +0.136 C 
ATOM      8  C   UNL     1      -0.735   1.124   0.099  0.00  0.00    +0.004 C 
ATOM      9  C   UNL     1       1.712   1.746  -0.460  0.00  0.00    +0.003 C 
ATOM     10  C   UNL     1       1.881  -1.747   0.942  0.00  0.00    +0.004 C 
ATOM     11  C   UNL     1      -2.116   1.612   0.681  0.00  0.00    +0.016 C 
ATOM     12  C   UNL     1       0.338   2.244   0.019  0.00  0.00    +0.000 C 
ATOM     13  C   UNL     1       3.360  -1.579   0.552  0.00  0.00    +0.040 C 
ATOM     14  C   UNL     1      -1.247  -1.306   0.892  0.00  0.00    +0.059 C 
ATOM     15  C   UNL     1       2.488   1.078   1.835  0.00  0.00    +0.003 C 
ATOM     16  C   UNL     1       3.668  -0.302  -1.633  0.00  0.00    +0.052 C 
ATOM     17  C   UNL     1      -3.061   0.405   0.636  0.00  0.00    -0.041 C 
ATOM     18  C   UNL     1      -2.606  -0.806   1.419  0.00  0.00    +0.033 C 
ATOM     19  C   UNL     1      -2.731   2.803  -0.112  0.00  0.00    +0.012 C 
ATOM     20  C   UNL     1      -1.979   2.124   2.139  0.00  0.00    +0.004 C 
ATOM     21  C   UNL     1       5.151  -0.575  -1.771  0.00  0.00    +0.113 C 
ATOM     22  C   UNL     1       5.709   0.175  -0.600  0.00  0.00    +0.317 C 
ATOM     23  C   UNL     1      -3.378   2.391  -1.421  0.00  0.00    +0.069 C 
ATOM     24  C   UNL     1      -4.157   0.324  -0.136  0.00  0.00    +0.029 C 
ATOM     25  C   UNL     1      -4.454   1.373  -1.139  0.00  0.00    +0.173 C 
ENDROOT
BRANCH  14  26
ATOM     26  S   UNL     1      -1.504  -2.148  -0.726  0.00  0.00    -0.078 S 
BRANCH  26  28
ATOM     27  O   UNL     1      -2.769  -3.833   0.880  0.00  0.00    -0.285 OA
ATOM     28  C   UNL     1      -2.697  -3.344  -0.240  0.00  0.00    +0.199 C 
ATOM     29  C   UNL     1      -3.633  -3.712  -1.356  0.00  0.00    +0.085 C 
ENDBRANCH  26  28
ENDBRANCH  14  26
TORSDOF 2
