REMARK  Name = 5388962
REMARK  11 active torsions:
REMARK  status: ('A' for Active; 'I' for Inactive)
REMARK    1  A    between atoms: N_1  and  CA_4
REMARK    2  A    between atoms: N_1  and  C_17
REMARK    3  A    between atoms: CA_4  and  C_12
REMARK    4  A    between atoms: CA_8  and  C_14
REMARK    5  A    between atoms: C_14  and  O_15
REMARK    6  A    between atoms: C_17  and  C_19
REMARK    7  A    between atoms: C_17  and  C_23
REMARK    8  A    between atoms: C_19  and  O_20
REMARK    9  A    between atoms: O_20  and  C_21
REMARK   10  A    between atoms: C_23  and  C_24
REMARK   11  A    between atoms: C_24  and  C_25
REMARK                            x       y       z     vdW  Elec       q    Type
REMARK                         _______ _______ _______ _____ _____    ______ ____
ROOT
ATOM      1  N   ALA A   1       0.062  -0.374  -1.955  0.00  0.00    +0.399 N 
ATOM      2  H1  ALA A   1       0.486   0.110  -2.747  0.00  0.00    -0.083 HD
ATOM      3  H2  ALA A   1       0.174  -1.383  -2.050  0.00  0.00    -0.083 HD
ENDROOT
BRANCH   1   4
ATOM      4  CA  ALA A   1      -1.358  -0.069  -1.919  0.00  0.00    +0.018 C 
ATOM      5  CB  ALA A   1      -2.046  -0.523  -3.191  0.00  0.00    -0.014 C 
BRANCH   4  12
ATOM      6  O   ALA A   1      -1.452  -1.877  -0.373  0.00  0.00    -0.277 OA
ATOM      7  N   ALA A   1      -3.012  -0.186  -0.117  0.00  0.00    -0.273 N 
ATOM      8  CA  ALA A   1      -3.581  -0.673   1.133  0.00  0.00    +0.174 C 
ATOM      9  CB  ALA A   1      -4.386   0.502   1.676  0.00  0.00    +0.033 C 
ATOM     10  CG  ALA A   1      -4.808   1.255   0.416  0.00  0.00    +0.024 C 
ATOM     11  CD  ALA A   1      -3.612   1.086  -0.509  0.00  0.00    +0.094 C 
ATOM     12  C   ALA A   1      -1.933  -0.801  -0.733  0.00  0.00    +0.206 C 
BRANCH   8  14
ATOM     13  OXT ALA A   1      -5.059  -1.984  -0.262  0.00  0.00    -0.248 OA
ATOM     14  C   ALA A   1      -4.459  -1.840   0.793  0.00  0.00    +0.332 C 
BRANCH  14  15
ATOM     15  O   ALA A   1      -4.503  -2.721   1.822  0.00  0.00    -0.479 OA
ATOM     16  H   ALA A   1      -4.019  -2.551   2.606  0.00  0.00    +0.295 HD
ENDBRANCH  14  15
ENDBRANCH   8  14
ENDBRANCH   4  12
ENDBRANCH   1   4
BRANCH   1  17
ATOM     17  C   UNK A   0       0.722   0.053  -0.727  0.00  0.00    +0.041 C 
BRANCH  17  19
ATOM     18  O   UNK A   0       0.980   2.389  -1.389  0.00  0.00    -0.252 OA
ATOM     19  C   UNK A   0       0.539   1.556  -0.607  0.00  0.00    +0.297 C 
BRANCH  19  20
ATOM     20  O   UNK A   0      -0.205   1.830   0.508  0.00  0.00    -0.450 OA
BRANCH  20  21
ATOM     21  C   UNK A   0      -0.469   3.216   0.749  0.00  0.00    +0.208 C 
ATOM     22  C   UNK A   0      -1.296   3.348   2.010  0.00  0.00    +0.051 C 
ENDBRANCH  20  21
ENDBRANCH  19  20
ENDBRANCH  17  19
BRANCH  17  23
ATOM     23  C   UNK A   0       2.221  -0.286  -0.741  0.00  0.00    -0.006 C 
BRANCH  23  24
ATOM     24  C   UNK A   0       2.993   0.104   0.528  0.00  0.00    +0.025 C 
BRANCH  24  25
ATOM     25  C   UNK A   0       4.446  -0.298   0.504  0.00  0.00    -0.022 C 
ATOM     26  C   UNK A   0       4.816  -1.542   0.992  0.00  0.00    -0.004 C 
ATOM     27  C   UNK A   0       5.388   0.582  -0.007  0.00  0.00    -0.004 C 
ATOM     28  C   UNK A   0       6.160  -1.915   0.969  0.00  0.00    -0.000 C 
ATOM     29  C   UNK A   0       6.732   0.209  -0.030  0.00  0.00    -0.000 C 
ATOM     30  C   UNK A   0       7.118  -1.039   0.458  0.00  0.00    -0.000 C 
ENDBRANCH  24  25
ENDBRANCH  23  24
ENDBRANCH  17  23
ENDBRANCH   1  17
TORSDOF 11
