REMARK  Name = 10297
REMARK  4 active torsions:
REMARK  status: ('A' for Active; 'I' for Inactive)
REMARK    1  A    between atoms: C_1  and  C_2
REMARK    2  A    between atoms: C_1  and  O_8
REMARK    3  A    between atoms: C_1  and  C_10
REMARK    4  A    between atoms: C_10  and  N_12
REMARK                            x       y       z     vdW  Elec       q    Type
REMARK                         _______ _______ _______ _____ _____    ______ ____
ROOT
ATOM      1  C   UNL     1      -1.115   0.343  -0.668  0.00  0.00    +0.113 C 
ENDROOT
BRANCH   1   2
ATOM      2  C   UNL     1       0.348   0.187  -0.311  0.00  0.00    +0.002 C 
ATOM      3  C   UNL     1       1.123   1.319  -0.128  0.00  0.00    -0.002 C 
ATOM      4  C   UNL     1       0.878  -1.084  -0.178  0.00  0.00    -0.002 C 
ATOM      5  C   UNL     1       2.471   1.175   0.201  0.00  0.00    -0.000 C 
ATOM      6  C   UNL     1       2.227  -1.228   0.150  0.00  0.00    -0.000 C 
ATOM      7  C   UNL     1       3.022  -0.098   0.339  0.00  0.00    -0.000 C 
ENDBRANCH   1   2
BRANCH   1   8
ATOM      8  O   UNL     1      -1.463  -0.778  -1.485  0.00  0.00    -0.382 OA
ATOM      9  H   UNL     1      -2.397  -0.717  -1.737  0.00  0.00    +0.211 HD
ENDBRANCH   1   8
BRANCH   1  10
ATOM     10  C   UNL     1      -2.050   0.412   0.561  0.00  0.00    -0.034 C 
ATOM     11  C   UNL     1      -2.007  -0.864   1.404  0.00  0.00    -0.021 C 
BRANCH  10  12
ATOM     12  N   UNL     1      -3.434   0.615   0.115  0.00  0.00    +0.384 N 
ATOM     13  H   UNL     1      -3.488   1.462  -0.450  0.00  0.00    -0.089 HD
ATOM     14  H   UNL     1      -4.042   0.709   0.929  0.00  0.00    -0.089 HD
ATOM     15  H   UNL     1      -3.733  -0.186  -0.441  0.00  0.00    -0.089 HD
ENDBRANCH  10  12
ENDBRANCH   1  10
TORSDOF 4
