REMARK  Name = 4121
REMARK  3 active torsions:
REMARK  status: ('A' for Active; 'I' for Inactive)
REMARK    1  A    between atoms: C_7  and  C_23
REMARK    2  A    between atoms: C_13  and  S_16
REMARK    3  A    between atoms: S_16  and  N_19
REMARK                            x       y       z     vdW  Elec       q    Type
REMARK                         _______ _______ _______ _____ _____    ______ ____
ROOT
ATOM      1 CL   UNL     1      -2.850   2.770   0.195  0.00  0.00    -0.081 Cl
ATOM      2  S   UNL     1       1.393  -1.802  -0.369  0.00  0.00    +0.066 S 
ATOM      3  O   UNL     1       0.937  -2.928   0.421  0.00  0.00    -0.153 OA
ATOM      4  O   UNL     1       1.648  -1.936  -1.791  0.00  0.00    -0.153 OA
ATOM      5  N   UNL     1       2.768  -1.068   0.402  0.00  0.00    -0.136 NA
ATOM      6  N   UNL     1       1.982   1.220  -0.077  0.00  0.00    -0.318 N 
ATOM      7  C   UNL     1       3.079   0.273  -0.210  0.00  0.00    +0.167 C 
ATOM      8  C   UNL     1       0.211  -0.497  -0.211  0.00  0.00    +0.137 C 
ATOM      9  C   UNL     1       0.648   0.835  -0.113  0.00  0.00    +0.065 C 
ATOM     10  C   UNL     1      -1.142  -0.843  -0.190  0.00  0.00    +0.042 C 
ATOM     11  C   UNL     1       2.760  -1.071   1.895  0.00  0.00    +0.117 C 
ATOM     12  C   UNL     1      -0.344   1.820   0.018  0.00  0.00    +0.028 C 
ATOM     13  C   UNL     1      -2.100   0.159  -0.068  0.00  0.00    +0.134 C 
ATOM     14  C   UNL     1      -1.703   1.489   0.035  0.00  0.00    +0.078 C 
ATOM     15  H   UNL     1       2.194   2.173   0.043  0.00  0.00    +0.148 HD
ENDROOT
BRANCH  13  16
ATOM     16  S   UNL     1      -3.787  -0.314  -0.049  0.00  0.00    +0.058 S 
ATOM     17  O   UNL     1      -4.538   0.844  -0.528  0.00  0.00    -0.153 OA
ATOM     18  O   UNL     1      -3.840  -1.579  -0.773  0.00  0.00    -0.153 OA
BRANCH  16  19
ATOM     19  N   UNL     1      -4.264  -0.604   1.577  0.00  0.00    -0.203 NA
ATOM     20  H   UNL     1      -5.246  -0.880   1.600  0.00  0.00    +0.144 HD
ATOM     21  H   UNL     1      -4.137   0.246   2.126  0.00  0.00    +0.144 HD
ENDBRANCH  16  19
ENDBRANCH  13  16
BRANCH   7  23
ATOM     22 CL   UNL     1       4.782   2.356  -0.520  0.00  0.00    -0.110 Cl
ATOM     23  C   UNL     1       4.360   0.876   0.359  0.00  0.00    +0.133 C 
ENDBRANCH   7  23
TORSDOF 3
