REMARK  Name = 1050
REMARK  4 active torsions:
REMARK  status: ('A' for Active; 'I' for Inactive)
REMARK    1  A    between atoms: C_2  and  C_12
REMARK    2  A    between atoms: C_3  and  C_11
REMARK    3  A    between atoms: C_4  and  O_8
REMARK    4  A    between atoms: C_12  and  O_13
REMARK                            x       y       z     vdW  Elec       q    Type
REMARK                         _______ _______ _______ _____ _____    ______ ____
ROOT
ATOM      1  N   UNL     1       1.118  -1.855   0.162  0.00  0.00    -0.245 NA
ATOM      2  C   UNL     1      -0.992  -0.678   0.250  0.00  0.00    +0.032 C 
ATOM      3  C   UNL     1      -0.335   0.530   0.045  0.00  0.00    +0.077 C 
ATOM      4  C   UNL     1       1.048   0.547  -0.102  0.00  0.00    +0.150 C 
ATOM      5  C   UNL     1       1.722  -0.662  -0.036  0.00  0.00    +0.093 C 
ATOM      6  C   UNL     1      -0.226  -1.833   0.300  0.00  0.00    +0.097 C 
ATOM      7  C   UNL     1       3.207  -0.701  -0.186  0.00  0.00    +0.055 C 
ENDROOT
BRANCH   4   8
ATOM      8  O   UNL     1       1.719   1.712  -0.303  0.00  0.00    -0.504 OA
ATOM      9  H   UNL     1       1.250   2.521  -0.345  0.00  0.00    +0.292 HD
ENDBRANCH   4   8
BRANCH   3  11
ATOM     10  O   UNL     1      -0.623   2.860   0.335  0.00  0.00    -0.283 OA
ATOM     11  C   UNL     1      -1.090   1.776  -0.017  0.00  0.00    +0.237 C 
ENDBRANCH   3  11
BRANCH   2  12
ATOM     12  C   UNL     1      -2.470  -0.760   0.414  0.00  0.00    +0.165 C 
BRANCH  12  13
ATOM     13  O   UNL     1      -3.079  -0.935  -0.861  0.00  0.00    -0.377 OA
ATOM     14  H   UNL     1      -4.042  -0.988  -0.755  0.00  0.00    +0.211 HD
ENDBRANCH  12  13
ENDBRANCH   2  12
TORSDOF 4
