REMARK  Name = 20299
REMARK  9 active torsions:
REMARK  status: ('A' for Active; 'I' for Inactive)
REMARK    1  A    between atoms: C_1  and  C_2
REMARK    2  A    between atoms: C_1  and  C_8
REMARK    3  A    between atoms: C_1  and  O_14
REMARK    4  A    between atoms: C_1  and  C_16
REMARK    5  A    between atoms: C_16  and  C_17
REMARK    6  A    between atoms: C_17  and  N_18
REMARK    7  A    between atoms: N_18  and  C_19
REMARK    8  A    between atoms: N_18  and  C_21
REMARK    9  A    between atoms: N_18  and  C_23
REMARK                            x       y       z     vdW  Elec       q    Type
REMARK                         _______ _______ _______ _____ _____    ______ ____
ROOT
ATOM      1  C   UNL     1       0.835   0.101  -0.398  0.00  0.00    +0.105 C 
ENDROOT
BRANCH   1   2
ATOM      2  C   UNL     1       2.002   0.808   0.289  0.00  0.00    +0.029 C 
ATOM      3  C   UNL     1       1.914   2.326   0.080  0.00  0.00    +0.003 C 
ATOM      4  C   UNL     1       3.342   0.263  -0.222  0.00  0.00    +0.003 C 
ATOM      5  C   UNL     1       3.099   3.052   0.712  0.00  0.00    +0.000 C 
ATOM      6  C   UNL     1       4.525   0.992   0.412  0.00  0.00    +0.000 C 
ATOM      7  C   UNL     1       4.430   2.501   0.209  0.00  0.00    +0.000 C 
ENDBRANCH   1   2
BRANCH   1   8
ATOM      8  C   UNL     1       0.911  -1.409  -0.147  0.00  0.00    +0.002 C 
ATOM      9  C   UNL     1       0.868  -1.862   1.151  0.00  0.00    -0.002 C 
ATOM     10  C   UNL     1       1.019  -2.250  -1.229  0.00  0.00    -0.002 C 
ATOM     11  C   UNL     1       0.938  -3.236   1.379  0.00  0.00    -0.000 C 
ATOM     12  C   UNL     1       1.088  -3.624  -1.001  0.00  0.00    -0.000 C 
ATOM     13  C   UNL     1       1.047  -4.117   0.303  0.00  0.00    -0.000 C 
ENDBRANCH   1   8
BRANCH   1  14
ATOM     14  O   UNL     1       0.953   0.375  -1.803  0.00  0.00    -0.383 OA
ATOM     15  H   UNL     1       0.903   1.332  -1.951  0.00  0.00    +0.211 HD
ENDBRANCH   1  14
BRANCH   1  16
ATOM     16  C   UNL     1      -0.515   0.703   0.077  0.00  0.00    +0.009 C 
BRANCH  16  17
ATOM     17  C   UNL     1      -1.741   0.041  -0.550  0.00  0.00    -0.070 C 
BRANCH  17  18
ATOM     18  N   UNL     1      -2.966   0.660   0.016  0.00  0.00    +0.390 N 
BRANCH  18  19
ATOM     19  C   UNL     1      -3.018   0.473   1.538  0.00  0.00    -0.073 C 
ATOM     20  C   UNL     1      -4.296   1.082   2.072  0.00  0.00    -0.024 C 
ENDBRANCH  18  19
BRANCH  18  21
ATOM     21  C   UNL     1      -3.001   2.166  -0.281  0.00  0.00    -0.073 C 
ATOM     22  C   UNL     1      -2.951   2.380  -1.778  0.00  0.00    -0.024 C 
ENDBRANCH  18  21
BRANCH  18  23
ATOM     23  C   UNL     1      -4.226   0.025  -0.587  0.00  0.00    -0.073 C 
ATOM     24  C   UNL     1      -4.256  -1.448  -0.241  0.00  0.00    -0.024 C 
ENDBRANCH  18  23
ENDBRANCH  17  18
ENDBRANCH  16  17
ENDBRANCH   1  16
TORSDOF 9
