REMARK  Name = 5530
REMARK  2 active torsions:
REMARK  status: ('A' for Active; 'I' for Inactive)
REMARK    1  A    between atoms: C_1  and  C_4
REMARK    2  A    between atoms: C_2  and  N_10
REMARK                            x       y       z     vdW  Elec       q    Type
REMARK                         _______ _______ _______ _____ _____    ______ ____
ROOT
ATOM      1  C   UNL     1       1.292  -0.117  -0.595  0.00  0.00    +0.000 C 
ATOM      2  C   UNL     1       2.280   0.143   0.499  0.00  0.00    -0.061 C 
ATOM      3  C   UNL     1       2.085  -1.250  -0.023  0.00  0.00    -0.019 C 
ENDROOT
BRANCH   1   4
ATOM      4  C   UNL     1      -0.166  -0.025  -0.295  0.00  0.00    -0.025 C 
ATOM      5  C   UNL     1      -0.790   1.221  -0.240  0.00  0.00    -0.004 C 
ATOM      6  C   UNL     1      -0.905  -1.186  -0.069  0.00  0.00    -0.004 C 
ATOM      7  C   UNL     1      -2.154   1.306   0.041  0.00  0.00    -0.000 C 
ATOM      8  C   UNL     1      -2.268  -1.102   0.212  0.00  0.00    -0.000 C 
ATOM      9  C   UNL     1      -2.893   0.144   0.267  0.00  0.00    -0.000 C 
ENDBRANCH   1   4
BRANCH   2  10
ATOM     10  N   UNL     1       3.519   0.867   0.203  0.00  0.00    +0.382 N 
ATOM     11  H   UNL     1       3.483   1.791   0.632  0.00  0.00    -0.089 HD
ATOM     12  H   UNL     1       3.623   0.964  -0.807  0.00  0.00    -0.089 HD
ATOM     13  H   UNL     1       4.313   0.348   0.578  0.00  0.00    -0.089 HD
ENDBRANCH   2  10
TORSDOF 2
