REMARK  Name = 2381
REMARK  6 active torsions:
REMARK  status: ('A' for Active; 'I' for Inactive)
REMARK    1  A    between atoms: C_1  and  C_2
REMARK    2  A    between atoms: C_1  and  C_9
REMARK    3  A    between atoms: C_1  and  O_15
REMARK    4  A    between atoms: C_1  and  C_17
REMARK    5  A    between atoms: C_17  and  C_18
REMARK    6  A    between atoms: C_18  and  N_19
REMARK                            x       y       z     vdW  Elec       q    Type
REMARK                         _______ _______ _______ _____ _____    ______ ____
ROOT
ATOM      1  C   UNL     1       0.920   0.093  -0.425  0.00  0.00    +0.105 C 
ENDROOT
BRANCH   1   2
ATOM      2  C   UNL     1       1.662  -0.768   0.586  0.00  0.00    +0.029 C 
ATOM      3  C   UNL     1       1.705  -2.284   0.256  0.00  0.00    +0.003 C 
ATOM      4  C   UNL     1       3.866  -1.782   0.527  0.00  0.00    +0.000 C 
ATOM      5  C   UNL     1       3.176  -0.412   0.718  0.00  0.00    +0.003 C 
ATOM      6  C   UNL     1       2.851  -2.730   1.174  0.00  0.00    +0.000 C 
ATOM      7  C   UNL     1       2.386  -2.499  -1.076  0.00  0.00    +0.000 C 
ATOM      8  C   UNL     1       3.681  -2.192  -0.914  0.00  0.00    +0.000 C 
ENDBRANCH   1   2
BRANCH   1   9
ATOM      9  C   UNL     1       0.913   1.598  -0.131  0.00  0.00    +0.002 C 
ATOM     10  C   UNL     1       0.964   2.010   1.179  0.00  0.00    -0.002 C 
ATOM     11  C   UNL     1       0.856   2.472  -1.190  0.00  0.00    -0.002 C 
ATOM     12  C   UNL     1       0.957   3.379   1.446  0.00  0.00    -0.000 C 
ATOM     13  C   UNL     1       0.850   3.841  -0.923  0.00  0.00    -0.000 C 
ATOM     14  C   UNL     1       0.900   4.295   0.396  0.00  0.00    -0.000 C 
ENDBRANCH   1   9
BRANCH   1  15
ATOM     15  O   UNL     1       1.629  -0.060  -1.675  0.00  0.00    -0.383 OA
ATOM     16  H   UNL     1       1.666  -0.999  -1.914  0.00  0.00    +0.211 HD
ENDBRANCH   1  15
BRANCH   1  17
ATOM     17  C   UNL     1      -0.526  -0.433  -0.668  0.00  0.00    +0.008 C 
BRANCH  17  18
ATOM     18  C   UNL     1      -1.469  -0.288   0.530  0.00  0.00    -0.075 C 
BRANCH  18  19
ATOM     19  N   UNL     1      -2.794  -0.807   0.190  0.00  0.00    +0.387 N 
ATOM     20  C   UNL     1      -3.371  -0.049  -0.929  0.00  0.00    -0.077 C 
ATOM     21  C   UNL     1      -3.676  -0.774   1.365  0.00  0.00    -0.077 C 
ATOM     22  C   UNL     1      -4.736  -0.610  -1.330  0.00  0.00    -0.023 C 
ATOM     23  C   UNL     1      -5.051  -1.359   1.039  0.00  0.00    -0.023 C 
ATOM     24  C   UNL     1      -5.693  -0.641  -0.143  0.00  0.00    -0.004 C 
ATOM     25  H   UNL     1      -2.699  -1.779  -0.105  0.00  0.00    -0.080 HD
ENDBRANCH  18  19
ENDBRANCH  17  18
ENDBRANCH   1  17
TORSDOF 6
