REMARK  Name = 3156
REMARK  6 active torsions:
REMARK  status: ('A' for Active; 'I' for Inactive)
REMARK    1  A    between atoms: N_2  and  C_19
REMARK    2  A    between atoms: C_3  and  C_21
REMARK    3  A    between atoms: C_4  and  C_7
REMARK    4  A    between atoms: C_4  and  C_13
REMARK    5  A    between atoms: C_21  and  C_22
REMARK    6  A    between atoms: C_22  and  N_24
REMARK                            x       y       z     vdW  Elec       q    Type
REMARK                         _______ _______ _______ _____ _____    ______ ____
ROOT
ATOM      1  O   UNL     1      -3.380  -1.224   1.072  0.00  0.00    -0.274 OA
ATOM      2  N   UNL     1      -1.253  -1.923   1.738  0.00  0.00    -0.279 N 
ATOM      3  C   UNL     1       0.010  -0.115   1.050  0.00  0.00    +0.034 C 
ATOM      4  C   UNL     1      -1.353  -0.042   0.255  0.00  0.00    +0.108 C 
ATOM      5  C   UNL     1       0.118  -1.570   1.488  0.00  0.00    +0.094 C 
ATOM      6  C   UNL     1      -2.161  -1.102   1.067  0.00  0.00    +0.232 C 
ENDROOT
BRANCH   4   7
ATOM      7  C   UNL     1      -1.179  -0.481  -1.221  0.00  0.00    -0.011 C 
ATOM      8  C   UNL     1      -1.062   0.480  -2.227  0.00  0.00    -0.004 C 
ATOM      9  C   UNL     1      -1.138  -1.837  -1.547  0.00  0.00    -0.004 C 
ATOM     10  C   UNL     1      -0.904   0.085  -3.555  0.00  0.00    -0.000 C 
ATOM     11  C   UNL     1      -0.981  -2.232  -2.875  0.00  0.00    -0.000 C 
ATOM     12  C   UNL     1      -0.864  -1.272  -3.880  0.00  0.00    -0.000 C 
ENDBRANCH   4   7
BRANCH   4  13
ATOM     13  C   UNL     1      -2.094   1.314   0.345  0.00  0.00    -0.011 C 
ATOM     14  C   UNL     1      -3.379   1.437  -0.177  0.00  0.00    -0.004 C 
ATOM     15  C   UNL     1      -1.471   2.405   0.946  0.00  0.00    -0.004 C 
ATOM     16  C   UNL     1      -4.046   2.659  -0.096  0.00  0.00    -0.000 C 
ATOM     17  C   UNL     1      -2.138   3.627   1.026  0.00  0.00    -0.000 C 
ATOM     18  C   UNL     1      -3.426   3.754   0.506  0.00  0.00    -0.000 C 
ENDBRANCH   4  13
BRANCH   2  19
ATOM     19  C   UNL     1      -1.600  -3.104   2.499  0.00  0.00    +0.093 C 
ATOM     20  C   UNL     1      -1.590  -4.346   1.633  0.00  0.00    +0.023 C 
ENDBRANCH   2  19
BRANCH   3  21
ATOM     21  C   UNL     1       1.280   0.353   0.349  0.00  0.00    -0.020 C 
BRANCH  21  22
ATOM     22  C   UNL     1       2.489   0.199   1.260  0.00  0.00    -0.077 C 
BRANCH  22  24
ATOM     23  O   UNL     1       6.324   0.303  -0.443  0.00  0.00    -0.358 OA
ATOM     24  N   UNL     1       3.690   0.669   0.572  0.00  0.00    +0.390 N 
ATOM     25  C   UNL     1       3.944  -0.125  -0.638  0.00  0.00    -0.045 C 
ATOM     26  C   UNL     1       4.857   0.615   1.464  0.00  0.00    -0.045 C 
ATOM     27  C   UNL     1       5.208   0.376  -1.331  0.00  0.00    +0.119 C 
ATOM     28  C   UNL     1       6.099   1.099   0.721  0.00  0.00    +0.119 C 
ATOM     29  H   UNL     1       3.534   1.639   0.299  0.00  0.00    -0.079 HD
ENDBRANCH  22  24
ENDBRANCH  21  22
ENDBRANCH   3  21
TORSDOF 6
