REMARK  Name = 4421
REMARK  3 active torsions:
REMARK  status: ('A' for Active; 'I' for Inactive)
REMARK    1  A    between atoms: N_2  and  C_17
REMARK    2  A    between atoms: C_7  and  C_14
REMARK    3  A    between atoms: C_14  and  O_15
REMARK                            x       y       z     vdW  Elec       q    Type
REMARK                         _______ _______ _______ _____ _____    ______ ____
ROOT
ATOM      1  O   UNL     1       1.495  -2.310  -0.295  0.00  0.00    -0.290 OA
ATOM      2  N   UNL     1      -0.047   1.407   0.290  0.00  0.00    -0.264 N 
ATOM      3  N   UNL     1      -2.299   0.528   0.194  0.00  0.00    -0.395 NA
ATOM      4  C   UNL     1      -0.955   0.326   0.141  0.00  0.00    +0.174 C 
ATOM      5  C   UNL     1      -0.439  -0.965  -0.062  0.00  0.00    +0.151 C 
ATOM      6  C   UNL     1       1.313   1.183   0.234  0.00  0.00    +0.076 C 
ATOM      7  C   UNL     1       1.902  -0.003   0.046  0.00  0.00    +0.126 C 
ATOM      8  C   UNL     1       1.028  -1.191  -0.120  0.00  0.00    +0.192 C 
ATOM      9  C   UNL     1      -1.310  -2.047  -0.211  0.00  0.00    -0.008 C 
ATOM     10  C   UNL     1      -3.119  -0.538   0.046  0.00  0.00    +0.110 C 
ATOM     11  C   UNL     1      -2.679  -1.832  -0.156  0.00  0.00    +0.024 C 
ATOM     12  C   UNL     1      -4.584  -0.266   0.111  0.00  0.00    +0.066 C 
ENDROOT
BRANCH   7  14
ATOM     13  O   UNL     1       4.061   0.867  -0.378  0.00  0.00    -0.245 OA
ATOM     14  C   UNL     1       3.364  -0.061   0.013  0.00  0.00    +0.342 C 
BRANCH  14  15
ATOM     15  O   UNL     1       3.789  -1.253   0.470  0.00  0.00    -0.477 OA
ATOM     16  H   UNL     1       3.167  -1.897   0.746  0.00  0.00    +0.295 HD
ENDBRANCH  14  15
ENDBRANCH   7  14
BRANCH   2  17
ATOM     17  C   UNL     1      -0.637   2.723   0.499  0.00  0.00    +0.098 C 
ATOM     18  C   UNL     1      -0.882   3.431  -0.823  0.00  0.00    +0.024 C 
ENDBRANCH   2  17
TORSDOF 3
