REMARK  Name = 3763
REMARK  3 active torsions:
REMARK  status: ('A' for Active; 'I' for Inactive)
REMARK    1  A    between atoms: C_2  and  C_6
REMARK    2  A    between atoms: C_2  and  O_7
REMARK    3  A    between atoms: O_7  and  C_10
REMARK                            x       y       z     vdW  Elec       q    Type
REMARK                         _______ _______ _______ _____ _____    ______ ____
ROOT
ATOM      1 CL   UNL     1       0.612   2.201  -0.235  0.00  0.00    -0.073 Cl
ATOM      2  C   UNL     1       0.268   0.457  -0.372  0.00  0.00    +0.294 C 
ENDROOT
BRANCH   2   6
ATOM      3  F   UNL     1       2.554  -0.030  -0.740  0.00  0.00    -0.166 F 
ATOM      4  F   UNL     1       1.264  -1.663  -0.101  0.00  0.00    -0.166 F 
ATOM      5  F   UNL     1       1.833  -0.110   1.321  0.00  0.00    -0.166 F 
ATOM      6  C   UNL     1       1.491  -0.337   0.035  0.00  0.00    +0.437 C 
ENDBRANCH   2   6
BRANCH   2   7
ATOM      7  O   UNL     1      -0.800   0.105   0.507  0.00  0.00    -0.278 OA
BRANCH   7  10
ATOM      8  F   UNL     1      -3.001  -0.166   0.812  0.00  0.00    -0.166 F 
ATOM      9  F   UNL     1      -2.146  -0.672  -1.126  0.00  0.00    -0.166 F 
ATOM     10  C   UNL     1      -2.075   0.214  -0.102  0.00  0.00    +0.451 C 
ENDBRANCH   7  10
ENDBRANCH   2   7
TORSDOF 3
