REMARK  Name = 8982
REMARK  6 active torsions:
REMARK  status: ('A' for Active; 'I' for Inactive)
REMARK    1  A    between atoms: N_2  and  CA_11
REMARK    2  A    between atoms: C_3  and  C_19
REMARK    3  A    between atoms: CA_10  and  C_16
REMARK    4  A    between atoms: C_16  and  O_17
REMARK    5  A    between atoms: C_21  and  O_29
REMARK    6  A    between atoms: O_29  and  C_30
REMARK                            x       y       z     vdW  Elec       q    Type
REMARK                         _______ _______ _______ _____ _____    ______ ____
ROOT
ATOM      1  O   UNL     1      -1.075  -0.005  -2.244  0.00  0.00    -0.270 OA
ATOM      2  N   UNL     1      -0.064   0.886  -0.358  0.00  0.00    -0.293 N 
ATOM      3  C   UNL     1      -1.090   0.228  -1.038  0.00  0.00    +0.249 C 
ATOM      4  H   UNL     1      -0.158   1.032   0.611  0.00  0.00    +0.150 HD
ENDROOT
BRANCH   2  11
ATOM      5  S   UNL     1       2.217   1.319   1.625  0.00  0.00    -0.118 S 
ATOM      6  O   UNL     1       1.942  -0.734  -2.239  0.00  0.00    -0.273 OA
ATOM      7  N   UNL     1       3.098   0.704  -0.769  0.00  0.00    -0.260 N 
ATOM      8  C   UNL     1       2.334   1.785  -0.143  0.00  0.00    +0.151 C 
ATOM      9  C   UNL     1       3.279  -0.198   1.441  0.00  0.00    +0.068 C 
ATOM     10  CA  UNL     1       3.968  -0.096   0.062  0.00  0.00    +0.184 C 
ATOM     11  CA  UNL     1       1.149   1.369  -1.030  0.00  0.00    +0.178 C 
ATOM     12  C   UNL     1       2.072   0.247  -1.542  0.00  0.00    +0.247 C 
ATOM     13  C   UNL     1       4.257  -0.271   2.618  0.00  0.00    +0.013 C 
ATOM     14  C   UNL     1       2.346  -1.420   1.493  0.00  0.00    +0.013 C 
BRANCH  10  16
ATOM     15  OXT UNL     1       5.378   1.865  -0.032  0.00  0.00    -0.248 OA
ATOM     16  C   UNL     1       5.268   0.650   0.043  0.00  0.00    +0.333 C 
BRANCH  16  17
ATOM     17  O   UNL     1       6.314  -0.208   0.118  0.00  0.00    -0.479 OA
ATOM     18  H   UNL     1       6.160  -1.131   0.173  0.00  0.00    +0.295 HD
ENDBRANCH  16  17
ENDBRANCH  10  16
ENDBRANCH   2  11
BRANCH   3  19
ATOM     19  C   UNL     1      -2.246  -0.223  -0.222  0.00  0.00    +0.087 C 
ATOM     20  C   UNL     1      -3.345   0.608  -0.024  0.00  0.00    +0.007 C 
ATOM     21  C   UNL     1      -2.174  -1.496   0.320  0.00  0.00    +0.143 C 
ATOM     22  C   UNL     1      -4.421   0.129   0.761  0.00  0.00    +0.000 C 
ATOM     23  C   UNL     1      -3.232  -1.967   1.091  0.00  0.00    +0.037 C 
ATOM     24  C   UNL     1      -3.418   1.899  -0.574  0.00  0.00    +0.000 C 
ATOM     25  C   UNL     1      -4.349  -1.161   1.311  0.00  0.00    +0.003 C 
ATOM     26  C   UNL     1      -5.538   0.954   0.972  0.00  0.00    +0.000 C 
ATOM     27  C   UNL     1      -4.535   2.704  -0.354  0.00  0.00    +0.000 C 
ATOM     28  C   UNL     1      -5.593   2.233   0.418  0.00  0.00    +0.000 C 
BRANCH  21  29
ATOM     29  O   UNL     1      -1.093  -2.304   0.122  0.00  0.00    -0.475 OA
BRANCH  29  30
ATOM     30  C   UNL     1      -1.329  -3.553  -0.523  0.00  0.00    +0.206 C 
ATOM     31  C   UNL     1      -0.121  -3.946  -1.303  0.00  0.00    +0.051 C 
ENDBRANCH  29  30
ENDBRANCH  21  29
ENDBRANCH   3  19
TORSDOF 6
