REMARK  Name = 4935
REMARK  11 active torsions:
REMARK  status: ('A' for Active; 'I' for Inactive)
REMARK    1  A    between atoms: C_1  and  C_11
REMARK    2  A    between atoms: C_2  and  O_21
REMARK    3  A    between atoms: C_3  and  N_7
REMARK    4  A    between atoms: C_11  and  O_12
REMARK    5  A    between atoms: O_12  and  C_13
REMARK    6  A    between atoms: C_13  and  C_14
REMARK    7  A    between atoms: C_14  and  N_15
REMARK    8  A    between atoms: N_15  and  C_17
REMARK    9  A    between atoms: N_15  and  C_19
REMARK   10  A    between atoms: O_21  and  C_22
REMARK   11  A    between atoms: C_22  and  C_23
REMARK                            x       y       z     vdW  Elec       q    Type
REMARK                         _______ _______ _______ _____ _____    ______ ____
ROOT
ATOM      1  C   UNL     1      -0.740   0.986   0.071  0.00  0.00    +0.077 C 
ATOM      2  C   UNL     1      -3.349   0.114   0.536  0.00  0.00    +0.151 C 
ATOM      3  C   UNL     1      -2.297  -0.802   0.533  0.00  0.00    +0.076 C 
ATOM      4  C   UNL     1      -0.993  -0.367   0.300  0.00  0.00    +0.024 C 
ATOM      5  C   UNL     1      -1.791   1.902   0.074  0.00  0.00    +0.010 C 
ATOM      6  C   UNL     1      -3.095   1.467   0.306  0.00  0.00    +0.038 C 
ENDROOT
BRANCH   3   7
ATOM      7  N   UNL     1      -2.540  -2.174   0.764  0.00  0.00    -0.355 N 
ATOM      8  H   UNL     1      -3.457  -2.491   0.929  0.00  0.00    +0.142 HD
ATOM      9  H   UNL     1      -1.791  -2.814   0.760  0.00  0.00    +0.142 HD
ENDBRANCH   3   7
BRANCH   1  11
ATOM     10  O   UNL     1       0.937   2.618  -0.384  0.00  0.00    -0.245 OA
ATOM     11  C   UNL     1       0.649   1.450  -0.177  0.00  0.00    +0.341 C 
BRANCH  11  12
ATOM     12  O   UNL     1       1.522   0.406  -0.137  0.00  0.00    -0.448 OA
BRANCH  12  13
ATOM     13  C   UNL     1       2.889   0.725  -0.359  0.00  0.00    +0.186 C 
BRANCH  13  14
ATOM     14  C   UNL     1       3.709  -0.552  -0.278  0.00  0.00    -0.029 C 
BRANCH  14  15
ATOM     15  N   UNL     1       5.124  -0.274  -0.519  0.00  0.00    +0.389 N 
ATOM     16  H   UNL     1       5.195   0.420  -1.263  0.00  0.00    -0.080 HD
BRANCH  15  17
ATOM     17  C   UNL     1       5.749   0.273   0.685  0.00  0.00    -0.077 C 
ATOM     18  C   UNL     1       7.206   0.626   0.435  0.00  0.00    -0.025 C 
ENDBRANCH  15  17
BRANCH  15  19
ATOM     19  C   UNL     1       5.818  -1.487  -0.949  0.00  0.00    -0.077 C 
ATOM     20  C   UNL     1       5.777  -2.555   0.131  0.00  0.00    -0.025 C 
ENDBRANCH  15  19
ENDBRANCH  14  15
ENDBRANCH  13  14
ENDBRANCH  12  13
ENDBRANCH  11  12
ENDBRANCH   1  11
BRANCH   2  21
ATOM     21  O   UNL     1      -4.630  -0.291   0.761  0.00  0.00    -0.474 OA
BRANCH  21  22
ATOM     22  C   UNL     1      -5.580  -0.041  -0.273  0.00  0.00    +0.205 C 
BRANCH  22  23
ATOM     23  C   UNL     1      -6.661  -1.109  -0.217  0.00  0.00    +0.047 C 
ATOM     24  C   UNL     1      -7.703  -0.915  -1.304  0.00  0.00    +0.004 C 
ENDBRANCH  22  23
ENDBRANCH  21  22
ENDBRANCH   2  21
TORSDOF 11
