REMARK  Name = 3520
REMARK  0 active torsions:
REMARK  status: ('A' for Active; 'I' for Inactive)
REMARK                            x       y       z     vdW  Elec       q    Type
REMARK                         _______ _______ _______ _____ _____    ______ ____
ROOT
ATOM      1  N   UNL     1      -0.737  -1.125   0.000  0.00  0.00    -0.370 N 
ATOM      2  N   UNL     1      -0.661   1.169   0.000  0.00  0.00    -0.370 N 
ATOM      3  N   UNL     1       1.350  -0.041   0.000  0.00  0.00    -0.269 NA
ATOM      4  C   UNL     1       0.048  -0.003   0.000  0.00  0.00    +0.185 C 
ATOM      5  H   UNL     1      -1.718  -1.040   0.000  0.00  0.00    +0.159 HD
ATOM      6  H   UNL     1      -0.321  -2.017   0.000  0.00  0.00    +0.159 HD
ATOM      7  H   UNL     1      -1.646   1.149   0.000  0.00  0.00    +0.159 HD
ATOM      8  H   UNL     1      -0.187   2.032   0.000  0.00  0.00    +0.159 HD
ATOM      9  H   UNL     1       1.817  -0.908   0.000  0.00  0.00    +0.190 HD
ENDROOT
TORSDOF 0
