REMARK  Name = 3647
REMARK  3 active torsions:
REMARK  status: ('A' for Active; 'I' for Inactive)
REMARK    1  A    between atoms: C_8  and  S_19
REMARK    2  A    between atoms: C_9  and  C_18
REMARK    3  A    between atoms: S_19  and  N_22
REMARK                            x       y       z     vdW  Elec       q    Type
REMARK                         _______ _______ _______ _____ _____    ______ ____
ROOT
ATOM      1  S   UNL     1      -3.107   0.983  -0.006  0.00  0.00    +0.063 S 
ATOM      2  O   UNL     1      -3.424   1.303   1.372  0.00  0.00    -0.153 OA
ATOM      3  O   UNL     1      -3.126   1.992  -1.047  0.00  0.00    -0.153 OA
ATOM      4  N   UNL     1      -2.414  -2.037   0.042  0.00  0.00    -0.317 N 
ATOM      5  N   UNL     1      -4.056  -0.341  -0.521  0.00  0.00    -0.160 NA
ATOM      6  C   UNL     1      -1.500   0.252   0.013  0.00  0.00    +0.136 C 
ATOM      7  C   UNL     1      -1.354  -1.144   0.037  0.00  0.00    +0.064 C 
ATOM      8  C   UNL     1       0.885   0.586  -0.031  0.00  0.00    +0.127 C 
ATOM      9  C   UNL     1       1.065  -0.794  -0.014  0.00  0.00    +0.091 C 
ATOM     10  C   UNL     1      -0.401   1.116  -0.021  0.00  0.00    +0.041 C 
ATOM     11  C   UNL     1      -3.788  -1.608   0.183  0.00  0.00    +0.182 C 
ATOM     12  C   UNL     1      -0.043  -1.647   0.015  0.00  0.00    +0.021 C 
ATOM     13  H   UNL     1      -2.225  -2.999  -0.055  0.00  0.00    +0.148 HD
ATOM     14  H   UNL     1      -3.882  -0.488  -1.515  0.00  0.00    +0.151 HD
ENDROOT
BRANCH   9  18
ATOM     15  F   UNL     1       2.424  -2.763  -0.011  0.00  0.00    -0.166 F 
ATOM     16  F   UNL     1       3.165  -1.058  -1.129  0.00  0.00    -0.166 F 
ATOM     17  F   UNL     1       3.182  -1.020   1.046  0.00  0.00    -0.166 F 
ATOM     18  C   UNL     1       2.432  -1.398  -0.029  0.00  0.00    +0.420 C 
ENDBRANCH   9  18
BRANCH   8  19
ATOM     19  S   UNL     1       2.249   1.681  -0.070  0.00  0.00    +0.057 S 
ATOM     20  O   UNL     1       3.351   0.939  -0.678  0.00  0.00    -0.153 OA
ATOM     21  O   UNL     1       1.749   2.900  -0.697  0.00  0.00    -0.153 OA
BRANCH  19  22
ATOM     22  N   UNL     1       2.708   2.058   1.544  0.00  0.00    -0.203 NA
ATOM     23  H   UNL     1       3.504   2.696   1.531  0.00  0.00    +0.144 HD
ATOM     24  H   UNL     1       2.968   1.201   2.033  0.00  0.00    +0.144 HD
ENDBRANCH  19  22
ENDBRANCH   8  19
TORSDOF 3
