REMARK  Name = 2153
REMARK  0 active torsions:
REMARK  status: ('A' for Active; 'I' for Inactive)
REMARK                            x       y       z     vdW  Elec       q    Type
REMARK                         _______ _______ _______ _____ _____    ______ ____
ROOT
ATOM      1  O   UNL     1      -0.459   2.718   0.000  0.00  0.00    -0.265 OA
ATOM      2  O   UNL     1      -2.470  -1.525   0.000  0.00  0.00    -0.246 OA
ATOM      3  N   UNL     1      -0.146  -1.409   0.000  0.00  0.00    -0.266 N 
ATOM      4  N   UNL     1      -1.493   0.604   0.000  0.00  0.00    -0.246 N 
ATOM      5  N   UNL     1       2.138   1.247   0.000  0.00  0.00    -0.310 N 
ATOM      6  N   UNL     1       2.277  -0.978   0.000  0.00  0.00    -0.302 N 
ATOM      7  C   UNL     1       0.968  -0.580   0.000  0.00  0.00    +0.132 A 
ATOM      8  C   UNL     1       0.854   0.784  -0.001  0.00  0.00    +0.133 A 
ATOM      9  C   UNL     1      -0.385   1.493  -0.001  0.00  0.00    +0.280 A 
ATOM     10  C   UNL     1      -1.442  -0.837   0.000  0.00  0.00    +0.335 A 
ATOM     11  C   UNL     1       0.027  -2.857   0.000  0.00  0.00    +0.136 C 
ATOM     12  C   UNL     1      -2.829   1.190   0.001  0.00  0.00    +0.138 C 
ATOM     13  C   UNL     1       2.959   0.149   0.001  0.00  0.00    +0.183 C 
ATOM     14  H   UNL     1       2.421   2.190   0.000  0.00  0.00    +0.149 HD
ATOM     15  H   UNL     1       2.630  -1.897   0.001  0.00  0.00    +0.150 HD
ENDROOT
TORSDOF 0
