REMARK  Name = 3105
REMARK  10 active torsions:
REMARK  status: ('A' for Active; 'I' for Inactive)
REMARK    1  A    between atoms: C_1  and  C_21
REMARK    2  A    between atoms: C_2  and  O_7
REMARK    3  A    between atoms: C_3  and  O_14
REMARK    4  A    between atoms: O_7  and  C_9
REMARK    5  A    between atoms: C_9  and  C_10
REMARK    6  A    between atoms: O_14  and  C_16
REMARK    7  A    between atoms: C_16  and  C_17
REMARK    8  A    between atoms: C_21  and  O_22
REMARK    9  A    between atoms: C_21  and  C_24
REMARK   10  A    between atoms: C_24  and  N_25
REMARK                            x       y       z     vdW  Elec       q    Type
REMARK                         _______ _______ _______ _____ _____    ______ ____
ROOT
ATOM      1  C   UNL     1       2.116   1.423   0.058  0.00  0.00    +0.005 C 
ATOM      2  C   UNL     1       0.102   0.089   0.094  0.00  0.00    +0.183 C 
ATOM      3  C   UNL     1      -0.572   1.145  -0.481  0.00  0.00    +0.183 C 
ATOM      4  C   UNL     1       1.462   0.231   0.367  0.00  0.00    +0.039 C 
ATOM      5  C   UNL     1       1.409   2.475  -0.524  0.00  0.00    +0.001 C 
ATOM      6  C   UNL     1       0.048   2.334  -0.797  0.00  0.00    +0.041 C 
ENDROOT
BRANCH   2   7
ATOM      7  O   UNL     1      -0.525  -1.080   0.401  0.00  0.00    -0.421 OA
BRANCH   7   9
ATOM      8  O   UNL     1       0.943  -2.186  -1.034  0.00  0.00    -0.250 OA
ATOM      9  C   UNL     1       0.001  -2.212  -0.251  0.00  0.00    +0.320 C 
BRANCH   9  10
ATOM     10  C   UNL     1      -0.762  -3.481   0.151  0.00  0.00    +0.090 C 
ATOM     11  C   UNL     1      -0.659  -3.678   1.672  0.00  0.00    +0.011 C 
ATOM     12  C   UNL     1      -0.143  -4.696  -0.552  0.00  0.00    +0.011 C 
ATOM     13  C   UNL     1      -2.240  -3.333  -0.234  0.00  0.00    +0.011 C 
ENDBRANCH   9  10
ENDBRANCH   7   9
ENDBRANCH   2   7
BRANCH   3  14
ATOM     14  O   UNL     1      -1.935   1.016  -0.758  0.00  0.00    -0.421 OA
BRANCH  14  16
ATOM     15  O   UNL     1      -2.362   1.854   1.376  0.00  0.00    -0.250 OA
ATOM     16  C   UNL     1      -2.751   1.421   0.297  0.00  0.00    +0.320 C 
BRANCH  16  17
ATOM     17  C   UNL     1      -4.223   1.247  -0.092  0.00  0.00    +0.090 C 
ATOM     18  C   UNL     1      -4.524   2.092  -1.341  0.00  0.00    +0.011 C 
ATOM     19  C   UNL     1      -5.119   1.724   1.059  0.00  0.00    +0.011 C 
ATOM     20  C   UNL     1      -4.498  -0.228  -0.410  0.00  0.00    +0.011 C 
ENDBRANCH  16  17
ENDBRANCH  14  16
ENDBRANCH   3  14
BRANCH   1  21
ATOM     21  C   UNL     1       3.571   1.574   0.349  0.00  0.00    +0.112 C 
BRANCH  21  22
ATOM     22  O   UNL     1       3.774   1.494   1.766  0.00  0.00    -0.382 OA
ATOM     23  H   UNL     1       3.239   2.172   2.209  0.00  0.00    +0.211 HD
ENDBRANCH  21  22
BRANCH  21  24
ATOM     24  C   UNL     1       4.421   0.498  -0.353  0.00  0.00    -0.047 C 
BRANCH  24  25
ATOM     25  N   UNL     1       5.843   0.657  -0.055  0.00  0.00    +0.384 N 
ATOM     26  C   UNL     1       6.626  -0.382  -0.706  0.00  0.00    -0.106 C 
ATOM     27  H   UNL     1       5.981   0.598   0.954  0.00  0.00    -0.085 HD
ATOM     28  H   UNL     1       6.150   1.565  -0.403  0.00  0.00    -0.085 HD
ENDBRANCH  24  25
ENDBRANCH  21  24
ENDBRANCH   1  21
TORSDOF 10
