REMARK  Name = 71158
REMARK  4 active torsions:
REMARK  status: ('A' for Active; 'I' for Inactive)
REMARK    1  A    between atoms: C_1  and  C_2
REMARK    2  A    between atoms: C_1  and  C_7
REMARK    3  A    between atoms: C_2  and  S_3
REMARK    4  A    between atoms: C_7  and  N_9
REMARK                            x       y       z     vdW  Elec       q    Type
REMARK                         _______ _______ _______ _____ _____    ______ ____
ROOT
ATOM      1  C   UNL     1       0.180  -1.065   0.176  0.00  0.00    +0.047 C 
ENDROOT
BRANCH   1   2
ATOM      2  C   UNL     1       1.053  -0.126  -0.646  0.00  0.00    +0.160 C 
BRANCH   2   3
ATOM      3  S   UNL     1       2.570   0.229   0.184  0.00  0.00    +0.023 S 
ATOM      4  O   UNL     1       3.289   1.048  -1.029  0.00  0.00    -0.069 OA
ATOM      5  O   UNL     1       3.290  -1.013   0.400  0.00  0.00    -0.069 OA
ATOM      6  O   UNL     1       2.302   1.149   1.274  0.00  0.00    -0.069 OA
ENDBRANCH   2   3
ENDBRANCH   1   2
BRANCH   1   7
ATOM      7  C   UNL     1      -1.128  -1.409  -0.527  0.00  0.00    +0.091 C 
BRANCH   7   9
ATOM      8  O   UNL     1      -3.151  -0.262   1.212  0.00  0.00    -0.275 OA
ATOM      9  N   UNL     1      -1.940  -0.249  -0.778  0.00  0.00    -0.304 N 
ATOM     10  C   UNL     1      -2.888   0.229   0.117  0.00  0.00    +0.223 C 
ATOM     11  C   UNL     1      -3.578   1.470  -0.382  0.00  0.00    +0.095 C 
ATOM     12  H   UNL     1      -1.817   0.231  -1.628  0.00  0.00    +0.149 HD
ENDBRANCH   7   9
ENDBRANCH   1   7
TORSDOF 4
