REMARK  Name = 3675
REMARK  4 active torsions:
REMARK  status: ('A' for Active; 'I' for Inactive)
REMARK    1  A    between atoms: C_1  and  C_2
REMARK    2  A    between atoms: C_1  and  C_8
REMARK    3  A    between atoms: C_8  and  N_9
REMARK    4  A    between atoms: N_9  and  N_11
REMARK                            x       y       z     vdW  Elec       q    Type
REMARK                         _______ _______ _______ _____ _____    ______ ____
ROOT
ATOM      1  C   UNL     1       0.964   0.002   0.937  0.00  0.00    +0.045 C 
ENDROOT
BRANCH   1   2
ATOM      2  C   UNL     1      -0.441   0.001   0.439  0.00  0.00    -0.021 C 
ATOM      3  C   UNL     1      -1.101   1.208   0.208  0.00  0.00    -0.004 C 
ATOM      4  C   UNL     1      -1.097  -1.208   0.203  0.00  0.00    -0.004 C 
ATOM      5  C   UNL     1      -2.415   1.207  -0.258  0.00  0.00    -0.000 C 
ATOM      6  C   UNL     1      -2.411  -1.209  -0.264  0.00  0.00    -0.000 C 
ATOM      7  C   UNL     1      -3.071  -0.001  -0.494  0.00  0.00    -0.000 C 
ENDBRANCH   1   2
BRANCH   1   8
ATOM      8  C   UNL     1       1.982   0.007  -0.213  0.00  0.00    +0.089 C 
BRANCH   8   9
ATOM      9  N   UNL     1       3.354  -0.019   0.282  0.00  0.00    -0.248 NA
ATOM     10  H   UNL     1       3.523   0.794   0.875  0.00  0.00    +0.141 HD
BRANCH   9  11
ATOM     11  N   UNL     1       4.235   0.012  -0.841  0.00  0.00    -0.270 NA
ATOM     12  H   UNL     1       4.062  -0.803  -1.430  0.00  0.00    +0.137 HD
ATOM     13  H   UNL     1       5.201  -0.002  -0.515  0.00  0.00    +0.137 HD
ENDBRANCH   9  11
ENDBRANCH   8   9
ENDBRANCH   1   8
TORSDOF 4
