REMARK  Name = 7048523
REMARK  5 active torsions:
REMARK  status: ('A' for Active; 'I' for Inactive)
REMARK    1  A    between atoms: C_2  and  C_3
REMARK    2  A    between atoms: C_2  and  C_8
REMARK    3  A    between atoms: C_3  and  C_4
REMARK    4  A    between atoms: C_4  and  C_7
REMARK    5  A    between atoms: C_8  and  N_9
REMARK                            x       y       z     vdW  Elec       q    Type
REMARK                         _______ _______ _______ _____ _____    ______ ____
ROOT
ATOM      1  O   UNL     1       1.598  -1.356  -0.002  0.00  0.00    -0.298 OA
ATOM      2  C   UNL     1       1.439  -0.136  -0.003  0.00  0.00    +0.129 C 
ENDROOT
BRANCH   2   3
ATOM      3  C   UNL     1       0.059   0.506  -0.023  0.00  0.00    +0.074 C 
BRANCH   3   4
ATOM      4  C   UNL     1      -1.079  -0.505  -0.062  0.00  0.00    +0.122 C 
BRANCH   4   7
ATOM      5  O   UNL     1      -3.407  -0.823   0.053  0.00  0.00    -0.246 OA
ATOM      6  O   UNL     1      -2.613   1.317  -0.003  0.00  0.00    -0.246 OA
ATOM      7  C   UNL     1      -2.503   0.061   0.000  0.00  0.00    +0.365 C 
ENDBRANCH   4   7
ENDBRANCH   3   4
ENDBRANCH   2   3
BRANCH   2   8
ATOM      8  C   UNL     1       2.603   0.826   0.028  0.00  0.00    -0.020 C 
BRANCH   8   9
ATOM      9  N   UNL     1       3.902   0.110   0.011  0.00  0.00    +0.385 N 
ATOM     10  H   UNL     1       4.664   0.787   0.033  0.00  0.00    -0.089 HD
ATOM     11  H   UNL     1       3.969  -0.451  -0.838  0.00  0.00    -0.089 HD
ATOM     12  H   UNL     1       3.964  -0.500   0.827  0.00  0.00    -0.089 HD
ENDBRANCH   8   9
ENDBRANCH   2   8
TORSDOF 5
