REMARK  Name = 3372
REMARK  8 active torsions:
REMARK  status: ('A' for Active; 'I' for Inactive)
REMARK    1  A    between atoms: N_2  and  C_19
REMARK    2  A    between atoms: C_9  and  C_18
REMARK    3  A    between atoms: C_19  and  C_20
REMARK    4  A    between atoms: C_20  and  C_21
REMARK    5  A    between atoms: C_21  and  N_22
REMARK    6  A    between atoms: N_23  and  C_30
REMARK    7  A    between atoms: C_30  and  C_31
REMARK    8  A    between atoms: C_31  and  O_32
REMARK                            x       y       z     vdW  Elec       q    Type
REMARK                         _______ _______ _______ _____ _____    ______ ____
ROOT
ATOM      1  S   UNL     1       4.726  -1.716   0.391  0.00  0.00    -0.084 S 
ATOM      2  N   UNL     1       1.905  -0.937  -0.657  0.00  0.00    -0.286 N 
ATOM      3  C   UNL     1       2.716   0.139  -0.214  0.00  0.00    +0.058 C 
ATOM      4  C   UNL     1       2.064  -2.291  -0.269  0.00  0.00    +0.058 C 
ATOM      5  C   UNL     1       4.005  -0.089   0.304  0.00  0.00    +0.043 C 
ATOM      6  C   UNL     1       3.290  -2.760   0.244  0.00  0.00    +0.043 C 
ATOM      7  C   UNL     1       2.261   1.476  -0.237  0.00  0.00    +0.019 C 
ATOM      8  C   UNL     1       1.003  -3.220  -0.343  0.00  0.00    +0.015 C 
ATOM      9  C   UNL     1       3.055   2.535   0.211  0.00  0.00    +0.073 C 
ATOM     10  C   UNL     1       4.802   0.981   0.749  0.00  0.00    +0.008 C 
ATOM     11  C   UNL     1       3.440  -4.103   0.634  0.00  0.00    +0.008 C 
ATOM     12  C   UNL     1       4.328   2.288   0.701  0.00  0.00    +0.004 C 
ATOM     13  C   UNL     1       1.157  -4.552   0.051  0.00  0.00    +0.001 C 
ATOM     14  C   UNL     1       2.377  -4.994   0.537  0.00  0.00    +0.001 C 
ENDROOT
BRANCH   9  18
ATOM     15  F   UNL     1       3.420   4.864   0.620  0.00  0.00    -0.166 F 
ATOM     16  F   UNL     1       2.212   4.345  -1.105  0.00  0.00    -0.166 F 
ATOM     17  F   UNL     1       1.403   4.101   0.898  0.00  0.00    -0.166 F 
ATOM     18  C   UNL     1       2.535   3.933   0.156  0.00  0.00    +0.419 C 
ENDBRANCH   9  18
BRANCH   2  19
ATOM     19  C   UNL     1       0.771  -0.613  -1.533  0.00  0.00    +0.093 C 
BRANCH  19  20
ATOM     20  C   UNL     1      -0.487  -0.340  -0.710  0.00  0.00    -0.001 C 
BRANCH  20  21
ATOM     21  C   UNL     1      -1.741  -0.047  -1.539  0.00  0.00    -0.076 C 
BRANCH  21  22
ATOM     22  N   UNL     1      -2.897   0.251  -0.696  0.00  0.00    +0.384 N 
ATOM     23  N   UNL     1      -5.585  -0.231   0.252  0.00  0.00    +0.386 N 
ATOM     24  C   UNL     1      -3.201  -0.879   0.190  0.00  0.00    -0.101 C 
ATOM     25  C   UNL     1      -4.066   0.590  -1.516  0.00  0.00    -0.101 C 
ATOM     26  C   UNL     1      -4.415  -0.568   1.073  0.00  0.00    -0.101 C 
ATOM     27  C   UNL     1      -5.280   0.900  -0.633  0.00  0.00    -0.101 C 
ATOM     28  H   UNL     1      -2.664   1.059  -0.118  0.00  0.00    -0.080 HD
ATOM     29  H   UNL     1      -5.815  -1.039  -0.326  0.00  0.00    -0.080 HD
BRANCH  23  30
ATOM     30  C   UNL     1      -6.742   0.066   1.095  0.00  0.00    -0.045 C 
BRANCH  30  31
ATOM     31  C   UNL     1      -7.979   0.301   0.244  0.00  0.00    +0.115 C 
BRANCH  31  32
ATOM     32  O   UNL     1      -9.080   0.569   1.102  0.00  0.00    -0.384 OA
ATOM     33  H   UNL     1      -9.876   0.721   0.569  0.00  0.00    +0.210 HD
ENDBRANCH  31  32
ENDBRANCH  30  31
ENDBRANCH  23  30
ENDBRANCH  21  22
ENDBRANCH  20  21
ENDBRANCH  19  20
ENDBRANCH   2  19
TORSDOF 8
