REMARK  Name = 2905
REMARK  8 active torsions:
REMARK  status: ('A' for Active; 'I' for Inactive)
REMARK    1  A    between atoms: C_1  and  C_2
REMARK    2  A    between atoms: C_1  and  C_8
REMARK    3  A    between atoms: C_1  and  C_16
REMARK    4  A    between atoms: C_8  and  O_13
REMARK    5  A    between atoms: C_16  and  O_17
REMARK    6  A    between atoms: O_17  and  C_18
REMARK    7  A    between atoms: C_18  and  C_19
REMARK    8  A    between atoms: C_19  and  N_20
REMARK                            x       y       z     vdW  Elec       q    Type
REMARK                         _______ _______ _______ _____ _____    ______ ____
ROOT
ATOM      1  C   UNL     1       0.801  -0.244  -0.321  0.00  0.00    +0.146 C 
ENDROOT
BRANCH   1   2
ATOM      2  C   UNL     1       1.297   1.188  -0.161  0.00  0.00    -0.010 C 
ATOM      3  C   UNL     1       1.998   1.769  -1.197  0.00  0.00    -0.004 C 
ATOM      4  C   UNL     1       1.030   1.857   1.015  0.00  0.00    -0.004 C 
ATOM      5  C   UNL     1       2.453   3.079  -1.050  0.00  0.00    -0.000 C 
ATOM      6  C   UNL     1       1.484   3.167   1.161  0.00  0.00    -0.000 C 
ATOM      7  C   UNL     1       2.196   3.779   0.129  0.00  0.00    -0.000 C 
ENDBRANCH   1   2
BRANCH   1   8
ATOM      8  C   UNL     1       1.861  -1.274   0.035  0.00  0.00    +0.102 C 
ATOM      9  C   UNL     1       3.078  -1.226  -0.886  0.00  0.00    +0.028 C 
ATOM     10  C   UNL     1       1.384  -2.716  -0.119  0.00  0.00    +0.028 C 
ATOM     11  C   UNL     1       3.758  -2.580  -0.683  0.00  0.00    +0.003 C 
ATOM     12  C   UNL     1       2.675  -3.532  -0.175  0.00  0.00    +0.003 C 
BRANCH   8  13
ATOM     13  O   UNL     1       2.292  -1.049   1.377  0.00  0.00    -0.386 OA
ATOM     14  H   UNL     1       2.969  -1.702   1.613  0.00  0.00    +0.210 HD
ENDBRANCH   8  13
ENDBRANCH   1   8
BRANCH   1  16
ATOM     15  O   UNL     1      -0.539  -0.925   1.611  0.00  0.00    -0.250 OA
ATOM     16  C   UNL     1      -0.482  -0.479   0.472  0.00  0.00    +0.323 C 
BRANCH  16  17
ATOM     17  O   UNL     1      -1.557  -0.096  -0.281  0.00  0.00    -0.451 OA
BRANCH  17  18
ATOM     18  C   UNL     1      -2.836  -0.243   0.345  0.00  0.00    +0.186 C 
BRANCH  18  19
ATOM     19  C   UNL     1      -3.911   0.225  -0.622  0.00  0.00    -0.029 C 
BRANCH  19  20
ATOM     20  N   UNL     1      -5.233   0.077  -0.032  0.00  0.00    +0.387 N 
ATOM     21  C   UNL     1      -6.269   0.543  -0.957  0.00  0.00    -0.101 C 
ATOM     22  C   UNL     1      -5.480  -1.318   0.342  0.00  0.00    -0.101 C 
ATOM     23  H   UNL     1      -5.268   0.650   0.811  0.00  0.00    -0.080 HD
ENDBRANCH  19  20
ENDBRANCH  18  19
ENDBRANCH  17  18
ENDBRANCH  16  17
ENDBRANCH   1  16
TORSDOF 8
