REMARK  Name = 40466974
REMARK  6 active torsions:
REMARK  status: ('A' for Active; 'I' for Inactive)
REMARK    1  A    between atoms: C_4  and  C_13
REMARK    2  A    between atoms: C_7  and  S_17
REMARK    3  A    between atoms: C_8  and  C_12
REMARK    4  A    between atoms: C_13  and  O_15
REMARK    5  A    between atoms: S_17  and  C_19
REMARK    6  A    between atoms: C_21  and  C_27
REMARK                            x       y       z     vdW  Elec       q    Type
REMARK                         _______ _______ _______ _____ _____    ______ ____
ROOT
ATOM      1  O   UNL     1       4.012   2.109   0.487  0.00  0.00    -0.274 OA
ATOM      2  N   UNL     1       2.489   0.576  -0.456  0.00  0.00    -0.254 N 
ATOM      3  C   UNL     1       2.769  -0.868  -0.339  0.00  0.00    +0.095 C 
ATOM      4  C   UNL     1       4.123  -0.440   0.312  0.00  0.00    +0.123 C 
ATOM      5  C   UNL     1       1.507  -1.431   0.345  0.00  0.00    +0.049 C 
ATOM      6  C   UNL     1       3.630   1.014   0.141  0.00  0.00    +0.233 C 
ATOM      7  C   UNL     1       0.578  -0.231   0.359  0.00  0.00    +0.024 C 
ATOM      8  C   UNL     1       1.210   0.868  -0.076  0.00  0.00    +0.136 C 
ATOM      9  C   UNL     1       1.760  -2.044   1.713  0.00  0.00    +0.007 C 
ENDROOT
BRANCH   8  12
ATOM     10  O   UNL     1       0.318   2.752   1.003  0.00  0.00    -0.239 OA
ATOM     11  O   UNL     1       0.613   2.801  -1.265  0.00  0.00    -0.239 OA
ATOM     12  C   UNL     1       0.659   2.280  -0.117  0.00  0.00    +0.401 C 
ENDBRANCH   8  12
BRANCH   4  13
ATOM     13  C   UNL     1       5.457  -0.726  -0.329  0.00  0.00    +0.121 C 
ATOM     14  C   UNL     1       6.627  -0.281   0.544  0.00  0.00    +0.032 C 
BRANCH  13  15
ATOM     15  O   UNL     1       5.580  -2.127  -0.582  0.00  0.00    -0.384 OA
ATOM     16  H   UNL     1       4.841  -2.421  -1.137  0.00  0.00    +0.210 HD
ENDBRANCH  13  15
ENDBRANCH   4  13
BRANCH   7  17
ATOM     17  S   UNL     1      -1.053  -0.324   0.891  0.00  0.00    -0.120 S 
BRANCH  17  19
ATOM     18  N   UNL     1      -2.845  -0.132  -1.842  0.00  0.00    +0.391 N 
ATOM     19  C   UNL     1      -1.713  -1.534  -0.308  0.00  0.00    +0.029 C 
ATOM     20  C   UNL     1      -3.210  -1.767  -0.112  0.00  0.00    -0.003 C 
ATOM     21  C   UNL     1      -3.921  -0.726  -0.975  0.00  0.00    +0.018 C 
ATOM     22  C   UNL     1      -1.631  -1.001  -1.726  0.00  0.00    -0.070 C 
ATOM     23  H   UNL     1      -2.626   0.813  -1.525  0.00  0.00    -0.084 HD
ATOM     24  H   UNL     1      -3.156  -0.082  -2.812  0.00  0.00    -0.084 HD
BRANCH  21  27
ATOM     25  O   UNL     1      -4.195   1.506  -0.276  0.00  0.00    -0.277 OA
ATOM     26  N   UNL     1      -5.660  -0.056   0.628  0.00  0.00    -0.278 N 
ATOM     27  C   UNL     1      -4.596   0.343  -0.183  0.00  0.00    +0.206 C 
ATOM     28  C   UNL     1      -6.406   0.884   1.454  0.00  0.00    +0.115 C 
ATOM     29  C   UNL     1      -6.103  -1.446   0.708  0.00  0.00    +0.115 C 
ENDBRANCH  21  27
ENDBRANCH  17  19
ENDBRANCH   7  17
TORSDOF 6
