REMARK  Name = 4940
REMARK  5 active torsions:
REMARK  status: ('A' for Active; 'I' for Inactive)
REMARK    1  A    between atoms: N_2  and  C_19
REMARK    2  A    between atoms: C_9  and  C_16
REMARK    3  A    between atoms: C_16  and  C_17
REMARK    4  A    between atoms: C_19  and  C_20
REMARK    5  A    between atoms: C_20  and  N_22
REMARK                            x       y       z     vdW  Elec       q    Type
REMARK                         _______ _______ _______ _____ _____    ______ ____
ROOT
ATOM      1  S   UNL     1      -1.702   2.608   1.016  0.00  0.00    -0.084 S 
ATOM      2  N   UNL     1      -0.934  -0.140  -0.217  0.00  0.00    -0.288 N 
ATOM      3  C   UNL     1       0.147   0.737   0.051  0.00  0.00    +0.058 C 
ATOM      4  C   UNL     1      -2.282   0.260  -0.398  0.00  0.00    +0.058 C 
ATOM      5  C   UNL     1      -0.075   2.021   0.588  0.00  0.00    +0.043 C 
ATOM      6  C   UNL     1      -2.745   1.496   0.096  0.00  0.00    +0.043 C 
ATOM      7  C   UNL     1       1.484   0.386  -0.237  0.00  0.00    +0.018 C 
ATOM      8  C   UNL     1      -3.210  -0.536  -1.105  0.00  0.00    +0.015 C 
ATOM      9  C   UNL     1       2.549   1.256   0.014  0.00  0.00    +0.036 C 
ATOM     10  C   UNL     1       1.000   2.890   0.845  0.00  0.00    +0.008 C 
ATOM     11  C   UNL     1      -4.082   1.891  -0.093  0.00  0.00    +0.008 C 
ATOM     12  C   UNL     1       2.307   2.508   0.559  0.00  0.00    +0.003 C 
ATOM     13  C   UNL     1      -4.535  -0.136  -1.294  0.00  0.00    +0.001 C 
ATOM     14  C   UNL     1      -4.973   1.077  -0.785  0.00  0.00    +0.001 C 
ENDROOT
BRANCH   9  16
ATOM     15  O   UNL     1       4.873   1.609  -0.061  0.00  0.00    -0.291 OA
ATOM     16  C   UNL     1       3.912   0.846  -0.287  0.00  0.00    +0.173 C 
BRANCH  16  17
ATOM     17  C   UNL     1       4.180  -0.544  -0.891  0.00  0.00    +0.069 C 
ATOM     18  C   UNL     1       5.651  -0.814  -1.164  0.00  0.00    +0.009 C 
ENDBRANCH  16  17
ENDBRANCH   9  16
BRANCH   2  19
ATOM     19  C   UNL     1      -0.622  -1.565  -0.390  0.00  0.00    +0.075 C 
BRANCH  19  20
ATOM     20  C   UNL     1      -0.098  -2.164   0.918  0.00  0.00    -0.038 C 
ATOM     21  C   UNL     1      -1.101  -2.019   2.063  0.00  0.00    -0.021 C 
BRANCH  20  22
ATOM     22  N   UNL     1       0.179  -3.587   0.714  0.00  0.00    +0.387 N 
ATOM     23  C   UNL     1       1.136  -3.768  -0.376  0.00  0.00    -0.101 C 
ATOM     24  C   UNL     1      -1.060  -4.312   0.433  0.00  0.00    -0.101 C 
ATOM     25  H   UNL     1       0.587  -3.965   1.568  0.00  0.00    -0.080 HD
ENDBRANCH  20  22
ENDBRANCH  19  20
ENDBRANCH   2  19
TORSDOF 5
