REMARK  Name = 338
REMARK  3 active torsions:
REMARK  status: ('A' for Active; 'I' for Inactive)
REMARK    1  A    between atoms: C_1  and  C_10
REMARK    2  A    between atoms: C_2  and  O_7
REMARK    3  A    between atoms: C_10  and  O_11
REMARK                            x       y       z     vdW  Elec       q    Type
REMARK                         _______ _______ _______ _____ _____    ______ ____
ROOT
ATOM      1  C   UNL     1       0.279   0.209   0.034  0.00  0.00    +0.109 C 
ATOM      2  C   UNL     1      -0.409  -0.998  -0.081  0.00  0.00    +0.140 C 
ATOM      3  C   UNL     1      -0.427   1.407   0.140  0.00  0.00    +0.009 C 
ATOM      4  C   UNL     1      -1.804  -1.008  -0.091  0.00  0.00    +0.037 C 
ATOM      5  C   UNL     1      -1.822   1.398   0.130  0.00  0.00    +0.000 C 
ATOM      6  C   UNL     1      -2.511   0.190   0.015  0.00  0.00    +0.003 C 
ENDROOT
BRANCH   2   7
ATOM      7  O   UNL     1       0.263  -2.179  -0.187  0.00  0.00    -0.505 OA
ATOM      8  H   UNL     1       1.200  -2.187  -0.181  0.00  0.00    +0.292 HD
ENDBRANCH   2   7
BRANCH   1  10
ATOM      9  O   UNL     1       2.466  -0.656   0.473  0.00  0.00    -0.245 OA
ATOM     10  C   UNL     1       1.735   0.242   0.045  0.00  0.00    +0.341 C 
BRANCH  10  11
ATOM     11  O   UNL     1       2.232   1.395  -0.479  0.00  0.00    -0.477 OA
ATOM     12  H   UNL     1       1.648   2.056  -0.795  0.00  0.00    +0.295 HD
ENDBRANCH  10  11
ENDBRANCH   1  10
TORSDOF 3
