REMARK  Name = 158781
REMARK  10 active torsions:
REMARK  status: ('A' for Active; 'I' for Inactive)
REMARK    1  A    between atoms: C_1  and  C_2
REMARK    2  A    between atoms: C_1  and  N_20
REMARK    3  A    between atoms: C_5  and  C_8
REMARK    4  A    between atoms: C_9  and  C_18
REMARK    5  A    between atoms: C_22  and  C_25
REMARK    6  A    between atoms: C_23  and  C_34
REMARK    7  A    between atoms: C_24  and  C_31
REMARK    8  A    between atoms: C_25  and  O_28
REMARK    9  A    between atoms: C_31  and  O_32
REMARK   10  A    between atoms: C_34  and  C_35
REMARK                            x       y       z     vdW  Elec       q    Type
REMARK                         _______ _______ _______ _____ _____    ______ ____
ROOT
ATOM      1  C   UNL     1       1.473  -1.980  -1.053  0.00  0.00    +0.120 C 
ENDROOT
BRANCH   1   2
ATOM      2  C   UNL     1       0.036  -1.616  -0.886  0.00  0.00    -0.002 C 
ATOM      3  C   UNL     1      -0.580  -0.768  -1.806  0.00  0.00    -0.003 C 
ATOM      4  C   UNL     1      -0.691  -2.123   0.190  0.00  0.00    -0.003 C 
ATOM      5  C   UNL     1      -2.651  -0.934  -0.573  0.00  0.00    +0.001 C 
ATOM      6  C   UNL     1      -1.923  -0.427  -1.650  0.00  0.00    -0.000 C 
ATOM      7  C   UNL     1      -2.035  -1.782   0.347  0.00  0.00    -0.000 C 
BRANCH   5   8
ATOM      8  C   UNL     1      -4.044  -0.581  -0.411  0.00  0.00    +0.009 C 
ATOM      9  C   UNL     1      -4.440   0.538   0.326  0.00  0.00    +0.065 C 
ATOM     10  C   UNL     1      -5.011  -1.390  -1.014  0.00  0.00    +0.001 C 
ATOM     11  C   UNL     1      -5.794   0.846   0.460  0.00  0.00    +0.010 C 
ATOM     12  C   UNL     1      -6.365  -1.082  -0.880  0.00  0.00    +0.000 C 
ATOM     13  C   UNL     1      -6.757   0.036  -0.143  0.00  0.00    +0.001 C 
BRANCH   9  18
ATOM     14  N   UNL     1      -2.937   2.459   0.367  0.00  0.00    -0.110 NA
ATOM     15  N   UNL     1      -3.048   1.185   2.236  0.00  0.00    -0.087 NA
ATOM     16  N   UNL     1      -2.144   2.880   1.363  0.00  0.00    -0.140 N 
ATOM     17  N   UNL     1      -2.178   2.155   2.490  0.00  0.00    -0.022 NA
ATOM     18  C   UNL     1      -3.478   1.399   0.964  0.00  0.00    +0.073 C 
ATOM     19  H   UNL     1      -1.571   3.675   1.272  0.00  0.00    +0.197 HD
ENDBRANCH   9  18
ENDBRANCH   5   8
ENDBRANCH   1   2
BRANCH   1  20
ATOM     20  N   UNL     1       2.360  -1.038  -0.363  0.00  0.00    -0.270 N 
ATOM     21  N   UNL     1       3.571  -0.146   1.243  0.00  0.00    -0.396 NA
ATOM     22  C   UNL     1       3.638   0.628   0.111  0.00  0.00    +0.141 C 
ATOM     23  C   UNL     1       2.786  -1.149   0.918  0.00  0.00    +0.160 C 
ATOM     24  C   UNL     1       2.886   0.086  -0.905  0.00  0.00    +0.225 C 
BRANCH  22  25
ATOM     25  C   UNL     1       4.442   1.860   0.102  0.00  0.00    +0.133 C 
ATOM     26  C   UNL     1       3.636   3.143   0.462  0.00  0.00    +0.036 C 
ATOM     27  C   UNL     1       5.667   1.785   1.057  0.00  0.00    +0.036 C 
BRANCH  25  28
ATOM     28  O   UNL     1       5.042   2.170  -1.192  0.00  0.00    -0.380 OA
ATOM     29  H   UNL     1       4.346   2.238  -1.863  0.00  0.00    +0.211 HD
ENDBRANCH  25  28
ENDBRANCH  22  25
BRANCH  24  31
ATOM     30  O   UNL     1       2.461  -0.118  -3.255  0.00  0.00    -0.248 OA
ATOM     31  C   UNL     1       2.681   0.562  -2.236  0.00  0.00    +0.339 C 
BRANCH  31  32
ATOM     32  O   UNL     1       2.746   1.929  -2.332  0.00  0.00    -0.479 OA
ATOM     33  H   UNL     1       2.912   2.445  -1.567  0.00  0.00    +0.295 HD
ENDBRANCH  31  32
ENDBRANCH  24  31
BRANCH  23  34
ATOM     34  C   UNL     1       2.396  -2.267   1.801  0.00  0.00    +0.075 C 
BRANCH  34  35
ATOM     35  C   UNL     1       3.589  -2.844   2.588  0.00  0.00    +0.009 C 
ATOM     36  C   UNL     1       4.664  -3.417   1.678  0.00  0.00    +0.000 C 
ENDBRANCH  34  35
ENDBRANCH  23  34
ENDBRANCH   1  20
TORSDOF 10
