REMARK  Name = 6253
REMARK  5 active torsions:
REMARK  status: ('A' for Active; 'I' for Inactive)
REMARK    1  A    between atoms: C2*_2  and  O2*_16
REMARK    2  A    between atoms: C3*_3  and  O3*_18
REMARK    3  A    between atoms: C1*_4  and  N1_7
REMARK    4  A    between atoms: C4*_5  and  C5*_20
REMARK    5  A    between atoms: C5*_20  and  O5*_21
REMARK                            x       y       z     vdW  Elec       q    Type
REMARK                         _______ _______ _______ _____ _____    ______ ____
ROOT
ATOM      1  O4* C   A   1      -1.362  -0.395   0.965  0.00  0.00    -0.332 OA
ATOM      2  C2* C   A   1      -1.276   1.099  -0.867  0.00  0.00    +0.188 C 
ATOM      3  C3* C   A   1      -2.733   0.893  -0.509  0.00  0.00    +0.171 C 
ATOM      4  C1* C   A   1      -0.583   0.678   0.420  0.00  0.00    +0.236 C 
ATOM      5  C4* C   A   1      -2.702  -0.307   0.438  0.00  0.00    +0.175 C 
ENDROOT
BRANCH   4   7
ATOM      6  O2  C   A   1       1.691   2.320   0.692  0.00  0.00    -0.193 OA
ATOM      7  N1  C   A   1       0.773   0.250   0.244  0.00  0.00    -0.178 N 
ATOM      8  N3  C   A   1       3.156   0.654   0.214  0.00  0.00    -0.306 NA
ATOM      9  N4  C   A   1       4.652  -1.057  -0.278  0.00  0.00    -0.332 N 
ATOM     10  C6  C   A   1       1.020  -1.075  -0.089  0.00  0.00    +0.083 C 
ATOM     11  C2  C   A   1       1.872   1.137   0.399  0.00  0.00    +0.276 C 
ATOM     12  C5  C   A   1       2.247  -1.558  -0.271  0.00  0.00    +0.065 C 
ATOM     13  C4  C   A   1       3.368  -0.597  -0.099  0.00  0.00    +0.193 C 
ATOM     14  H41 C   A   1       5.414  -0.443  -0.170  0.00  0.00    +0.145 HD
ATOM     15  H42 C   A   1       4.809  -2.000  -0.514  0.00  0.00    +0.145 HD
ENDBRANCH   4   7
BRANCH   2  16
ATOM     16  O2* C   A   1      -0.946   0.226  -1.941  0.00  0.00    -0.378 OA
ATOM     17  H2* C   A   1      -1.401   0.518  -2.746  0.00  0.00    +0.211 HD
ENDBRANCH   2  16
BRANCH   3  18
ATOM     18  O3* C   A   1      -3.203   2.027   0.217  0.00  0.00    -0.379 OA
ATOM     19  H3* C   A   1      -3.229   2.799  -0.369  0.00  0.00    +0.211 HD
ENDBRANCH   3  18
BRANCH   5  20
ATOM     20  C5* C   A   1      -3.020  -1.628  -0.249  0.00  0.00    +0.169 C 
BRANCH  20  21
ATOM     21  O5* C   A   1      -2.953  -2.668   0.712  0.00  0.00    -0.379 OA
ATOM     22  H5* C   A   1      -3.154  -3.515   0.286  0.00  0.00    +0.211 HD
ENDBRANCH  20  21
ENDBRANCH   5  20
TORSDOF 5
