REMARK  Name = 59098743
REMARK  2 active torsions:
REMARK  status: ('A' for Active; 'I' for Inactive)
REMARK    1  A    between atoms: N_1  and  C_10
REMARK    2  A    between atoms: C_10  and  C_13
REMARK                            x       y       z     vdW  Elec       q    Type
REMARK                         _______ _______ _______ _____ _____    ______ ____
ROOT
ATOM      1  N   UNL     1      -0.510  -0.511  -0.315  0.00  0.00    -0.280 N 
ATOM      2  N   UNL     1      -1.261   1.744  -0.027  0.00  0.00    -0.283 NA
ATOM      3  C   UNL     1      -1.439   0.461   0.041  0.00  0.00    +0.156 C 
ATOM      4  C   UNL     1      -0.830  -1.930  -0.193  0.00  0.00    +0.114 C 
ATOM      5  H   UNL     1      -0.406   2.106  -0.353  0.00  0.00    +0.188 HD
ENDROOT
BRANCH   1   6
ATOM      6  C   UNL     1       0.733  -0.191  -1.009  0.00  0.00    +0.208 C 
BRANCH   6   9
ATOM      7  O   UNL     1       1.988  -0.889   0.856  0.00  0.00    -0.244 OA
ATOM      8  O   UNL     1       2.292   1.226   0.040  0.00  0.00    -0.244 OA
ATOM      9  C   UNL     1       1.769   0.076   0.070  0.00  0.00    +0.385 C 
ENDBRANCH   6   9
ENDBRANCH   1   6
TORSDOF 2
REMARK  Name = 59098743
REMARK  2 active torsions:
REMARK  status: ('A' for Active; 'I' for Inactive)
REMARK    1  A    between atoms: N_1  and  C_10
REMARK    2  A    between atoms: C_10  and  C_13
REMARK                            x       y       z     vdW  Elec       q    Type
REMARK                         _______ _______ _______ _____ _____    ______ ____
ROOT
ATOM      1  N   UNL     1      -2.743   0.014   0.537  0.00  0.00    -0.163 NA
ATOM      2  H   UNL     1      -2.938  -0.948   0.612  0.00  0.00    +0.163 HD
ENDROOT
TORSDOF 0
REMARK  Name = 59098743
REMARK  2 active torsions:
REMARK  status: ('A' for Active; 'I' for Inactive)
REMARK    1  A    between atoms: N_1  and  C_10
REMARK    2  A    between atoms: C_10  and  C_13
REMARK                            x       y       z     vdW  Elec       q    Type
REMARK                         _______ _______ _______ _____ _____    ______ ____
ROOT
ATOM      1  H   UNL     1      -3.424   0.676   0.797  0.00  0.00    +0.000 HD
ENDROOT
TORSDOF 0
REMARK  Name = 59098743
REMARK  2 active torsions:
REMARK  status: ('A' for Active; 'I' for Inactive)
REMARK    1  A    between atoms: N_1  and  C_10
REMARK    2  A    between atoms: C_10  and  C_13
REMARK                            x       y       z     vdW  Elec       q    Type
REMARK                         _______ _______ _______ _____ _____    ______ ____
ROOT
ATOM      1  H   UNL     1      -2.594  -0.726   1.169  0.00  0.00    +0.000 HD
ENDROOT
TORSDOF 0
