REMARK  Name = 1986
REMARK  2 active torsions:
REMARK  status: ('A' for Active; 'I' for Inactive)
REMARK    1  A    between atoms: C_6  and  S_11
REMARK    2  A    between atoms: S_11  and  N_14
REMARK                            x       y       z     vdW  Elec       q    Type
REMARK                         _______ _______ _______ _____ _____    ______ ____
ROOT
ATOM      1  S   UNL     1      -0.300   1.256  -0.055  0.00  0.00    -0.011 S 
ATOM      2  O   UNL     1       3.628  -1.208   0.048  0.00  0.00    -0.275 OA
ATOM      3  N   UNL     1       2.273   0.712  -0.003  0.00  0.00    -0.263 N 
ATOM      4  N   UNL     1      -0.691  -1.276  -0.023  0.00  0.00    -0.119 NA
ATOM      5  N   UNL     1       0.683  -1.109  -0.002  0.00  0.00    -0.124 NA
ATOM      6  C   UNL     1      -1.322  -0.122  -0.052  0.00  0.00    +0.256 A 
ATOM      7  C   UNL     1       1.044   0.173  -0.015  0.00  0.00    +0.189 A 
ATOM      8  C   UNL     1       3.529   0.011   0.028  0.00  0.00    +0.228 C 
ATOM      9  C   UNL     1       4.711   0.934   0.030  0.00  0.00    +0.095 C 
ATOM     10  H   UNL     1       2.320   1.695  -0.017  0.00  0.00    +0.157 HD
ENDROOT
BRANCH   6  11
ATOM     11  S   UNL     1      -3.041   0.110  -0.085  0.00  0.00    +0.081 S 
ATOM     12  O   UNL     1      -3.280   1.411  -0.714  0.00  0.00    -0.151 OA
ATOM     13  O   UNL     1      -3.598  -1.102  -0.688  0.00  0.00    -0.151 OA
BRANCH  11  14
ATOM     14  N   UNL     1      -3.636   0.211   1.531  0.00  0.00    -0.202 NA
ATOM     15  H   UNL     1      -4.646   0.348   1.514  0.00  0.00    +0.144 HD
ATOM     16  H   UNL     1      -3.195   0.999   2.007  0.00  0.00    +0.144 HD
ENDBRANCH  11  14
ENDBRANCH   6  11
TORSDOF 2
