REMARK  Name = 4510
REMARK  8 active torsions:
REMARK  status: ('A' for Active; 'I' for Inactive)
REMARK    1  A    between atoms: C_1  and  O_2
REMARK    2  A    between atoms: C_1  and  C_6
REMARK    3  A    between atoms: C_1  and  C_11
REMARK    4  A    between atoms: O_2  and  N_5
REMARK    5  A    between atoms: C_6  and  O_7
REMARK    6  A    between atoms: O_7  and  N_10
REMARK    7  A    between atoms: C_11  and  O_12
REMARK    8  A    between atoms: O_12  and  N_15
REMARK                            x       y       z     vdW  Elec       q    Type
REMARK                         _______ _______ _______ _____ _____    ______ ____
ROOT
ATOM      1  C   UNL     1       0.164  -0.466  -0.700  0.00  0.00    +0.293 C 
ENDROOT
BRANCH   1   2
ATOM      2  O   UNL     1       0.042  -1.357   0.411  0.00  0.00    -0.332 OA
BRANCH   2   5
ATOM      3  O   UNL     1      -1.143  -2.633  -0.946  0.00  0.00    -0.090 OA
ATOM      4  O   UNL     1      -1.545  -2.756   1.244  0.00  0.00    -0.090 OA
ATOM      5  N   UNL     1      -0.972  -2.334   0.237  0.00  0.00    +0.218 N 
ENDBRANCH   2   5
ENDBRANCH   1   2
BRANCH   1   6
ATOM      6  C   UNL     1       1.279   0.524  -0.388  0.00  0.00    +0.293 C 
BRANCH   6   7
ATOM      7  O   UNL     1       2.490  -0.194  -0.177  0.00  0.00    -0.332 OA
BRANCH   7  10
ATOM      8  O   UNL     1       3.303   1.838   0.144  0.00  0.00    -0.090 OA
ATOM      9  O   UNL     1       4.689   0.100   0.320  0.00  0.00    -0.090 OA
ATOM     10  N   UNL     1       3.599   0.643   0.123  0.00  0.00    +0.218 N 
ENDBRANCH   7  10
ENDBRANCH   6   7
ENDBRANCH   1   6
BRANCH   1  11
ATOM     11  C   UNL     1      -1.169   0.243  -0.908  0.00  0.00    +0.293 C 
BRANCH  11  12
ATOM     12  O   UNL     1      -1.527   0.954   0.273  0.00  0.00    -0.332 OA
BRANCH  12  15
ATOM     13  O   UNL     1      -3.296   1.500  -0.938  0.00  0.00    -0.090 OA
ATOM     14  O   UNL     1      -3.149   2.290   1.142  0.00  0.00    -0.090 OA
ATOM     15  N   UNL     1      -2.764   1.647   0.163  0.00  0.00    +0.218 N 
ENDBRANCH  12  15
ENDBRANCH  11  12
ENDBRANCH   1  11
TORSDOF 8
