REMARK  Name = 41684
REMARK  4 active torsions:
REMARK  status: ('A' for Active; 'I' for Inactive)
REMARK    1  A    between atoms: C_5  and  C_10
REMARK    2  A    between atoms: C_7  and  N_22
REMARK    3  A    between atoms: C_11  and  O_16
REMARK    4  A    between atoms: O_16  and  C_18
REMARK                            x       y       z     vdW  Elec       q    Type
REMARK                         _______ _______ _______ _____ _____    ______ ____
ROOT
ATOM      1  S   UNL     1       2.937  -1.048   0.626  0.00  0.00    -0.027 S 
ATOM      2  O   UNL     1      -0.748   0.948  -1.361  0.00  0.00    -0.270 OA
ATOM      3  N   UNL     1       0.448  -0.608  -0.067  0.00  0.00    -0.260 N 
ATOM      4  N   UNL     1       2.145   0.894  -0.886  0.00  0.00    -0.221 NA
ATOM      5  C   UNL     1      -0.707  -0.057  -0.635  0.00  0.00    +0.254 C 
ATOM      6  C   UNL     1       1.758  -0.140  -0.204  0.00  0.00    +0.167 C 
ATOM      7  C   UNL     1       4.122   0.038   0.027  0.00  0.00    +0.194 C 
ATOM      8  C   UNL     1       3.516   1.000  -0.753  0.00  0.00    +0.132 C 
ATOM      9  H   UNL     1       0.324  -1.411   0.489  0.00  0.00    +0.157 HD
ENDROOT
BRANCH   5  10
ATOM     10  C   UNL     1      -1.946  -0.767  -0.352  0.00  0.00    +0.088 C 
ATOM     11  C   UNL     1      -3.163  -0.087  -0.287  0.00  0.00    +0.153 C 
ATOM     12  C   UNL     1      -1.906  -2.146  -0.145  0.00  0.00    +0.008 C 
ATOM     13  C   UNL     1      -4.339  -0.786  -0.014  0.00  0.00    +0.038 C 
ATOM     14  C   UNL     1      -3.082  -2.845   0.128  0.00  0.00    +0.000 C 
ATOM     15  C   UNL     1      -4.298  -2.165   0.193  0.00  0.00    +0.003 C 
BRANCH  11  16
ATOM     16  O   UNL     1      -3.223   1.259  -0.487  0.00  0.00    -0.424 OA
BRANCH  16  18
ATOM     17  O   UNL     1      -2.902   1.572   1.811  0.00  0.00    -0.250 OA
ATOM     18  C   UNL     1      -3.072   2.019   0.684  0.00  0.00    +0.322 C 
ATOM     19  C   UNL     1      -3.153   3.481   0.360  0.00  0.00    +0.122 C 
ENDBRANCH  16  18
ENDBRANCH  11  16
ENDBRANCH   5  10
BRANCH   7  22
ATOM     20  O   UNL     1       6.332   0.674  -0.093  0.00  0.00    -0.126 OA
ATOM     21  O   UNL     1       5.812  -1.101   1.099  0.00  0.00    -0.126 OA
ATOM     22  N   UNL     1       5.471  -0.136   0.356  0.00  0.00    +0.065 N 
ENDBRANCH   7  22
TORSDOF 4
