REMARK  Name = 3958
REMARK  2 active torsions:
REMARK  status: ('A' for Active; 'I' for Inactive)
REMARK    1  A    between atoms: C_6  and  C_16
REMARK    2  A    between atoms: C_8  and  O_22
REMARK                            x       y       z     vdW  Elec       q    Type
REMARK                         _______ _______ _______ _____ _____    ______ ____
ROOT
ATOM      1 CL   UNL     1       0.009   4.630  -0.689  0.00  0.00    -0.082 Cl
ATOM      2  O   UNL     1       2.971  -2.757   0.699  0.00  0.00    -0.270 OA
ATOM      3  N   UNL     1       2.514  -0.524   0.846  0.00  0.00    -0.280 N 
ATOM      4  N   UNL     1       0.300  -1.670  -0.846  0.00  0.00    -0.235 NA
ATOM      5  C   UNL     1       0.617   0.692  -0.209  0.00  0.00    +0.032 C 
ATOM      6  C   UNL     1      -0.187  -0.542  -0.456  0.00  0.00    +0.081 C 
ATOM      7  C   UNL     1       1.837   0.658   0.485  0.00  0.00    +0.052 C 
ATOM      8  C   UNL     1       1.722  -1.781  -1.116  0.00  0.00    +0.295 C 
ATOM      9  C   UNL     1       0.068   1.929  -0.587  0.00  0.00    +0.014 C 
ATOM     10  C   UNL     1       2.430  -1.755   0.228  0.00  0.00    +0.278 C 
ATOM     11  C   UNL     1       2.431   1.866   0.881  0.00  0.00    +0.016 C 
ATOM     12  C   UNL     1       0.697   3.121  -0.229  0.00  0.00    +0.058 C 
ATOM     13  C   UNL     1       1.868   3.090   0.519  0.00  0.00    +0.013 C 
ATOM     14  H   UNL     1       3.113  -0.466   1.626  0.00  0.00    +0.155 HD
ENDROOT
BRANCH   6  16
ATOM     15 CL   UNL     1      -1.200  -1.287   2.365  0.00  0.00    -0.082 Cl
ATOM     16  C   UNL     1      -1.657  -0.501  -0.207  0.00  0.00    +0.028 C 
ATOM     17  C   UNL     1      -2.196  -0.820   1.034  0.00  0.00    +0.059 C 
ATOM     18  C   UNL     1      -2.483  -0.128  -1.263  0.00  0.00    +0.002 C 
ATOM     19  C   UNL     1      -3.578  -0.766   1.222  0.00  0.00    +0.011 C 
ATOM     20  C   UNL     1      -3.864  -0.074  -1.075  0.00  0.00    +0.000 C 
ATOM     21  C   UNL     1      -4.411  -0.394   0.168  0.00  0.00    +0.001 C 
ENDBRANCH   6  16
BRANCH   8  22
ATOM     22  O   UNL     1       2.112  -2.986  -1.772  0.00  0.00    -0.357 OA
ATOM     23  H   UNL     1       1.678  -3.038  -2.638  0.00  0.00    +0.213 HD
ENDBRANCH   8  22
TORSDOF 2
