REMARK  Name = 6992103
REMARK  9 active torsions:
REMARK  status: ('A' for Active; 'I' for Inactive)
REMARK    1  A    between atoms: SG_1  and  SG_2
REMARK    2  A    between atoms: SG_1  and  CB_12
REMARK    3  A    between atoms: SG_2  and  CB_3
REMARK    4  A    between atoms: CB_3  and  CA_4
REMARK    5  A    between atoms: CA_4  and  N_5
REMARK    6  A    between atoms: CA_4  and  C_11
REMARK    7  A    between atoms: CB_12  and  CA_13
REMARK    8  A    between atoms: CA_13  and  N_14
REMARK    9  A    between atoms: CA_13  and  C_20
REMARK                            x       y       z     vdW  Elec       q    Type
REMARK                         _______ _______ _______ _____ _____    ______ ____
ROOT
ATOM      1  SG  CYS A   1      -1.002   0.255  -1.314  0.00  0.00    -0.084 S 
ENDROOT
BRANCH   1   2
ATOM      2  SG  CYS A   1       1.007  -0.173  -1.317  0.00  0.00    -0.084 S 
BRANCH   2   3
ATOM      3  CB  CYS A   1       1.625   0.945  -0.036  0.00  0.00    +0.058 C 
BRANCH   3   4
ATOM      4  CA  CYS A   1       3.136   0.843   0.188  0.00  0.00    +0.052 C 
BRANCH   4   5
ATOM      5  N   CYS A   1       3.799   1.391  -1.039  0.00  0.00    +0.389 N 
ATOM      6  H1  CYS A   1       3.391   2.297  -1.270  0.00  0.00    -0.088 HD
ATOM      7  H2  CYS A   1       3.660   0.747  -1.818  0.00  0.00    -0.088 HD
ATOM      8  H3  CYS A   1       4.798   1.503  -0.864  0.00  0.00    -0.088 HD
ENDBRANCH   4   5
BRANCH   4  11
ATOM      9  O   CYS A   1       4.837  -0.808   0.255  0.00  0.00    -0.248 OA
ATOM     10  OXT CYS A   1       2.867  -1.229   1.325  0.00  0.00    -0.248 OA
ATOM     11  C   CYS A   1       3.667  -0.529   0.642  0.00  0.00    +0.346 C 
ENDBRANCH   4  11
ENDBRANCH   3   4
ENDBRANCH   2   3
ENDBRANCH   1   2
BRANCH   1  12
ATOM     12  CB  CYS A   1      -1.621  -0.936  -0.080  0.00  0.00    +0.058 C 
BRANCH  12  13
ATOM     13  CA  CYS A   1      -3.133  -0.853   0.146  0.00  0.00    +0.052 C 
BRANCH  13  14
ATOM     14  N   CYS A   1      -3.791  -1.344  -1.107  0.00  0.00    +0.389 N 
ATOM     15  H1  CYS A   1      -3.378  -2.235  -1.382  0.00  0.00    -0.088 HD
ATOM     16  H2  CYS A   1      -3.655  -0.662  -1.853  0.00  0.00    -0.088 HD
ATOM     17  H3  CYS A   1      -4.790  -1.469  -0.940  0.00  0.00    -0.088 HD
ENDBRANCH  13  14
BRANCH  13  20
ATOM     18  O   CYS A   1      -4.843   0.784   0.290  0.00  0.00    -0.248 OA
ATOM     19  OXT CYS A   1      -2.876   1.162   1.383  0.00  0.00    -0.248 OA
ATOM     20  C   CYS A   1      -3.671   0.492   0.665  0.00  0.00    +0.346 C 
ENDBRANCH  13  20
ENDBRANCH  12  13
ENDBRANCH   1  12
TORSDOF 9
