REMARK  Name = 5959
REMARK  8 active torsions:
REMARK  status: ('A' for Active; 'I' for Inactive)
REMARK    1  A    between atoms: C_1  and  C_2
REMARK    2  A    between atoms: C_1  and  O_11
REMARK    3  A    between atoms: C_1  and  CA_13
REMARK    4  A    between atoms: C_7  and  N_10
REMARK    5  A    between atoms: CA_13  and  N_15
REMARK    6  A    between atoms: CA_13  and  C_21
REMARK    7  A    between atoms: C_16  and  C_20
REMARK    8  A    between atoms: C_21  and  O_22
REMARK                            x       y       z     vdW  Elec       q    Type
REMARK                         _______ _______ _______ _____ _____    ______ ____
ROOT
ATOM      1  C   UNL     1      -0.326  -0.168   1.048  0.00  0.00    +0.153 C 
ENDROOT
BRANCH   1   2
ATOM      2  C   UNL     1       1.127  -0.043   0.649  0.00  0.00    +0.006 C 
ATOM      3  C   UNL     1       2.042  -0.964   1.129  0.00  0.00    -0.000 C 
ATOM      4  C   UNL     1       1.513   0.991  -0.188  0.00  0.00    -0.000 C 
ATOM      5  C   UNL     1       3.383  -0.849   0.760  0.00  0.00    +0.024 C 
ATOM      6  C   UNL     1       2.853   1.106  -0.556  0.00  0.00    +0.024 C 
ATOM      7  C   UNL     1       3.788   0.186  -0.082  0.00  0.00    +0.143 C 
BRANCH   7  10
ATOM      8  O   UNL     1       5.977  -0.536  -0.021  0.00  0.00    -0.126 OA
ATOM      9  O   UNL     1       5.496   1.241  -1.217  0.00  0.00    -0.126 OA
ATOM     10  N   UNL     1       5.152   0.302  -0.458  0.00  0.00    +0.058 N 
ENDBRANCH   7  10
ENDBRANCH   1   2
BRANCH   1  11
ATOM     11  O   UNL     1      -0.646   0.986   1.831  0.00  0.00    -0.378 OA
ATOM     12  H   UNL     1      -1.575   0.942   2.107  0.00  0.00    +0.211 HD
ENDBRANCH   1  11
BRANCH   1  13
ATOM     13  CA  UNL     1      -1.297  -0.261  -0.148  0.00  0.00    +0.132 C 
BRANCH  13  15
ATOM     14  O   UNL     1      -3.574   0.839  -1.501  0.00  0.00    -0.272 OA
ATOM     15  N   UNL     1      -2.666  -0.248   0.334  0.00  0.00    -0.299 N 
ATOM     16  C   UNL     1      -3.698   0.310  -0.398  0.00  0.00    +0.253 C 
ATOM     17  H   UNL     1      -2.865  -0.650   1.210  0.00  0.00    +0.150 HD
BRANCH  16  20
ATOM     18 CL   UNL     1      -5.649   1.839   0.571  0.00  0.00    -0.087 Cl
ATOM     19 CL   UNL     1      -6.122  -0.738  -0.721  0.00  0.00    -0.087 Cl
ATOM     20  C   UNL     1      -5.029   0.201   0.309  0.00  0.00    +0.234 C 
ENDBRANCH  16  20
ENDBRANCH  13  15
BRANCH  13  21
ATOM     21  C   UNL     1      -1.083  -1.493  -1.037  0.00  0.00    +0.159 C 
BRANCH  21  22
ATOM     22  O   UNL     1      -1.242  -2.701  -0.304  0.00  0.00    -0.380 OA
ATOM     23  H   UNL     1      -1.100  -3.458  -0.894  0.00  0.00    +0.211 HD
ENDBRANCH  21  22
ENDBRANCH  13  21
ENDBRANCH   1  13
TORSDOF 8
