REMARK  Name = 441314
REMARK  8 active torsions:
REMARK  status: ('A' for Active; 'I' for Inactive)
REMARK    1  A    between atoms: N_1  and  C_17
REMARK    2  A    between atoms: C_2  and  C_14
REMARK    3  A    between atoms: C_3  and  O_8
REMARK    4  A    between atoms: C_4  and  O_10
REMARK    5  A    between atoms: C_5  and  O_12
REMARK    6  A    between atoms: C_14  and  O_15
REMARK    7  A    between atoms: C_17  and  C_18
REMARK    8  A    between atoms: C_18  and  O_19
REMARK                            x       y       z     vdW  Elec       q    Type
REMARK                         _______ _______ _______ _____ _____    ______ ____
ROOT
ATOM      1  N   UNL     1      -0.828  -0.450  -0.757  0.00  0.00    +0.395 N 
ATOM      2  C   UNL     1       0.521  -1.018  -0.552  0.00  0.00    +0.002 C 
ATOM      3  C   UNL     1       1.358  -0.227   0.477  0.00  0.00    +0.123 C 
ATOM      4  C   UNL     1       1.423   1.262   0.121  0.00  0.00    +0.160 C 
ATOM      5  C   UNL     1       0.034   1.833  -0.161  0.00  0.00    +0.119 C 
ATOM      6  C   UNL     1      -0.738   0.961  -1.153  0.00  0.00    -0.044 C 
ATOM      7  H   UNL     1      -1.244  -0.986  -1.518  0.00  0.00    -0.079 HD
ENDROOT
BRANCH   3   8
ATOM      8  O   UNL     1       2.702  -0.714   0.492  0.00  0.00    -0.384 OA
ATOM      9  H   UNL     1       2.701  -1.658   0.715  0.00  0.00    +0.210 HD
ENDBRANCH   3   8
BRANCH   4  10
ATOM     10  O   UNL     1       1.987   1.981   1.219  0.00  0.00    -0.380 OA
ATOM     11  H   UNL     1       2.871   1.633   1.414  0.00  0.00    +0.211 HD
ENDBRANCH   4  10
BRANCH   5  12
ATOM     12  O   UNL     1       0.164   3.148  -0.702  0.00  0.00    -0.384 OA
ATOM     13  H   UNL     1       0.653   3.708  -0.078  0.00  0.00    +0.210 HD
ENDBRANCH   5  12
BRANCH   2  14
ATOM     14  C   UNL     1       0.473  -2.518  -0.223  0.00  0.00    +0.119 C 
BRANCH  14  15
ATOM     15  O   UNL     1       1.796  -3.010  -0.244  0.00  0.00    -0.384 OA
ATOM     16  H   UNL     1       1.791  -3.958  -0.038  0.00  0.00    +0.210 HD
ENDBRANCH  14  15
ENDBRANCH   2  14
BRANCH   1  17
ATOM     17  C   UNL     1      -1.740  -0.633   0.371  0.00  0.00    -0.045 C 
BRANCH  17  18
ATOM     18  C   UNL     1      -3.150  -0.202  -0.003  0.00  0.00    +0.115 C 
BRANCH  18  19
ATOM     19  O   UNL     1      -4.003  -0.413   1.114  0.00  0.00    -0.384 OA
ATOM     20  H   UNL     1      -4.906  -0.141   0.887  0.00  0.00    +0.210 HD
ENDBRANCH  18  19
ENDBRANCH  17  18
ENDBRANCH   1  17
TORSDOF 8
