REMARK  Name = 5936
REMARK  4 active torsions:
REMARK  status: ('A' for Active; 'I' for Inactive)
REMARK    1  A    between atoms: P_1  and  O_4
REMARK    2  A    between atoms: P_1  and  O_8
REMARK    3  A    between atoms: O_4  and  C_5
REMARK    4  A    between atoms: O_8  and  C_9
REMARK                            x       y       z     vdW  Elec       q    Type
REMARK                         _______ _______ _______ _____ _____    ______ ____
ROOT
ATOM      1  P   UNL     1      -0.002   0.962   0.208  0.00  0.00    +0.517 P 
ATOM      2  F   UNL     1      -0.010   0.950  -1.363  0.00  0.00    -0.133 F 
ATOM      3  O   UNL     1      -0.452   2.286   0.750  0.00  0.00    -0.223 OA
ENDROOT
BRANCH   1   4
ATOM      4  O   UNL     1      -0.906  -0.313   0.621  0.00  0.00    -0.273 OA
BRANCH   4   5
ATOM      5  C   UNL     1      -2.271  -0.314   0.242  0.00  0.00    +0.127 C 
ATOM      6  C   UNL     1      -2.369  -0.232  -1.274  0.00  0.00    +0.033 C 
ATOM      7  C   UNL     1      -2.941  -1.567   0.786  0.00  0.00    +0.033 C 
ENDBRANCH   4   5
ENDBRANCH   1   4
BRANCH   1   8
ATOM      8  O   UNL     1       1.508   0.535   0.601  0.00  0.00    -0.273 OA
BRANCH   8   9
ATOM      9  C   UNL     1       2.019  -0.700   0.132  0.00  0.00    +0.127 C 
ATOM     10  C   UNL     1       2.003  -0.704  -1.389  0.00  0.00    +0.033 C 
ATOM     11  C   UNL     1       3.421  -0.904   0.685  0.00  0.00    +0.033 C 
ENDBRANCH   8   9
ENDBRANCH   1   8
TORSDOF 4
