REMARK  Name = 4199
REMARK  4 active torsions:
REMARK  status: ('A' for Active; 'I' for Inactive)
REMARK    1  A    between atoms: N_1  and  C_16
REMARK    2  A    between atoms: C_7  and  C_10
REMARK    3  A    between atoms: C_16  and  C_17
REMARK    4  A    between atoms: C_17  and  N_19
REMARK                            x       y       z     vdW  Elec       q    Type
REMARK                         _______ _______ _______ _____ _____    ______ ____
ROOT
ATOM      1  N   UNL     1       1.179   1.236   0.030  0.00  0.00    -0.319 N 
ATOM      2  N   UNL     1      -0.508  -0.410  -0.251  0.00  0.00    -0.133 NA
ATOM      3  N   UNL     1      -1.817  -0.779  -0.261  0.00  0.00    -0.147 NA
ATOM      4  C   UNL     1      -0.153   0.882   0.024  0.00  0.00    +0.146 C 
ATOM      5  C   UNL     1      -1.134   1.839   0.298  0.00  0.00    +0.013 C 
ATOM      6  C   UNL     1      -2.466   1.464   0.288  0.00  0.00    +0.019 C 
ATOM      7  C   UNL     1      -2.763   0.147   0.004  0.00  0.00    +0.103 C 
ATOM      8  C   UNL     1      -0.768   3.253   0.601  0.00  0.00    +0.034 C 
ATOM      9  H   UNL     1       1.414   2.171   0.230  0.00  0.00    +0.148 HD
ENDROOT
BRANCH   7  10
ATOM     10  C   UNL     1      -4.123  -0.332  -0.028  0.00  0.00    +0.019 C 
ATOM     11  C   UNL     1      -5.162   0.528  -0.393  0.00  0.00    +0.002 C 
ATOM     12  C   UNL     1      -4.409  -1.658   0.305  0.00  0.00    +0.002 C 
ATOM     13  C   UNL     1      -6.478   0.065  -0.425  0.00  0.00    +0.000 C 
ATOM     14  C   UNL     1      -5.724  -2.121   0.274  0.00  0.00    +0.000 C 
ATOM     15  C   UNL     1      -6.759  -1.260  -0.091  0.00  0.00    +0.000 C 
ENDBRANCH   7  10
BRANCH   1  16
ATOM     16  C   UNL     1       2.258   0.295  -0.246  0.00  0.00    +0.066 C 
BRANCH  16  17
ATOM     17  C   UNL     1       3.609   0.987  -0.122  0.00  0.00    -0.056 C 
BRANCH  17  19
ATOM     18  O   UNL     1       7.037  -1.383   0.374  0.00  0.00    -0.358 OA
ATOM     19  N   UNL     1       4.679   0.023  -0.375  0.00  0.00    +0.391 N 
ATOM     20  C   UNL     1       4.643  -1.065   0.612  0.00  0.00    -0.045 C 
ATOM     21  C   UNL     1       5.992   0.683  -0.350  0.00  0.00    -0.045 C 
ATOM     22  C   UNL     1       5.775  -2.051   0.336  0.00  0.00    +0.119 C 
ATOM     23  C   UNL     1       7.091  -0.344  -0.604  0.00  0.00    +0.119 C 
ATOM     24  H   UNL     1       4.530  -0.373  -1.303  0.00  0.00    -0.079 HD
ENDBRANCH  17  19
ENDBRANCH  16  17
ENDBRANCH   1  16
TORSDOF 4
