REMARK  Name = 4934
REMARK  7 active torsions:
REMARK  status: ('A' for Active; 'I' for Inactive)
REMARK    1  A    between atoms: C_2  and  C_16
REMARK    2  A    between atoms: C_16  and  O_17
REMARK    3  A    between atoms: O_17  and  C_18
REMARK    4  A    between atoms: C_18  and  C_19
REMARK    5  A    between atoms: C_19  and  N_20
REMARK    6  A    between atoms: N_20  and  C_22
REMARK    7  A    between atoms: N_20  and  C_25
REMARK                            x       y       z     vdW  Elec       q    Type
REMARK                         _______ _______ _______ _____ _____    ______ ____
ROOT
ATOM      1  O   UNL     1       3.977  -0.646  -0.765  0.00  0.00    -0.470 OA
ATOM      2  C   UNL     1       1.617   0.180   0.751  0.00  0.00    +0.078 C 
ATOM      3  C   UNL     1       2.023  -1.259   0.565  0.00  0.00    +0.040 C 
ATOM      4  C   UNL     1       2.689   1.136   0.297  0.00  0.00    +0.028 C 
ATOM      5  C   UNL     1       3.157  -1.586  -0.186  0.00  0.00    +0.139 C 
ATOM      6  C   UNL     1       3.786   0.676  -0.438  0.00  0.00    +0.210 C 
ATOM      7  C   UNL     1       1.261  -2.293   1.129  0.00  0.00    +0.003 C 
ATOM      8  C   UNL     1       2.595   2.505   0.592  0.00  0.00    -0.000 C 
ATOM      9  C   UNL     1       3.516  -2.922  -0.384  0.00  0.00    +0.037 C 
ATOM     10  C   UNL     1       4.765   1.569  -0.885  0.00  0.00    +0.021 C 
ATOM     11  C   UNL     1       1.623  -3.627   0.937  0.00  0.00    +0.000 C 
ATOM     12  C   UNL     1       3.575   3.394   0.151  0.00  0.00    -0.000 C 
ATOM     13  C   UNL     1       2.749  -3.941   0.179  0.00  0.00    +0.003 C 
ATOM     14  C   UNL     1       4.659   2.926  -0.589  0.00  0.00    -0.001 C 
ENDROOT
BRANCH   2  16
ATOM     15  O   UNL     1       0.201   0.357  -1.191  0.00  0.00    -0.245 OA
ATOM     16  C   UNL     1       0.335   0.456   0.021  0.00  0.00    +0.341 C 
BRANCH  16  17
ATOM     17  O   UNL     1      -0.627   0.825   0.915  0.00  0.00    -0.448 OA
BRANCH  17  18
ATOM     18  C   UNL     1      -1.909   1.119   0.351  0.00  0.00    +0.187 C 
BRANCH  18  19
ATOM     19  C   UNL     1      -2.746  -0.144   0.304  0.00  0.00    -0.025 C 
BRANCH  19  20
ATOM     20  N   UNL     1      -4.060   0.161  -0.316  0.00  0.00    +0.394 N 
ATOM     21  C   UNL     1      -3.876   0.720  -1.734  0.00  0.00    -0.095 C 
BRANCH  20  22
ATOM     22  C   UNL     1      -4.925  -1.103  -0.409  0.00  0.00    -0.054 C 
ATOM     23  C   UNL     1      -4.210  -2.112  -1.293  0.00  0.00    -0.022 C 
ATOM     24  C   UNL     1      -6.287  -0.716  -0.962  0.00  0.00    -0.022 C 
ENDBRANCH  20  22
BRANCH  20  25
ATOM     25  C   UNL     1      -4.824   1.203   0.512  0.00  0.00    -0.054 C 
ATOM     26  C   UNL     1      -4.009   2.486   0.544  0.00  0.00    -0.022 C 
ATOM     27  C   UNL     1      -5.059   0.635   1.903  0.00  0.00    -0.022 C 
ENDBRANCH  20  25
ENDBRANCH  19  20
ENDBRANCH  18  19
ENDBRANCH  17  18
ENDBRANCH  16  17
ENDBRANCH   2  16
TORSDOF 7
