REMARK  Name = 2343
REMARK  6 active torsions:
REMARK  status: ('A' for Active; 'I' for Inactive)
REMARK    1  A    between atoms: C_10  and  S_15
REMARK    2  A    between atoms: C_11  and  C_21
REMARK    3  A    between atoms: S_15  and  N_18
REMARK    4  A    between atoms: C_21  and  S_22
REMARK    5  A    between atoms: S_22  and  C_23
REMARK    6  A    between atoms: C_23  and  C_24
REMARK                            x       y       z     vdW  Elec       q    Type
REMARK                         _______ _______ _______ _____ _____    ______ ____
ROOT
ATOM      1 CL   UNL     1       4.414   3.104   0.642  0.00  0.00    -0.081 Cl
ATOM      2  S   UNL     1       1.287  -2.255  -0.177  0.00  0.00    +0.103 S 
ATOM      3  O   UNL     1       1.166  -2.416  -1.615  0.00  0.00    -0.146 OA
ATOM      4  O   UNL     1       1.996  -3.240   0.619  0.00  0.00    -0.146 OA
ATOM      5  N   UNL     1       0.216   0.230   1.137  0.00  0.00    -0.298 N 
ATOM      6  N   UNL     1      -0.198  -2.037   0.455  0.00  0.00    -0.116 NA
ATOM      7  C   UNL     1       2.168  -0.743   0.054  0.00  0.00    +0.144 C 
ATOM      8  C   UNL     1       1.534   0.327   0.683  0.00  0.00    +0.069 C 
ATOM      9  C   UNL     1       3.483  -0.663  -0.405  0.00  0.00    +0.042 C 
ATOM     10  C   UNL     1       4.189   0.524  -0.229  0.00  0.00    +0.134 C 
ATOM     11  C   UNL     1      -0.542  -0.910   0.998  0.00  0.00    +0.141 C 
ATOM     12  C   UNL     1       2.261   1.512   0.851  0.00  0.00    +0.029 C 
ATOM     13  C   UNL     1       3.579   1.611   0.398  0.00  0.00    +0.078 C 
ATOM     14  H   UNL     1      -0.189   1.013   1.575  0.00  0.00    +0.153 HD
ENDROOT
BRANCH  10  15
ATOM     15  S   UNL     1       5.838   0.594  -0.817  0.00  0.00    +0.058 S 
ATOM     16  O   UNL     1       5.984  -0.392  -1.876  0.00  0.00    -0.153 OA
ATOM     17  O   UNL     1       6.175   1.987  -1.067  0.00  0.00    -0.153 OA
BRANCH  15  18
ATOM     18  N   UNL     1       6.691   0.059   0.562  0.00  0.00    -0.203 NA
ATOM     19  H   UNL     1       7.691   0.049   0.360  0.00  0.00    +0.144 HD
ATOM     20  H   UNL     1       6.385  -0.883   0.807  0.00  0.00    +0.144 HD
ENDBRANCH  15  18
ENDBRANCH  10  15
BRANCH  11  21
ATOM     21  C   UNL     1      -1.948  -0.830   1.552  0.00  0.00    +0.121 C 
BRANCH  21  22
ATOM     22  S   UNL     1      -3.016  -0.235   0.235  0.00  0.00    -0.128 S 
BRANCH  22  23
ATOM     23  C   UNL     1      -4.589  -0.231   1.131  0.00  0.00    +0.084 C 
BRANCH  23  24
ATOM     24  C   UNL     1      -5.731   0.237   0.271  0.00  0.00    -0.011 C 
ATOM     25  C   UNL     1      -6.454  -0.689  -0.471  0.00  0.00    -0.003 C 
ATOM     26  C   UNL     1      -6.048   1.588   0.228  0.00  0.00    -0.003 C 
ATOM     27  C   UNL     1      -7.512  -0.255  -1.269  0.00  0.00    -0.000 C 
ATOM     28  C   UNL     1      -7.107   2.022  -0.570  0.00  0.00    -0.000 C 
ATOM     29  C   UNL     1      -7.839   1.100  -1.319  0.00  0.00    -0.000 C 
ENDBRANCH  23  24
ENDBRANCH  22  23
ENDBRANCH  21  22
ENDBRANCH  11  21
TORSDOF 6
