REMARK  Name = 3784
REMARK  6 active torsions:
REMARK  status: ('A' for Active; 'I' for Inactive)
REMARK    1  A    between atoms: C_2  and  C_13
REMARK    2  A    between atoms: C_3  and  C_20
REMARK    3  A    between atoms: C_4  and  C_26
REMARK    4  A    between atoms: C_20  and  O_21
REMARK    5  A    between atoms: O_21  and  C_22
REMARK    6  A    between atoms: C_26  and  O_27
REMARK                            x       y       z     vdW  Elec       q    Type
REMARK                         _______ _______ _______ _____ _____    ______ ____
ROOT
ATOM      1  N   UNL     1      -1.074   2.489  -1.292  0.00  0.00    -0.334 N 
ATOM      2  C   UNL     1      -0.441   0.702   0.813  0.00  0.00    +0.013 C 
ATOM      3  C   UNL     1       0.597   1.599   0.129  0.00  0.00    +0.071 C 
ATOM      4  C   UNL     1      -1.874   0.990   0.355  0.00  0.00    +0.085 C 
ATOM      5  C   UNL     1       0.248   2.427  -0.883  0.00  0.00    +0.098 C 
ATOM      6  C   UNL     1      -2.125   1.830  -0.673  0.00  0.00    +0.028 C 
ATOM      7  C   UNL     1       1.191   3.318  -1.645  0.00  0.00    +0.026 C 
ATOM      8  C   UNL     1      -3.487   2.141  -1.233  0.00  0.00    +0.047 C 
ATOM      9  H   UNL     1      -1.283   3.041  -2.080  0.00  0.00    +0.147 HD
ENDROOT
BRANCH   2  13
ATOM     10  O   UNL     1      -0.139  -1.858  -2.801  0.00  0.00    -0.242 OA
ATOM     11  N   UNL     1      -0.313  -0.823  -1.899  0.00  0.00    -0.048 NA
ATOM     12  N   UNL     1       0.210  -3.039  -2.170  0.00  0.00    -0.048 NA
ATOM     13  C   UNL     1      -0.106  -0.743   0.572  0.00  0.00    +0.023 C 
ATOM     14  C   UNL     1      -0.073  -1.346  -0.690  0.00  0.00    +0.143 A 
ATOM     15  C   UNL     1       0.201  -1.586   1.646  0.00  0.00    +0.002 C 
ATOM     16  C   UNL     1       0.260  -2.755  -0.862  0.00  0.00    +0.143 A 
ATOM     17  C   UNL     1       0.524  -2.958   1.479  0.00  0.00    +0.002 C 
ATOM     18  C   UNL     1       0.567  -3.594   0.225  0.00  0.00    +0.024 C 
ENDBRANCH   2  13
BRANCH   3  20
ATOM     19  O   UNL     1       2.340   2.259   1.593  0.00  0.00    -0.245 OA
ATOM     20  C   UNL     1       1.964   1.558   0.672  0.00  0.00    +0.339 C 
BRANCH  20  21
ATOM     21  O   UNL     1       2.673   0.635  -0.023  0.00  0.00    -0.449 OA
BRANCH  21  22
ATOM     22  C   UNL     1       4.033   0.476   0.392  0.00  0.00    +0.169 C 
ATOM     23  C   UNL     1       4.066   0.079   1.860  0.00  0.00    +0.047 C 
ATOM     24  C   UNL     1       4.708  -0.561  -0.492  0.00  0.00    +0.047 C 
ENDBRANCH  21  22
ENDBRANCH  20  21
ENDBRANCH   3  20
BRANCH   4  26
ATOM     25  O   UNL     1      -3.454   0.838   2.115  0.00  0.00    -0.245 OA
ATOM     26  C   UNL     1      -2.953   0.345   1.122  0.00  0.00    +0.342 C 
BRANCH  26  27
ATOM     27  O   UNL     1      -3.253  -0.836   0.529  0.00  0.00    -0.441 OA
ATOM     28  C   UNL     1      -4.293  -1.586   1.163  0.00  0.00    +0.256 C 
ENDBRANCH  26  27
ENDBRANCH   4  26
TORSDOF 6
