REMARK  Name = 4020
REMARK  2 active torsions:
REMARK  status: ('A' for Active; 'I' for Inactive)
REMARK    1  A    between atoms: C_3  and  C_14
REMARK    2  A    between atoms: C_3  and  O_20
REMARK                            x       y       z     vdW  Elec       q    Type
REMARK                         _______ _______ _______ _____ _____    ______ ____
ROOT
ATOM      1  N   UNL     1      -0.800   1.375   0.281  0.00  0.00    -0.244 N 
ATOM      2  N   UNL     1      -2.675   2.086  -0.824  0.00  0.00    -0.227 NA
ATOM      3  C   UNL     1      -0.154   0.223   0.882  0.00  0.00    +0.194 C 
ATOM      4  C   UNL     1      -1.111  -0.870   0.397  0.00  0.00    +0.027 C 
ATOM      5  C   UNL     1      -1.969   1.101  -0.355  0.00  0.00    +0.137 C 
ATOM      6  C   UNL     1      -0.628   2.778   0.427  0.00  0.00    +0.090 C 
ATOM      7  C   UNL     1      -2.192  -0.327  -0.334  0.00  0.00    +0.032 C 
ATOM      8  C   UNL     1      -1.811   3.276  -0.453  0.00  0.00    +0.116 C 
ATOM      9  C   UNL     1      -1.045  -2.237   0.601  0.00  0.00    +0.000 C 
ATOM     10  C   UNL     1      -3.207  -1.087  -0.870  0.00  0.00    +0.003 C 
ATOM     11  C   UNL     1      -2.063  -3.034   0.063  0.00  0.00    -0.000 C 
ATOM     12  C   UNL     1      -3.130  -2.465  -0.663  0.00  0.00    +0.000 C 
ENDROOT
BRANCH   3  14
ATOM     13 CL   UNL     1       5.514  -0.456  -1.073  0.00  0.00    -0.082 Cl
ATOM     14  C   UNL     1       1.273   0.053   0.390  0.00  0.00    +0.024 C 
ATOM     15  C   UNL     1       1.546   0.046  -0.980  0.00  0.00    +0.001 C 
ATOM     16  C   UNL     1       2.317  -0.097   1.305  0.00  0.00    +0.001 C 
ATOM     17  C   UNL     1       2.857  -0.111  -1.432  0.00  0.00    +0.011 C 
ATOM     18  C   UNL     1       3.628  -0.254   0.853  0.00  0.00    +0.011 C 
ATOM     19  C   UNL     1       3.897  -0.261  -0.516  0.00  0.00    +0.058 C 
ENDBRANCH   3  14
BRANCH   3  20
ATOM     20  O   UNL     1      -0.248   0.261   2.302  0.00  0.00    -0.364 OA
ATOM     21  H   UNL     1      -1.176   0.370   2.561  0.00  0.00    +0.213 HD
ENDBRANCH   3  20
TORSDOF 2
