REMARK  Name = 50599
REMARK  3 active torsions:
REMARK  status: ('A' for Active; 'I' for Inactive)
REMARK    1  A    between atoms: N_2  and  C_13
REMARK    2  A    between atoms: C_16  and  C_17
REMARK    3  A    between atoms: C_17  and  O_18
REMARK                            x       y       z     vdW  Elec       q    Type
REMARK                         _______ _______ _______ _____ _____    ______ ____
ROOT
ATOM      1  O   UNL     1       4.111   1.647   0.343  0.00  0.00    -0.221 OA
ATOM      2  N   UNL     1      -0.054  -0.077  -0.050  0.00  0.00    -0.212 NA
ATOM      3  N   UNL     1       1.799  -1.585  -0.517  0.00  0.00    -0.259 NA
ATOM      4  N   UNL     1       1.163   1.745   0.437  0.00  0.00    -0.242 NA
ATOM      5  N   UNL     1       3.977  -0.583  -0.284  0.00  0.00    -0.183 NA
ATOM      6  C   UNL     1       1.249  -0.416  -0.174  0.00  0.00    +0.172 C 
ATOM      7  C   UNL     1      -0.058   1.248   0.325  0.00  0.00    +0.205 C 
ATOM      8  C   UNL     1       1.983   0.698   0.123  0.00  0.00    +0.167 C 
ATOM      9  C   UNL     1       3.436   0.659   0.079  0.00  0.00    +0.168 C 
ATOM     10  C   UNL     1       3.180  -1.584  -0.548  0.00  0.00    +0.211 C 
ATOM     11  H   UNL     1       1.263  -2.382  -0.730  0.00  0.00    +0.127 HD
ENDROOT
BRANCH   2  13
ATOM     12  O   UNL     1      -2.310  -0.120  -0.772  0.00  0.00    -0.341 OA
ATOM     13  C   UNL     1      -1.230  -0.922  -0.260  0.00  0.00    +0.179 C 
ATOM     14  C   UNL     1      -1.727  -1.611   1.008  0.00  0.00    +0.049 C 
ATOM     15  C   UNL     1      -2.943  -0.799   1.391  0.00  0.00    +0.036 C 
ATOM     16  C   UNL     1      -3.471  -0.368   0.035  0.00  0.00    +0.146 C 
BRANCH  16  17
ATOM     17  C   UNL     1      -4.337   0.875   0.089  0.00  0.00    +0.167 C 
BRANCH  17  18
ATOM     18  O   UNL     1      -4.767   1.193  -1.225  0.00  0.00    -0.379 OA
ATOM     19  H   UNL     1      -5.322   1.988  -1.200  0.00  0.00    +0.211 HD
ENDBRANCH  17  18
ENDBRANCH  16  17
ENDBRANCH   2  13
TORSDOF 3
