REMARK  Name = 2162
REMARK  11 active torsions:
REMARK  status: ('A' for Active; 'I' for Inactive)
REMARK    1  A    between atoms: C_2  and  C_10
REMARK    2  A    between atoms: C_3  and  C_17
REMARK    3  A    between atoms: C_4  and  C_22
REMARK    4  A    between atoms: C_5  and  C_25
REMARK    5  A    between atoms: C_17  and  O_18
REMARK    6  A    between atoms: O_18  and  C_19
REMARK    7  A    between atoms: C_22  and  O_23
REMARK    8  A    between atoms: C_25  and  O_26
REMARK    9  A    between atoms: O_26  and  C_27
REMARK   10  A    between atoms: C_27  and  C_28
REMARK   11  A    between atoms: C_28  and  N_29
REMARK                            x       y       z     vdW  Elec       q    Type
REMARK                         _______ _______ _______ _____ _____    ______ ____
ROOT
ATOM      1  N   UNL     1       0.352   2.418  -0.005  0.00  0.00    -0.332 N 
ATOM      2  C   UNL     1      -1.186   0.105   0.549  0.00  0.00    +0.012 C 
ATOM      3  C   UNL     1       0.303   0.228   0.891  0.00  0.00    +0.074 C 
ATOM      4  C   UNL     1      -1.790   1.414   0.031  0.00  0.00    +0.085 C 
ATOM      5  C   UNL     1       0.999   1.349   0.594  0.00  0.00    +0.128 C 
ATOM      6  C   UNL     1      -1.011   2.484  -0.246  0.00  0.00    +0.028 C 
ATOM      7  C   UNL     1      -1.494   3.794  -0.806  0.00  0.00    +0.047 C 
ATOM      8  H   UNL     1       0.901   3.188  -0.280  0.00  0.00    +0.147 HD
ENDROOT
BRANCH   2  10
ATOM      9 CL   UNL     1      -2.901  -2.325   1.373  0.00  0.00    -0.082 Cl
ATOM     10  C   UNL     1      -1.391  -0.989  -0.460  0.00  0.00    +0.011 C 
ATOM     11  C   UNL     1      -2.152  -2.121  -0.168  0.00  0.00    +0.058 C 
ATOM     12  C   UNL     1      -0.798  -0.852  -1.715  0.00  0.00    +0.001 C 
ATOM     13  C   UNL     1      -2.320  -3.115  -1.131  0.00  0.00    +0.011 C 
ATOM     14  C   UNL     1      -0.966  -1.846  -2.678  0.00  0.00    +0.000 C 
ATOM     15  C   UNL     1      -1.727  -2.978  -2.386  0.00  0.00    +0.001 C 
ENDBRANCH   2  10
BRANCH   3  17
ATOM     16  O   UNL     1       0.498  -1.313   2.681  0.00  0.00    -0.245 OA
ATOM     17  C   UNL     1       0.910  -0.903   1.611  0.00  0.00    +0.339 C 
BRANCH  17  18
ATOM     18  O   UNL     1       1.954  -1.364   0.882  0.00  0.00    -0.446 OA
BRANCH  18  19
ATOM     19  C   UNL     1       2.652  -2.474   1.456  0.00  0.00    +0.209 C 
ATOM     20  C   UNL     1       3.784  -2.874   0.535  0.00  0.00    +0.051 C 
ENDBRANCH  18  19
ENDBRANCH  17  18
ENDBRANCH   3  17
BRANCH   4  22
ATOM     21  O   UNL     1      -3.827   1.696  -1.149  0.00  0.00    -0.245 OA
ATOM     22  C   UNL     1      -3.256   1.457  -0.101  0.00  0.00    +0.342 C 
BRANCH  22  23
ATOM     23  O   UNL     1      -3.802   1.192   1.111  0.00  0.00    -0.441 OA
ATOM     24  C   UNL     1      -5.232   1.196   1.145  0.00  0.00    +0.256 C 
ENDBRANCH  22  23
ENDBRANCH   4  22
BRANCH   5  25
ATOM     25  C   UNL     1       2.467   1.558   0.851  0.00  0.00    +0.166 C 
BRANCH  25  26
ATOM     26  O   UNL     1       3.209   1.136  -0.276  0.00  0.00    -0.354 OA
BRANCH  26  27
ATOM     27  C   UNL     1       4.609   1.313  -0.085  0.00  0.00    +0.119 C 
BRANCH  27  28
ATOM     28  C   UNL     1       5.338   0.818  -1.324  0.00  0.00    -0.054 C 
BRANCH  28  29
ATOM     29  N   UNL     1       6.775   0.995  -1.180  0.00  0.00    +0.382 N 
ATOM     30  H   UNL     1       7.245   0.658  -2.020  0.00  0.00    -0.089 HD
ATOM     31  H   UNL     1       7.104   0.467  -0.372  0.00  0.00    -0.089 HD
ATOM     32  H   UNL     1       6.984   1.985  -1.048  0.00  0.00    -0.089 HD
ENDBRANCH  28  29
ENDBRANCH  27  28
ENDBRANCH  26  27
ENDBRANCH  25  26
ENDBRANCH   5  25
TORSDOF 11
