REMARK  Name = 6540428
REMARK  5 active torsions:
REMARK  status: ('A' for Active; 'I' for Inactive)
REMARK    1  A    between atoms: C_6  and  C_22
REMARK    2  A    between atoms: N_21  and  CA_24
REMARK    3  A    between atoms: CA_24  and  C_25
REMARK    4  A    between atoms: CA_24  and  C_27
REMARK    5  A    between atoms: C_27  and  O_28
REMARK                            x       y       z     vdW  Elec       q    Type
REMARK                         _______ _______ _______ _____ _____    ______ ____
ROOT
ATOM      1  N   UNL     1       0.089   2.444  -0.046  0.00  0.00    +0.390 N 
ATOM      2  N   UNL     1      -5.355  -0.062   0.232  0.00  0.00    -0.284 N 
ATOM      3  C   UNL     1      -1.056   1.545  -0.365  0.00  0.00    -0.031 C 
ATOM      4  C   UNL     1      -0.771   0.051  -0.023  0.00  0.00    -0.045 C 
ATOM      5  C   UNL     1      -2.358   2.097   0.325  0.00  0.00    +0.011 C 
ATOM      6  C   UNL     1       1.641   0.558   0.286  0.00  0.00    +0.077 C 
ATOM      7  C   UNL     1       1.361   1.851  -0.483  0.00  0.00    -0.063 C 
ATOM      8  C   UNL     1      -3.461   1.101   0.258  0.00  0.00    -0.008 C 
ATOM      9  C   UNL     1      -1.914  -0.889  -0.049  0.00  0.00    -0.005 C 
ATOM     10  C   UNL     1      -3.160  -0.267   0.088  0.00  0.00    +0.010 C 
ATOM     11  C   UNL     1       0.464  -0.367   0.306  0.00  0.00    -0.026 C 
ATOM     12  C   UNL     1      -4.344  -0.986   0.077  0.00  0.00    +0.051 C 
ATOM     13  C   UNL     1      -4.829   1.207   0.345  0.00  0.00    +0.061 C 
ATOM     14  C   UNL     1      -0.061   3.771  -0.654  0.00  0.00    -0.100 C 
ATOM     15  C   UNL     1      -1.906  -2.281  -0.199  0.00  0.00    -0.000 C 
ATOM     16  C   UNL     1      -4.354  -2.374  -0.071  0.00  0.00    +0.015 C 
ATOM     17  C   UNL     1      -3.108  -3.004  -0.209  0.00  0.00    +0.001 C 
ATOM     18  C   UNL     1      -6.769  -0.365   0.278  0.00  0.00    +0.117 C 
ATOM     19  H   UNL     1       0.095   2.557   0.967  0.00  0.00    -0.079 HD
ENDROOT
BRANCH   6  22
ATOM     20  O   UNL     1       2.572  -1.004  -1.260  0.00  0.00    -0.275 OA
ATOM     21  N   UNL     1       3.999   0.157   0.166  0.00  0.00    -0.303 N 
ATOM     22  C   UNL     1       2.768  -0.183  -0.368  0.00  0.00    +0.224 C 
ATOM     23  H   UNL     1       4.029   0.833   0.881  0.00  0.00    +0.149 HD
BRANCH  21  24
ATOM     24  CA  UNL     1       5.242  -0.432  -0.275  0.00  0.00    +0.101 C 
BRANCH  24  25
ATOM     25  C   UNL     1       5.564  -1.700   0.529  0.00  0.00    +0.022 C 
ATOM     26  C   UNL     1       6.828  -2.398   0.045  0.00  0.00    +0.002 C 
ENDBRANCH  24  25
BRANCH  24  27
ATOM     27  C   UNL     1       6.373   0.589  -0.150  0.00  0.00    +0.157 C 
BRANCH  27  28
ATOM     28  O   UNL     1       6.543   0.941   1.219  0.00  0.00    -0.380 OA
ATOM     29  H   UNL     1       7.260   1.589   1.299  0.00  0.00    +0.211 HD
ENDBRANCH  27  28
ENDBRANCH  24  27
ENDBRANCH  21  24
ENDBRANCH   6  22
TORSDOF 5
