REMARK  Name = 9034
REMARK  5 active torsions:
REMARK  status: ('A' for Active; 'I' for Inactive)
REMARK    1  A    between atoms: C_6  and  C_12
REMARK    2  A    between atoms: C_6  and  C_18
REMARK    3  A    between atoms: C_12  and  C_14
REMARK    4  A    between atoms: C_15  and  C_16
REMARK    5  A    between atoms: C_18  and  C_19
REMARK                            x       y       z     vdW  Elec       q    Type
REMARK                         _______ _______ _______ _____ _____    ______ ____
ROOT
ATOM      1  O   UNL     1      -1.896  -1.187   1.784  0.00  0.00    -0.274 OA
ATOM      2  O   UNL     1       0.816  -0.365  -1.879  0.00  0.00    -0.274 OA
ATOM      3  O   UNL     1      -3.286   1.649  -1.624  0.00  0.00    -0.252 OA
ATOM      4  N   UNL     1      -2.587   0.382   0.208  0.00  0.00    -0.212 N 
ATOM      5  N   UNL     1      -1.215   0.685  -1.694  0.00  0.00    -0.239 N 
ATOM      6  C   UNL     1      -0.213  -0.275   0.313  0.00  0.00    +0.153 C 
ATOM      7  C   UNL     1      -1.637  -0.436   0.841  0.00  0.00    +0.241 C 
ATOM      8  C   UNL     1      -0.142  -0.027  -1.185  0.00  0.00    +0.238 C 
ATOM      9  C   UNL     1      -2.423   0.970  -1.061  0.00  0.00    +0.316 C 
ATOM     10  C   UNL     1      -3.897   0.510   0.835  0.00  0.00    +0.124 C 
ATOM     11  H   UNL     1      -1.112   1.030  -2.610  0.00  0.00    +0.159 HD
ENDROOT
BRANCH   6  12
ATOM     12  C   UNL     1       0.400   0.951   1.012  0.00  0.00    +0.081 C 
ATOM     13  C   UNL     1       0.306   0.799   2.525  0.00  0.00    +0.015 C 
BRANCH  12  14
ATOM     14  C   UNL     1       1.798   1.124   0.591  0.00  0.00    -0.091 C 
ATOM     15  C   UNL     1       2.940   1.272   0.251  0.00  0.00    -0.091 C 
BRANCH  15  16
ATOM     16  C   UNL     1       4.336   1.451  -0.166  0.00  0.00    +0.076 C 
ATOM     17  C   UNL     1       5.032   0.114  -0.350  0.00  0.00    +0.015 C 
ENDBRANCH  15  16
ENDBRANCH  12  14
ENDBRANCH   6  12
BRANCH   6  18
ATOM     18  C   UNL     1       0.617  -1.520   0.665  0.00  0.00    +0.044 C 
BRANCH  18  19
ATOM     19  C   UNL     1       0.143  -2.708  -0.103  0.00  0.00    -0.025 C 
ATOM     20  C   UNL     1       0.908  -3.389  -0.963  0.00  0.00    -0.005 C 
ENDBRANCH  18  19
ENDBRANCH   6  18
TORSDOF 5
