REMARK  Name = 150311
REMARK  8 active torsions:
REMARK  status: ('A' for Active; 'I' for Inactive)
REMARK    1  A    between atoms: N_2  and  C_7
REMARK    2  A    between atoms: C_3  and  C_21
REMARK    3  A    between atoms: C_4  and  C_13
REMARK    4  A    between atoms: C_18  and  O_19
REMARK    5  A    between atoms: C_21  and  C_22
REMARK    6  A    between atoms: C_22  and  C_23
REMARK    7  A    between atoms: C_23  and  C_25
REMARK    8  A    between atoms: C_23  and  O_31
REMARK                            x       y       z     vdW  Elec       q    Type
REMARK                         _______ _______ _______ _____ _____    ______ ____
ROOT
ATOM      1  O   UNL     1      -2.041  -2.323  -2.411  0.00  0.00    -0.274 OA
ATOM      2  N   UNL     1      -2.213  -0.807  -0.615  0.00  0.00    -0.256 N 
ATOM      3  C   UNL     1      -0.292  -0.795  -1.353  0.00  0.00    +0.100 C 
ATOM      4  C   UNL     1      -1.025  -0.062  -0.220  0.00  0.00    +0.111 C 
ATOM      5  C   UNL     1      -1.634  -1.485  -1.638  0.00  0.00    +0.231 C 
ENDROOT
BRANCH   2   7
ATOM      6  F   UNL     1      -7.085  -1.476   1.903  0.00  0.00    -0.204 F 
ATOM      7  C   UNL     1      -3.429  -0.973   0.012  0.00  0.00    +0.054 C 
ATOM      8  C   UNL     1      -4.308  -1.990  -0.391  0.00  0.00    +0.017 C 
ATOM      9  C   UNL     1      -3.810  -0.130   1.067  0.00  0.00    +0.017 C 
ATOM     10  C   UNL     1      -5.538  -2.159   0.246  0.00  0.00    +0.031 C 
ATOM     11  C   UNL     1      -5.040  -0.298   1.704  0.00  0.00    +0.031 C 
ATOM     12  C   UNL     1      -5.904  -1.313   1.293  0.00  0.00    +0.140 C 
ENDBRANCH   2   7
BRANCH   4  13
ATOM     13  C   UNL     1      -1.145   1.469  -0.241  0.00  0.00    -0.003 C 
ATOM     14  C   UNL     1      -0.821   2.224   0.895  0.00  0.00    +0.000 C 
ATOM     15  C   UNL     1      -1.579   2.133  -1.397  0.00  0.00    +0.000 C 
ATOM     16  C   UNL     1      -0.929   3.615   0.875  0.00  0.00    +0.036 C 
ATOM     17  C   UNL     1      -1.687   3.524  -1.417  0.00  0.00    +0.036 C 
ATOM     18  C   UNL     1      -1.362   4.265  -0.280  0.00  0.00    +0.134 C 
BRANCH  18  19
ATOM     19  O   UNL     1      -1.468   5.622  -0.299  0.00  0.00    -0.506 OA
ATOM     20  H   UNL     1      -1.250   6.119   0.464  0.00  0.00    +0.292 HD
ENDBRANCH  18  19
ENDBRANCH   4  13
BRANCH   3  21
ATOM     21  C   UNL     1       0.823  -1.759  -0.966  0.00  0.00    +0.014 C 
BRANCH  21  22
ATOM     22  C   UNL     1       2.110  -0.985  -0.676  0.00  0.00    +0.034 C 
BRANCH  22  23
ATOM     23  C   UNL     1       3.276  -1.888  -0.247  0.00  0.00    +0.133 C 
BRANCH  23  25
ATOM     24  F   UNL     1       7.996   0.911   0.971  0.00  0.00    -0.204 F 
ATOM     25  C   UNL     1       4.545  -1.135   0.080  0.00  0.00    +0.004 C 
ATOM     26  C   UNL     1       5.466  -0.891  -0.925  0.00  0.00    +0.000 C 
ATOM     27  C   UNL     1       4.762  -0.705   1.379  0.00  0.00    +0.000 C 
ATOM     28  C   UNL     1       6.638  -0.196  -0.622  0.00  0.00    +0.029 C 
ATOM     29  C   UNL     1       5.933  -0.011   1.681  0.00  0.00    +0.029 C 
ATOM     30  C   UNL     1       6.871   0.244   0.680  0.00  0.00    +0.140 C 
ENDBRANCH  23  25
BRANCH  23  31
ATOM     31  O   UNL     1       2.888  -2.624   0.914  0.00  0.00    -0.380 OA
ATOM     32  H   UNL     1       2.073  -3.116   0.727  0.00  0.00    +0.211 HD
ENDBRANCH  23  31
ENDBRANCH  22  23
ENDBRANCH  21  22
ENDBRANCH   3  21
TORSDOF 8
