REMARK  Name = 5587
REMARK  5 active torsions:
REMARK  status: ('A' for Active; 'I' for Inactive)
REMARK    1  A    between atoms: N_1  and  C_8
REMARK    2  A    between atoms: N_1  and  C_14
REMARK    3  A    between atoms: C_8  and  C_9
REMARK    4  A    between atoms: C_9  and  N_10
REMARK    5  A    between atoms: C_14  and  C_15
REMARK                            x       y       z     vdW  Elec       q    Type
REMARK                         _______ _______ _______ _____ _____    ______ ____
ROOT
ATOM      1  N   UNL     1       0.281   0.185   0.537  0.00  0.00    -0.291 N 
ATOM      2  N   UNL     1       0.275  -2.133   1.085  0.00  0.00    -0.229 NA
ATOM      3  C   UNL     1       0.572  -1.144   0.202  0.00  0.00    +0.132 C 
ATOM      4  C   UNL     1       1.159  -1.387  -1.037  0.00  0.00    +0.034 C 
ATOM      5  C   UNL     1       1.454  -2.701  -1.384  0.00  0.00    +0.004 C 
ATOM      6  C   UNL     1       0.575  -3.397   0.714  0.00  0.00    +0.100 C 
ATOM      7  C   UNL     1       1.159  -3.731  -0.498  0.00  0.00    +0.021 C 
ENDROOT
BRANCH   1   8
ATOM      8  C   UNL     1       1.084   1.279   0.043  0.00  0.00    +0.070 C 
BRANCH   8   9
ATOM      9  C   UNL     1       2.516   1.129   0.540  0.00  0.00    -0.056 C 
BRANCH   9  10
ATOM     10  N   UNL     1       3.350   2.214   0.026  0.00  0.00    +0.385 N 
ATOM     11  C   UNL     1       3.331   2.224  -1.437  0.00  0.00    -0.101 C 
ATOM     12  C   UNL     1       4.721   2.083   0.519  0.00  0.00    -0.101 C 
ATOM     13  H   UNL     1       2.970   3.100   0.360  0.00  0.00    -0.080 HD
ENDBRANCH   9  10
ENDBRANCH   8   9
ENDBRANCH   1   8
BRANCH   1  14
ATOM     14  C   UNL     1      -0.849   0.488   1.417  0.00  0.00    +0.119 C 
BRANCH  14  15
ATOM     15  C   UNL     1      -2.110   0.658   0.616  0.00  0.00    -0.002 C 
ATOM     16  C   UNL     1      -2.455   1.917   0.141  0.00  0.00    -0.003 C 
ATOM     17  C   UNL     1      -2.914  -0.445   0.362  0.00  0.00    -0.003 C 
ATOM     18  C   UNL     1      -3.625   2.075  -0.602  0.00  0.00    -0.000 C 
ATOM     19  C   UNL     1      -4.085  -0.287  -0.381  0.00  0.00    -0.000 C 
ATOM     20  C   UNL     1      -4.440   0.973  -0.863  0.00  0.00    -0.000 C 
ENDBRANCH  14  15
ENDBRANCH   1  14
TORSDOF 5
