REMARK  Name = 6917698
REMARK  10 active torsions:
REMARK  status: ('A' for Active; 'I' for Inactive)
REMARK    1  A    between atoms: N_1  and  C_26
REMARK    2  A    between atoms: C_2  and  N_9
REMARK    3  A    between atoms: C_3  and  O_24
REMARK    4  A    between atoms: C_10  and  C_13
REMARK    5  A    between atoms: C_14  and  O_22
REMARK    6  A    between atoms: C_18  and  N_19
REMARK    7  A    between atoms: C_26  and  C_27
REMARK    8  A    between atoms: C_27  and  C_28
REMARK    9  A    between atoms: C_28  and  O_29
REMARK   10  A    between atoms: O_29  and  C_31
REMARK                            x       y       z     vdW  Elec       q    Type
REMARK                         _______ _______ _______ _____ _____    ______ ____
ROOT
ATOM      1  N   UNL     1      -1.207  -1.056   0.532  0.00  0.00    +0.389 N 
ATOM      2  C   UNL     1       0.729   1.159   0.608  0.00  0.00    +0.095 C 
ATOM      3  C   UNL     1      -0.260   0.953  -0.546  0.00  0.00    +0.112 C 
ATOM      4  C   UNL     1       0.180   0.506   1.878  0.00  0.00    -0.001 C 
ATOM      5  C   UNL     1      -0.646  -0.519  -0.714  0.00  0.00    -0.045 C 
ATOM      6  C   UNL     1      -0.252  -0.948   1.644  0.00  0.00    -0.075 C 
ATOM      7  H   UNL     1      -2.025  -0.496   0.771  0.00  0.00    -0.080 HD
ENDROOT
BRANCH   2   9
ATOM      8  O   UNL     1       3.244   2.177   1.544  0.00  0.00    -0.270 OA
ATOM      9  N   UNL     1       2.042   0.645   0.286  0.00  0.00    -0.300 N 
ATOM     10  C   UNL     1       3.203   1.209   0.791  0.00  0.00    +0.249 C 
ATOM     11  H   UNL     1       2.114  -0.133  -0.313  0.00  0.00    +0.150 HD
BRANCH  10  13
ATOM     12 CL   UNL     1       8.221   1.805  -0.284  0.00  0.00    -0.081 Cl
ATOM     13  C   UNL     1       4.473   0.581   0.344  0.00  0.00    +0.088 C 
ATOM     14  C   UNL     1       4.527  -0.776   0.025  0.00  0.00    +0.144 C 
ATOM     15  C   UNL     1       5.621   1.367   0.245  0.00  0.00    +0.020 C 
ATOM     16  C   UNL     1       5.729  -1.347  -0.393  0.00  0.00    +0.052 C 
ATOM     17  C   UNL     1       6.823   0.796  -0.173  0.00  0.00    +0.071 C 
ATOM     18  C   UNL     1       6.877  -0.561  -0.491  0.00  0.00    +0.055 C 
BRANCH  18  19
ATOM     19  N   UNL     1       8.080  -1.168  -0.918  0.00  0.00    -0.356 N 
ATOM     20  H   UNL     1       8.097  -2.127  -1.139  0.00  0.00    +0.142 HD
ATOM     21  H   UNL     1       8.902  -0.631  -0.996  0.00  0.00    +0.142 HD
ENDBRANCH  18  19
BRANCH  14  22
ATOM     22  O   UNL     1       3.416  -1.560   0.116  0.00  0.00    -0.471 OA
ATOM     23  C   UNL     1       3.565  -2.936  -0.230  0.00  0.00    +0.252 C 
ENDBRANCH  14  22
ENDBRANCH  10  13
ENDBRANCH   2   9
BRANCH   3  24
ATOM     24  O   UNL     1       0.280   1.441  -1.769  0.00  0.00    -0.354 OA
ATOM     25  C   UNL     1       0.230   2.859  -1.831  0.00  0.00    +0.174 C 
ENDBRANCH   3  24
BRANCH   1  26
ATOM     26  C   UNL     1      -1.626  -2.446   0.350  0.00  0.00    -0.073 C 
BRANCH  26  27
ATOM     27  C   UNL     1      -2.954  -2.504  -0.397  0.00  0.00    +0.025 C 
BRANCH  27  28
ATOM     28  C   UNL     1      -4.050  -1.759   0.353  0.00  0.00    +0.203 C 
BRANCH  28  29
ATOM     29  O   UNL     1      -5.255  -1.837  -0.396  0.00  0.00    -0.476 OA
BRANCH  29  31
ATOM     30  F   UNL     1      -8.793   2.339   0.151  0.00  0.00    -0.204 F 
ATOM     31  C   UNL     1      -6.136  -0.796  -0.260  0.00  0.00    +0.139 C 
ATOM     32  C   UNL     1      -6.198  -0.087   0.940  0.00  0.00    +0.039 C 
ATOM     33  C   UNL     1      -6.972  -0.446  -1.321  0.00  0.00    +0.039 C 
ATOM     34  C   UNL     1      -7.095   0.972   1.079  0.00  0.00    +0.033 C 
ATOM     35  C   UNL     1      -7.869   0.613  -1.182  0.00  0.00    +0.033 C 
ATOM     36  C   UNL     1      -7.930   1.322   0.018  0.00  0.00    +0.140 C 
ENDBRANCH  29  31
ENDBRANCH  28  29
ENDBRANCH  27  28
ENDBRANCH  26  27
ENDBRANCH   1  26
TORSDOF 10
