REMARK  Name = 5486971
REMARK  7 active torsions:
REMARK  status: ('A' for Active; 'I' for Inactive)
REMARK    1  A    between atoms: C_1  and  C_2
REMARK    2  A    between atoms: C_1  and  C_6
REMARK    3  A    between atoms: C_1  and  C_11
REMARK    4  A    between atoms: C_2  and  C_3
REMARK    5  A    between atoms: C_6  and  C_8
REMARK    6  A    between atoms: C_8  and  O_9
REMARK    7  A    between atoms: C_11  and  N_12
REMARK                            x       y       z     vdW  Elec       q    Type
REMARK                         _______ _______ _______ _____ _____    ______ ____
ROOT
ATOM      1  C   UNL     1      -0.098  -0.518  -0.427  0.00  0.00    -0.011 C 
ENDROOT
BRANCH   1   2
ATOM      2  C   UNL     1      -1.492  -0.994   0.049  0.00  0.00    -0.002 C 
BRANCH   2   3
ATOM      3  C   UNL     1      -2.566   0.101   0.215  0.00  0.00    -0.000 C 
ATOM      4  C   UNL     1      -2.813   0.878  -1.078  0.00  0.00    -0.000 C 
ATOM      5  C   UNL     1      -2.146   1.068   1.326  0.00  0.00    -0.000 C 
ENDBRANCH   2   3
ENDBRANCH   1   2
BRANCH   1   6
ATOM      6  C   UNL     1       0.584   0.458   0.549  0.00  0.00    +0.107 C 
BRANCH   6   8
ATOM      7  O   UNL     1       2.974   0.838   0.710  0.00  0.00    -0.250 OA
ATOM      8  C   UNL     1       1.930   0.956   0.084  0.00  0.00    +0.314 C 
BRANCH   8   9
ATOM      9  O   UNL     1       1.843   1.548  -1.132  0.00  0.00    -0.480 OA
ATOM     10  H   UNL     1       1.014   1.610  -1.565  0.00  0.00    +0.295 HD
ENDBRANCH   8   9
ENDBRANCH   6   8
ENDBRANCH   1   6
BRANCH   1  11
ATOM     11  C   UNL     1       0.760  -1.765  -0.742  0.00  0.00    -0.086 C 
BRANCH  11  12
ATOM     12  N   UNL     1       1.024  -2.570   0.446  0.00  0.00    +0.380 N 
ATOM     13  H   UNL     1       1.591  -3.379   0.189  0.00  0.00    -0.089 HD
ATOM     14  H   UNL     1       0.140  -2.888   0.845  0.00  0.00    -0.089 HD
ATOM     15  H   UNL     1       1.525  -2.008   1.133  0.00  0.00    -0.089 HD
ENDBRANCH  11  12
ENDBRANCH   1  11
TORSDOF 7
