REMARK  Name = 4097
REMARK  7 active torsions:
REMARK  status: ('A' for Active; 'I' for Inactive)
REMARK    1  A    between atoms: C_2  and  C_16
REMARK    2  A    between atoms: C_16  and  O_17
REMARK    3  A    between atoms: O_17  and  C_18
REMARK    4  A    between atoms: C_18  and  C_19
REMARK    5  A    between atoms: C_19  and  N_20
REMARK    6  A    between atoms: N_20  and  C_22
REMARK    7  A    between atoms: N_20  and  C_24
REMARK                            x       y       z     vdW  Elec       q    Type
REMARK                         _______ _______ _______ _____ _____    ______ ____
ROOT
ATOM      1  O   UNL     1       3.896   0.058   0.533  0.00  0.00    -0.454 OA
ATOM      2  C   UNL     1       1.192  -0.046  -0.575  0.00  0.00    +0.078 C 
ATOM      3  C   UNL     1       1.977   1.230  -0.420  0.00  0.00    +0.023 C 
ATOM      4  C   UNL     1       2.042  -1.269  -0.341  0.00  0.00    +0.041 C 
ATOM      5  C   UNL     1       3.262   1.211   0.132  0.00  0.00    +0.142 C 
ATOM      6  C   UNL     1       3.323  -1.149   0.206  0.00  0.00    +0.145 C 
ATOM      7  C   UNL     1       1.425   2.458  -0.814  0.00  0.00    +0.056 C 
ATOM      8  C   UNL     1       1.554  -2.546  -0.654  0.00  0.00    +0.003 C 
ATOM      9  C   UNL     1       3.978   2.399   0.303  0.00  0.00    +0.037 C 
ATOM     10  C   UNL     1       4.099  -2.285   0.451  0.00  0.00    +0.037 C 
ATOM     11  C   UNL     1       2.143   3.644  -0.649  0.00  0.00    -0.021 C 
ATOM     12  C   UNL     1       2.332  -3.680  -0.417  0.00  0.00    +0.000 C 
ATOM     13  C   UNL     1       3.418   3.614  -0.088  0.00  0.00    -0.001 C 
ATOM     14  C   UNL     1       3.603  -3.550   0.138  0.00  0.00    +0.003 C 
ENDROOT
BRANCH   2  16
ATOM     15  O   UNL     1       0.107  -0.007   1.577  0.00  0.00    -0.245 OA
ATOM     16  C   UNL     1       0.016  -0.048   0.357  0.00  0.00    +0.341 C 
BRANCH  16  17
ATOM     17  O   UNL     1      -1.139  -0.102  -0.366  0.00  0.00    -0.448 OA
BRANCH  17  18
ATOM     18  C   UNL     1      -2.346  -0.110   0.402  0.00  0.00    +0.187 C 
BRANCH  18  19
ATOM     19  C   UNL     1      -3.540  -0.172  -0.529  0.00  0.00    -0.025 C 
BRANCH  19  20
ATOM     20  N   UNL     1      -4.790  -0.142   0.272  0.00  0.00    +0.391 N 
ATOM     21  C   UNL     1      -4.862  -1.353   1.213  0.00  0.00    -0.096 C 
BRANCH  20  22
ATOM     22  C   UNL     1      -4.858   1.131   1.127  0.00  0.00    -0.073 C 
ATOM     23  C   UNL     1      -4.788   2.342   0.222  0.00  0.00    -0.024 C 
ENDBRANCH  20  22
BRANCH  20  24
ATOM     24  C   UNL     1      -6.023  -0.172  -0.640  0.00  0.00    -0.073 C 
ATOM     25  C   UNL     1      -6.021  -1.456  -1.439  0.00  0.00    -0.024 C 
ENDBRANCH  20  24
ENDBRANCH  19  20
ENDBRANCH  18  19
ENDBRANCH  17  18
ENDBRANCH  16  17
ENDBRANCH   2  16
TORSDOF 7
