REMARK  Name = 6992098
REMARK  6 active torsions:
REMARK  status: ('A' for Active; 'I' for Inactive)
REMARK    1  A    between atoms: C_1  and  CA_2
REMARK    2  A    between atoms: C_1  and  C_10
REMARK    3  A    between atoms: CA_2  and  N_3
REMARK    4  A    between atoms: CA_2  and  C_9
REMARK    5  A    between atoms: C_10  and  C_11
REMARK    6  A    between atoms: C_11  and  N_13
REMARK                            x       y       z     vdW  Elec       q    Type
REMARK                         _______ _______ _______ _____ _____    ______ ____
ROOT
ATOM      1  C   UNL     1      -0.763  -0.896   0.743  0.00  0.00    -0.009 C 
ENDROOT
BRANCH   1   2
ATOM      2  CA  UNL     1      -2.212  -0.409   0.609  0.00  0.00    +0.040 C 
BRANCH   2   3
ATOM      3  N   UNL     1      -2.982  -1.479  -0.101  0.00  0.00    +0.389 N 
ATOM      4  H1  UNL     1      -2.813  -2.377   0.353  0.00  0.00    -0.088 HD
ATOM      5  H2  UNL     1      -2.680  -1.527  -1.074  0.00  0.00    -0.088 HD
ATOM      6  H3  UNL     1      -3.978  -1.262  -0.064  0.00  0.00    -0.088 HD
ENDBRANCH   2   3
BRANCH   2   9
ATOM      7  O   UNL     1      -3.469   1.205  -0.604  0.00  0.00    -0.248 OA
ATOM      8  OXT UNL     1      -1.433   1.798   0.235  0.00  0.00    -0.248 OA
ATOM      9  C   UNL     1      -2.387   0.999   0.013  0.00  0.00    +0.345 C 
ENDBRANCH   2   9
ENDBRANCH   1   2
BRANCH   1  10
ATOM     10  C   UNL     1      -0.011  -1.024  -0.589  0.00  0.00    +0.020 C 
BRANCH  10  11
ATOM     11  C   UNL     1       1.403  -1.561  -0.398  0.00  0.00    +0.091 C 
BRANCH  11  13
ATOM     12  O   UNL     1       3.062   0.661  -1.245  0.00  0.00    -0.253 OA
ATOM     13  N   UNL     1       2.202  -0.683   0.445  0.00  0.00    -0.289 N 
ATOM     14  N   UNL     1       3.626   1.034   0.949  0.00  0.00    -0.313 N 
ATOM     15  C   UNL     1       2.964   0.355  -0.058  0.00  0.00    +0.298 C 
ATOM     16  H   UNL     1       2.200  -0.836   1.418  0.00  0.00    +0.151 HD
ATOM     17  H   UNL     1       4.206   1.798   0.729  0.00  0.00    +0.146 HD
ATOM     18  H   UNL     1       3.518   0.752   1.886  0.00  0.00    +0.146 HD
ENDBRANCH  11  13
ENDBRANCH  10  11
ENDBRANCH   1  10
TORSDOF 6
