REMARK  Name = 4173
REMARK  4 active torsions:
REMARK  status: ('A' for Active; 'I' for Inactive)
REMARK    1  A    between atoms: N_1  and  C_10
REMARK    2  A    between atoms: C_4  and  N_9
REMARK    3  A    between atoms: C_10  and  C_11
REMARK    4  A    between atoms: C_11  and  O_12
REMARK                            x       y       z     vdW  Elec       q    Type
REMARK                         _______ _______ _______ _____ _____    ______ ____
ROOT
ATOM      1  N   UNL     1       0.208  -0.428   0.230  0.00  0.00    -0.253 N 
ATOM      2  N   UNL     1      -0.975  -2.246  -0.250  0.00  0.00    -0.230 NA
ATOM      3  C   UNL     1       0.214  -1.786   0.070  0.00  0.00    +0.114 C 
ATOM      4  C   UNL     1      -1.067   0.005  -0.002  0.00  0.00    +0.218 C 
ATOM      5  C   UNL     1      -1.778  -1.135  -0.296  0.00  0.00    +0.140 C 
ATOM      6  C   UNL     1       1.439  -2.594   0.241  0.00  0.00    +0.069 C 
ENDROOT
BRANCH   4   9
ATOM      7  O   UNL     1      -2.660   1.665  -0.157  0.00  0.00    -0.125 OA
ATOM      8  O   UNL     1      -0.605   2.234   0.367  0.00  0.00    -0.125 OA
ATOM      9  N   UNL     1      -1.457   1.347   0.072  0.00  0.00    +0.074 N 
ENDBRANCH   4   9
BRANCH   1  10
ATOM     10  C   UNL     1       1.344   0.393   0.584  0.00  0.00    +0.130 C 
BRANCH  10  11
ATOM     11  C   UNL     1       2.107   0.889  -0.637  0.00  0.00    +0.159 C 
BRANCH  11  12
ATOM     12  O   UNL     1       3.230   1.655  -0.221  0.00  0.00    -0.380 OA
ATOM     13  H   UNL     1       3.714   1.970  -1.001  0.00  0.00    +0.211 HD
ENDBRANCH  11  12
ENDBRANCH  10  11
ENDBRANCH   1  10
TORSDOF 4
