REMARK  Name = 8280
REMARK  1 active torsions:
REMARK  status: ('A' for Active; 'I' for Inactive)
REMARK    1  A    between atoms: C_5  and  C_10
REMARK                            x       y       z     vdW  Elec       q    Type
REMARK                         _______ _______ _______ _____ _____    ______ ____
ROOT
ATOM      1  O   UNL     1      -0.091   1.266   0.491  0.00  0.00    -0.433 OA
ATOM      2  O   UNL     1      -0.479  -2.161  -0.058  0.00  0.00    -0.271 OA
ATOM      3  O   UNL     1       2.134   1.602   0.133  0.00  0.00    -0.226 OA
ATOM      4  N   UNL     1       1.150  -0.492  -0.075  0.00  0.00    -0.191 N 
ATOM      5  C   UNL     1      -1.002   0.154   0.453  0.00  0.00    +0.206 C 
ATOM      6  C   UNL     1      -0.110  -1.004   0.078  0.00  0.00    +0.270 C 
ATOM      7  C   UNL     1      -1.608  -0.042   1.834  0.00  0.00    +0.053 C 
ATOM      8  C   UNL     1       1.171   0.847   0.174  0.00  0.00    +0.411 C 
ATOM      9  C   UNL     1       2.308  -1.280  -0.447  0.00  0.00    +0.126 C 
ENDROOT
BRANCH   5  10
ATOM     10  C   UNL     1      -2.053   0.407  -0.618  0.00  0.00    +0.049 C 
ATOM     11  C   UNL     1      -1.419   0.703  -1.966  0.00  0.00    +0.004 C 
ENDBRANCH   5  10
TORSDOF 1
