REMARK  Name = 5336
REMARK  3 active torsions:
REMARK  status: ('A' for Active; 'I' for Inactive)
REMARK    1  A    between atoms: S_1  and  C_4
REMARK    2  A    between atoms: S_1  and  N_13
REMARK    3  A    between atoms: C_7  and  N_10
REMARK                            x       y       z     vdW  Elec       q    Type
REMARK                         _______ _______ _______ _____ _____    ______ ____
ROOT
ATOM      1  S   UNL     1       0.098   2.144  -0.121  0.00  0.00    +0.075 S 
ATOM      2  O   UNL     1      -0.488   3.272   0.592  0.00  0.00    -0.150 OA
ATOM      3  O   UNL     1       0.571   2.345  -1.486  0.00  0.00    -0.150 OA
ENDROOT
BRANCH   1   4
ATOM      4  N   UNL     1       1.376   1.507   0.843  0.00  0.00    -0.199 N 
ATOM      5  H   UNL     1       1.737   2.015   1.605  0.00  0.00    +0.175 HD
ATOM      6  N   UNL     1       2.564   0.138  -0.666  0.00  0.00    -0.228 NA
ATOM      7  C   UNL     1       1.899   0.211   0.503  0.00  0.00    +0.147 C 
ATOM      8  C   UNL     1       1.700  -0.850   1.364  0.00  0.00    +0.036 C 
ATOM      9  C   UNL     1       2.223  -2.084   0.995  0.00  0.00    +0.005 C 
ATOM     10  C   UNL     1       2.917  -2.208  -0.204  0.00  0.00    +0.021 C 
ATOM     11  C   UNL     1       3.058  -1.077  -0.992  0.00  0.00    +0.100 C 
ENDBRANCH   1   4
BRANCH   1  12
ATOM     12  C   UNL     1      -1.071   0.848  -0.120  0.00  0.00    +0.125 C 
ATOM     13  C   UNL     1      -2.053   0.795   0.870  0.00  0.00    +0.021 C 
ATOM     14  C   UNL     1      -1.024  -0.136  -1.108  0.00  0.00    +0.021 C 
ATOM     15  C   UNL     1      -2.940  -1.224  -0.117  0.00  0.00    +0.042 C 
ATOM     16  C   UNL     1      -2.987  -0.240   0.871  0.00  0.00    +0.015 C 
ATOM     17  C   UNL     1      -1.958  -1.171  -1.107  0.00  0.00    +0.015 C 
BRANCH  15  18
ATOM     18  N   UNL     1      -3.885  -2.271  -0.117  0.00  0.00    -0.357 N 
ATOM     19  H   UNL     1      -4.578  -2.308   0.582  0.00  0.00    +0.142 HD
ATOM     20  H   UNL     1      -3.852  -2.964  -0.815  0.00  0.00    +0.142 HD
ENDBRANCH  15  18
ENDBRANCH   1  12
TORSDOF 3
