REMARK  Name = 2907
REMARK  5 active torsions:
REMARK  status: ('A' for Active; 'I' for Inactive)
REMARK    1  A    between atoms: P_1  and  N_9
REMARK    2  A    between atoms: N_9  and  C_10
REMARK    3  A    between atoms: N_9  and  C_13
REMARK    4  A    between atoms: C_10  and  C_12
REMARK    5  A    between atoms: C_13  and  C_15
REMARK                            x       y       z     vdW  Elec       q    Type
REMARK                         _______ _______ _______ _____ _____    ______ ____
ROOT
ATOM      1  P   UNL     1      -0.872   0.465   0.731  0.00  0.00    +0.348 P 
ATOM      2  O   UNL     1      -1.799  -0.839   1.057  0.00  0.00    -0.292 OA
ATOM      3  O   UNL     1      -0.451   1.131   2.019  0.00  0.00    -0.254 OA
ATOM      4  N   UNL     1      -1.829   1.409  -0.257  0.00  0.00    -0.222 NA
ATOM      5  C   UNL     1      -2.565   0.718  -1.318  0.00  0.00    +0.080 C 
ATOM      6  C   UNL     1      -3.386  -0.434  -0.739  0.00  0.00    +0.050 C 
ATOM      7  C   UNL     1      -2.511  -1.454  -0.013  0.00  0.00    +0.153 C 
ATOM      8  H   UNL     1      -1.226   2.102  -0.700  0.00  0.00    +0.133 HD
ENDROOT
BRANCH   1   9
ATOM      9  N   UNL     1       0.392  -0.090  -0.192  0.00  0.00    -0.196 NA
BRANCH   9  10
ATOM     10  C   UNL     1       1.259   0.922  -0.790  0.00  0.00    +0.099 C 
BRANCH  10  12
ATOM     11 CL   UNL     1       3.242   2.741  -0.454  0.00  0.00    -0.112 Cl
ATOM     12  C   UNL     1       2.195   1.494   0.263  0.00  0.00    +0.113 C 
ENDBRANCH  10  12
ENDBRANCH   9  10
BRANCH   9  13
ATOM     13  C   UNL     1       1.204  -1.160   0.385  0.00  0.00    +0.099 C 
BRANCH  13  15
ATOM     14 CL   UNL     1       3.050  -3.109  -0.001  0.00  0.00    -0.112 Cl
ATOM     15  C   UNL     1       2.072  -1.792  -0.692  0.00  0.00    +0.113 C 
ENDBRANCH  13  15
ENDBRANCH   9  13
ENDBRANCH   1   9
TORSDOF 5
