REMARK  Name = 3121
REMARK  6 active torsions:
REMARK  status: ('A' for Active; 'I' for Inactive)
REMARK    1  A    between atoms: C_1  and  C_3
REMARK    2  A    between atoms: C_1  and  C_6
REMARK    3  A    between atoms: C_1  and  C_9
REMARK    4  A    between atoms: C_3  and  O_4
REMARK    5  A    between atoms: C_6  and  C_7
REMARK    6  A    between atoms: C_9  and  C_10
REMARK                            x       y       z     vdW  Elec       q    Type
REMARK                         _______ _______ _______ _____ _____    ______ ____
ROOT
ATOM      1  C   UNL     1       0.003   0.227   0.313  0.00  0.00    +0.099 C 
ENDROOT
BRANCH   1   3
ATOM      2  O   UNL     1      -0.036  -1.621  -1.281  0.00  0.00    -0.250 OA
ATOM      3  C   UNL     1      -0.007  -1.233  -0.120  0.00  0.00    +0.313 C 
BRANCH   3   4
ATOM      4  O   UNL     1       0.036  -2.083   0.938  0.00  0.00    -0.480 OA
ATOM      5  H   UNL     1       0.057  -1.744   1.811  0.00  0.00    +0.295 HD
ENDBRANCH   3   4
ENDBRANCH   1   3
BRANCH   1   6
ATOM      6  C   UNL     1      -1.272   0.965  -0.137  0.00  0.00    +0.011 C 
BRANCH   6   7
ATOM      7  C   UNL     1      -2.582   0.351   0.374  0.00  0.00    +0.001 C 
ATOM      8  C   UNL     1      -3.829   1.059  -0.133  0.00  0.00    +0.000 C 
ENDBRANCH   6   7
ENDBRANCH   1   6
BRANCH   1   9
ATOM      9  C   UNL     1       1.291   0.912  -0.187  0.00  0.00    +0.011 C 
BRANCH   9  10
ATOM     10  C   UNL     1       2.593   0.328   0.371  0.00  0.00    +0.001 C 
ATOM     11  C   UNL     1       3.804   1.096  -0.138  0.00  0.00    +0.000 C 
ENDBRANCH   9  10
ENDBRANCH   1   9
TORSDOF 6
