REMARK  Name = 3827
REMARK  0 active torsions:
REMARK  status: ('A' for Active; 'I' for Inactive)
REMARK                            x       y       z     vdW  Elec       q    Type
REMARK                         _______ _______ _______ _____ _____    ______ ____
ROOT
ATOM      1  S   UNL     1       2.305  -3.280  -0.103  0.00  0.00    -0.084 S 
ATOM      2  O   UNL     1       3.567  -1.178   1.628  0.00  0.00    -0.290 OA
ATOM      3  N   UNL     1      -4.134   0.057   0.417  0.00  0.00    +0.386 N 
ATOM      4  C   UNL     1      -1.421  -0.043  -0.563  0.00  0.00    -0.048 C 
ATOM      5  C   UNL     1      -2.314  -1.250  -0.653  0.00  0.00    -0.001 C 
ATOM      6  C   UNL     1      -2.162   1.264  -0.487  0.00  0.00    -0.001 C 
ATOM      7  C   UNL     1      -3.382  -1.209   0.445  0.00  0.00    -0.073 C 
ATOM      8  C   UNL     1      -3.236   1.209   0.605  0.00  0.00    -0.073 C 
ATOM      9  C   UNL     1      -0.084  -0.127  -0.520  0.00  0.00    -0.008 C 
ATOM     10  C   UNL     1       0.653   1.164  -0.431  0.00  0.00    -0.004 C 
ATOM     11  C   UNL     1       0.595  -1.405  -0.530  0.00  0.00    +0.009 C 
ATOM     12  C   UNL     1       1.556   1.399   0.625  0.00  0.00    -0.014 C 
ATOM     13  C   UNL     1      -5.180   0.053   1.440  0.00  0.00    -0.101 C 
ATOM     14  C   UNL     1       1.729  -1.692   0.215  0.00  0.00    +0.064 C 
ATOM     15  C   UNL     1       1.770   0.370   1.704  0.00  0.00    +0.096 C 
ATOM     16  C   UNL     1       2.454  -0.881   1.188  0.00  0.00    +0.183 C 
ATOM     17  C   UNL     1       0.490   2.144  -1.426  0.00  0.00    -0.000 C 
ATOM     18  C   UNL     1       0.199  -2.521  -1.339  0.00  0.00    +0.008 C 
ATOM     19  C   UNL     1       2.266   2.609   0.669  0.00  0.00    -0.004 C 
ATOM     20  C   UNL     1       1.040  -3.600  -1.198  0.00  0.00    +0.036 C 
ATOM     21  C   UNL     1       1.201   3.342  -1.367  0.00  0.00    -0.000 C 
ATOM     22  C   UNL     1       2.087   3.575  -0.320  0.00  0.00    -0.000 C 
ATOM     23  H   UNL     1      -4.574   0.144  -0.499  0.00  0.00    -0.080 HD
ENDROOT
TORSDOF 0
