REMARK  Name = 1935
REMARK  1 active torsions:
REMARK  status: ('A' for Active; 'I' for Inactive)
REMARK    1  A    between atoms: C_8  and  N_15
REMARK                            x       y       z     vdW  Elec       q    Type
REMARK                         _______ _______ _______ _____ _____    ______ ____
ROOT
ATOM      1  N   UNL     1       0.018  -1.550  -0.029  0.00  0.00    -0.410 NA
ATOM      2  C   UNL     1      -3.704   0.448  -0.339  0.00  0.00    +0.005 C 
ATOM      3  C   UNL     1      -2.494   1.300   0.042  0.00  0.00    +0.030 C 
ATOM      4  C   UNL     1      -3.651  -0.903   0.364  0.00  0.00    +0.008 C 
ATOM      5  C   UNL     1      -1.197   0.540  -0.009  0.00  0.00    +0.013 C 
ATOM      6  C   UNL     1      -2.407  -1.675  -0.068  0.00  0.00    +0.059 C 
ATOM      7  C   UNL     1      -1.147  -0.852  -0.015  0.00  0.00    +0.105 C 
ATOM      8  C   UNL     1       0.018   1.225   0.014  0.00  0.00    +0.027 C 
ATOM      9  C   UNL     1       1.232   0.526   0.006  0.00  0.00    +0.109 C 
ATOM     10  C   UNL     1       1.184  -0.880  -0.017  0.00  0.00    +0.118 C 
ATOM     11  C   UNL     1       2.468   1.195   0.022  0.00  0.00    -0.014 C 
ATOM     12  C   UNL     1       2.389  -1.577  -0.026  0.00  0.00    +0.028 C 
ATOM     13  C   UNL     1       3.659   0.474   0.013  0.00  0.00    -0.004 C 
ATOM     14  C   UNL     1       3.619  -0.914  -0.011  0.00  0.00    +0.002 C 
ENDROOT
BRANCH   8  15
ATOM     15  N   UNL     1       0.013   2.644   0.052  0.00  0.00    -0.360 N 
ATOM     16  H   UNL     1      -0.842   3.133   0.058  0.00  0.00    +0.142 HD
ATOM     17  H   UNL     1       0.863   3.139   0.073  0.00  0.00    +0.142 HD
ENDBRANCH   8  15
TORSDOF 1
