REMARK  Name = 2170
REMARK  0 active torsions:
REMARK  status: ('A' for Active; 'I' for Inactive)
REMARK                            x       y       z     vdW  Elec       q    Type
REMARK                         _______ _______ _______ _____ _____    ______ ____
ROOT
ATOM      1 CL   UNL     1      -2.380  -3.767   1.482  0.00  0.00    -0.082 Cl
ATOM      2  O   UNL     1       1.777  -0.733  -1.359  0.00  0.00    -0.451 OA
ATOM      3  N   UNL     1      -1.661   1.248  -0.322  0.00  0.00    -0.288 N 
ATOM      4  N   UNL     1      -4.426   1.919  -0.101  0.00  0.00    +0.386 N 
ATOM      5  N   UNL     1       0.593   1.593  -0.098  0.00  0.00    -0.388 NA
ATOM      6  C   UNL     1      -2.051   2.560   0.190  0.00  0.00    +0.070 C 
ATOM      7  C   UNL     1      -2.638   0.597  -1.194  0.00  0.00    +0.070 C 
ATOM      8  C   UNL     1      -3.439   2.485   0.823  0.00  0.00    -0.060 C 
ATOM      9  C   UNL     1      -4.010   0.578  -0.522  0.00  0.00    -0.060 C 
ATOM     10  C   UNL     1      -0.411   0.758  -0.159  0.00  0.00    +0.186 C 
ATOM     11  C   UNL     1      -0.277  -0.726  -0.065  0.00  0.00    +0.079 C 
ATOM     12  C   UNL     1       0.784  -1.396  -0.679  0.00  0.00    +0.149 C 
ATOM     13  C   UNL     1       1.928   1.205   0.081  0.00  0.00    +0.149 C 
ATOM     14  C   UNL     1      -1.255  -1.468   0.609  0.00  0.00    +0.018 C 
ATOM     15  C   UNL     1       2.512   0.104  -0.555  0.00  0.00    +0.171 C 
ATOM     16  C   UNL     1       0.852  -2.792  -0.657  0.00  0.00    +0.038 C 
ATOM     17  C   UNL     1      -1.175  -2.862   0.650  0.00  0.00    +0.058 C 
ATOM     18  C   UNL     1      -0.126  -3.523   0.013  0.00  0.00    +0.015 C 
ATOM     19  C   UNL     1       2.748   2.018   0.875  0.00  0.00    +0.088 C 
ATOM     20  C   UNL     1       3.876  -0.173  -0.422  0.00  0.00    +0.039 C 
ATOM     21  C   UNL     1       4.107   1.735   1.031  0.00  0.00    -0.018 C 
ATOM     22  C   UNL     1       4.672   0.641   0.379  0.00  0.00    -0.001 C 
ATOM     23  H   UNL     1      -4.505   2.521  -0.921  0.00  0.00    -0.084 HD
ATOM     24  H   UNL     1      -5.328   1.856   0.371  0.00  0.00    -0.084 HD
ENDROOT
TORSDOF 0
