REMARK  Name = 6262
REMARK  7 active torsions:
REMARK  status: ('A' for Active; 'I' for Inactive)
REMARK    1  A    between atoms: CA_1  and  N_2
REMARK    2  A    between atoms: CA_1  and  C_7
REMARK    3  A    between atoms: CA_1  and  C_10
REMARK    4  A    between atoms: C_7  and  O_8
REMARK    5  A    between atoms: C_10  and  C_11
REMARK    6  A    between atoms: C_11  and  C_12
REMARK    7  A    between atoms: C_12  and  N_13
REMARK                            x       y       z     vdW  Elec       q    Type
REMARK                         _______ _______ _______ _____ _____    ______ ____
ROOT
ATOM      1  CA  UNL     1       1.122   0.743   0.523  0.00  0.00    +0.036 C 
ENDROOT
BRANCH   1   2
ATOM      2  N   UNL     1       1.296   1.835  -0.435  0.00  0.00    +0.389 N 
ATOM      3  H1  UNL     1       0.911   2.694  -0.044  0.00  0.00    -0.088 HD
ATOM      4  H2  UNL     1       0.810   1.607  -1.302  0.00  0.00    -0.088 HD
ATOM      5  H3  UNL     1       2.290   1.964  -0.626  0.00  0.00    -0.088 HD
ENDBRANCH   1   2
BRANCH   1   7
ATOM      6  OXT UNL     1       2.148  -0.617  -1.226  0.00  0.00    -0.253 OA
ATOM      7  C   UNL     1       1.706  -0.518  -0.089  0.00  0.00    +0.293 C 
BRANCH   7   8
ATOM      8  O   UNL     1       1.688  -1.562   0.783  0.00  0.00    -0.482 OA
ATOM      9  H   UNL     1       1.341  -1.446   1.645  0.00  0.00    +0.295 HD
ENDBRANCH   7   8
ENDBRANCH   1   7
BRANCH   1  10
ATOM     10  C   UNL     1      -0.342   0.560   0.952  0.00  0.00    -0.013 C 
BRANCH  10  11
ATOM     11  C   UNL     1      -1.298   0.132  -0.170  0.00  0.00    -0.025 C 
BRANCH  11  12
ATOM     12  C   UNL     1      -2.713  -0.080   0.369  0.00  0.00    -0.086 C 
BRANCH  12  13
ATOM     13  N   UNL     1      -3.608  -0.493  -0.706  0.00  0.00    +0.380 N 
ATOM     14  H   UNL     1      -4.547  -0.631  -0.332  0.00  0.00    -0.089 HD
ATOM     15  H   UNL     1      -3.272  -1.367  -1.111  0.00  0.00    -0.089 HD
ATOM     16  H   UNL     1      -3.631   0.229  -1.426  0.00  0.00    -0.089 HD
ENDBRANCH  12  13
ENDBRANCH  11  12
ENDBRANCH  10  11
ENDBRANCH   1  10
TORSDOF 7
