REMARK  Name = 2578
REMARK  5 active torsions:
REMARK  status: ('A' for Active; 'I' for Inactive)
REMARK    1  A    between atoms: N_2  and  N_7
REMARK    2  A    between atoms: N_2  and  C_8
REMARK    3  A    between atoms: N_3  and  C_11
REMARK    4  A    between atoms: C_8  and  C_10
REMARK    5  A    between atoms: C_11  and  C_13
REMARK                            x       y       z     vdW  Elec       q    Type
REMARK                         _______ _______ _______ _____ _____    ______ ____
ROOT
ATOM      1  O   UNL     1       0.310   1.577   0.890  0.00  0.00    -0.251 OA
ATOM      2  N   UNL     1      -0.800  -0.404   0.426  0.00  0.00    -0.163 N 
ATOM      3  N   UNL     1       1.558  -0.329   0.580  0.00  0.00    -0.286 N 
ATOM      4  C   UNL     1       0.352   0.366   0.649  0.00  0.00    +0.320 C 
ATOM      5  H   UNL     1       1.542  -1.294   0.386  0.00  0.00    +0.151 HD
ENDROOT
BRANCH   2   7
ATOM      6  O   UNL     1      -1.770  -2.421  -0.042  0.00  0.00    -0.078 OA
ATOM      7  N   UNL     1      -0.682  -1.862   0.135  0.00  0.00    +0.054 NA
ENDBRANCH   2   7
BRANCH   2   8
ATOM      8  C   UNL     1      -2.130   0.191   0.465  0.00  0.00    +0.134 C 
BRANCH   8  10
ATOM      9 CL   UNL     1      -4.205   1.429  -0.804  0.00  0.00    -0.112 Cl
ATOM     10  C   UNL     1      -2.580   0.705  -0.892  0.00  0.00    +0.118 C 
ENDBRANCH   8  10
ENDBRANCH   2   8
BRANCH   3  11
ATOM     11  C   UNL     1       2.830   0.324   0.785  0.00  0.00    +0.108 C 
BRANCH  11  13
ATOM     12 CL   UNL     1       3.692  -0.440  -1.689  0.00  0.00    -0.112 Cl
ATOM     13  C   UNL     1       3.425   0.863  -0.505  0.00  0.00    +0.116 C 
ENDBRANCH  11  13
ENDBRANCH   3  11
TORSDOF 5
