REMARK  Name = 54677470
REMARK  2 active torsions:
REMARK  status: ('A' for Active; 'I' for Inactive)
REMARK    1  A    between atoms: C_7  and  C_18
REMARK    2  A    between atoms: C_8  and  O_24
REMARK                            x       y       z     vdW  Elec       q    Type
REMARK                         _______ _______ _______ _____ _____    ______ ____
ROOT
ATOM      1  S   UNL     1       1.665  -1.726   0.251  0.00  0.00    +0.077 S 
ATOM      2  O   UNL     1       1.249  -1.761   1.641  0.00  0.00    -0.150 OA
ATOM      3  O   UNL     1       2.000  -2.942  -0.462  0.00  0.00    -0.150 OA
ATOM      4  N   UNL     1       0.532  -0.810  -0.678  0.00  0.00    -0.181 N 
ATOM      5  C   UNL     1       3.056  -0.654   0.184  0.00  0.00    +0.128 C 
ATOM      6  C   UNL     1       2.810   0.723   0.154  0.00  0.00    +0.054 C 
ATOM      7  C   UNL     1       0.352   0.536  -0.195  0.00  0.00    +0.156 C 
ATOM      8  C   UNL     1       1.425   1.254   0.193  0.00  0.00    +0.154 C 
ATOM      9  C   UNL     1       4.342  -1.191   0.143  0.00  0.00    +0.020 C 
ATOM     10  C   UNL     1       0.628  -0.934  -2.162  0.00  0.00    +0.139 C 
ATOM     11  C   UNL     1       3.923   1.574   0.097  0.00  0.00    +0.004 C 
ATOM     12  C   UNL     1       5.429  -0.326   0.082  0.00  0.00    +0.001 C 
ATOM     13  C   UNL     1       5.222   1.053   0.060  0.00  0.00    +0.000 C 
ENDROOT
BRANCH   7  18
ATOM     14  S   UNL     1      -4.223  -1.317   0.317  0.00  0.00    -0.056 S 
ATOM     15  O   UNL     1      -1.236   2.224  -0.446  0.00  0.00    -0.268 OA
ATOM     16  N   UNL     1      -1.950   0.022  -0.015  0.00  0.00    -0.259 N 
ATOM     17  N   UNL     1      -4.084   1.220  -0.155  0.00  0.00    -0.223 NA
ATOM     18  C   UNL     1      -1.027   1.033  -0.235  0.00  0.00    +0.269 C 
ATOM     19  C   UNL     1      -3.361   0.136   0.017  0.00  0.00    +0.166 C 
ATOM     20  C   UNL     1      -5.692  -0.439   0.213  0.00  0.00    +0.029 C 
ATOM     21  C   UNL     1      -5.420   0.889  -0.043  0.00  0.00    +0.103 C 
ATOM     22  C   UNL     1      -6.989  -1.121   0.392  0.00  0.00    +0.040 C 
ATOM     23  H   UNL     1      -1.582  -0.879   0.137  0.00  0.00    +0.157 HD
ENDBRANCH   7  18
BRANCH   8  24
ATOM     24  O   UNL     1       1.350   2.556   0.649  0.00  0.00    -0.504 OA
ATOM     25  H   UNL     1       2.130   3.008   0.907  0.00  0.00    +0.292 HD
ENDBRANCH   8  24
TORSDOF 2
