REMARK  Name = 54680692
REMARK  4 active torsions:
REMARK  status: ('A' for Active; 'I' for Inactive)
REMARK    1  A    between atoms: C_3  and  C_14
REMARK    2  A    between atoms: C_4  and  O_12
REMARK    3  A    between atoms: C_14  and  C_15
REMARK    4  A    between atoms: C_14  and  C_21
REMARK                            x       y       z     vdW  Elec       q    Type
REMARK                         _______ _______ _______ _____ _____    ______ ____
ROOT
ATOM      1  O   UNL     1      -2.022   1.106   1.376  0.00  0.00    -0.421 OA
ATOM      2  O   UNL     1      -0.159   2.317   1.864  0.00  0.00    -0.245 OA
ATOM      3  C   UNL     1       0.030   0.779   0.057  0.00  0.00    +0.091 A 
ATOM      4  C   UNL     1      -0.595  -0.146  -0.697  0.00  0.00    +0.139 A 
ATOM      5  C   UNL     1      -1.993  -0.501  -0.446  0.00  0.00    +0.068 A 
ATOM      6  C   UNL     1      -0.698   1.466   1.163  0.00  0.00    +0.345 A 
ATOM      7  C   UNL     1      -2.668   0.138   0.588  0.00  0.00    +0.152 A 
ATOM      8  C   UNL     1      -2.695  -1.456  -1.194  0.00  0.00    +0.006 C 
ATOM      9  C   UNL     1      -4.000  -0.142   0.894  0.00  0.00    +0.038 C 
ATOM     10  C   UNL     1      -4.032  -1.750  -0.900  0.00  0.00    +0.000 C 
ATOM     11  C   UNL     1      -4.683  -1.093   0.143  0.00  0.00    +0.003 C 
ENDROOT
BRANCH   4  12
ATOM     12  O   UNL     1      -0.010  -0.828  -1.743  0.00  0.00    -0.506 OA
ATOM     13  H   UNL     1       0.883  -0.660  -1.971  0.00  0.00    +0.292 HD
ENDBRANCH   4  12
BRANCH   3  14
ATOM     14  C   UNL     1       1.462   1.215  -0.101  0.00  0.00    +0.054 C 
BRANCH  14  15
ATOM     15  C   UNL     1       2.409   0.053   0.139  0.00  0.00    -0.018 C 
ATOM     16  C   UNL     1       2.009  -1.021   0.933  0.00  0.00    -0.004 C 
ATOM     17  C   UNL     1       3.680   0.060  -0.437  0.00  0.00    -0.004 C 
ATOM     18  C   UNL     1       2.880  -2.088   1.153  0.00  0.00    -0.000 C 
ATOM     19  C   UNL     1       4.551  -1.007  -0.217  0.00  0.00    -0.000 C 
ATOM     20  C   UNL     1       4.151  -2.081   0.578  0.00  0.00    -0.000 C 
ENDBRANCH  14  15
BRANCH  14  21
ATOM     21  C   UNL     1       1.669   1.906  -1.464  0.00  0.00    +0.009 C 
ATOM     22  C   UNL     1       0.713   3.072  -1.690  0.00  0.00    +0.001 C 
ENDBRANCH  14  21
ENDBRANCH   3  14
TORSDOF 4
