REMARK  Name = 89594
REMARK  1 active torsions:
REMARK  status: ('A' for Active; 'I' for Inactive)
REMARK    1  A    between atoms: C_2  and  C_9
REMARK                            x       y       z     vdW  Elec       q    Type
REMARK                         _______ _______ _______ _____ _____    ______ ____
ROOT
ATOM      1  N   UNL     1      -1.702  -0.796  -0.034  0.00  0.00    +0.389 N 
ATOM      2  C   UNL     1      -0.885   0.309  -0.571  0.00  0.00    -0.033 C 
ATOM      3  C   UNL     1      -1.496   1.582   0.044  0.00  0.00    -0.019 C 
ATOM      4  C   UNL     1      -2.686   1.098   0.860  0.00  0.00    -0.025 C 
ATOM      5  C   UNL     1      -3.028  -0.238   0.233  0.00  0.00    -0.077 C 
ATOM      6  C   UNL     1      -1.762  -1.950  -0.922  0.00  0.00    -0.100 C 
ATOM      7  H   UNL     1      -1.278  -1.161   0.819  0.00  0.00    -0.079 HD
ENDROOT
BRANCH   2   9
ATOM      8  N   UNL     1       2.297  -0.709   1.217  0.00  0.00    -0.243 NA
ATOM      9  C   UNL     1       0.587   0.154  -0.251  0.00  0.00    -0.022 C 
ATOM     10  C   UNL     1       1.557   0.703  -1.079  0.00  0.00    -0.003 C 
ATOM     11  C   UNL     1       1.001  -0.536   0.874  0.00  0.00    +0.093 C 
ATOM     12  C   UNL     1       2.901   0.545  -0.759  0.00  0.00    +0.020 C 
ATOM     13  C   UNL     1       3.216  -0.163   0.390  0.00  0.00    +0.099 C 
ENDBRANCH   2   9
TORSDOF 1
