REMARK  Name = 1110
REMARK  5 active torsions:
REMARK  status: ('A' for Active; 'I' for Inactive)
REMARK    1  A    between atoms: C_1  and  C_3
REMARK    2  A    between atoms: C_1  and  C_6
REMARK    3  A    between atoms: C_3  and  O_4
REMARK    4  A    between atoms: C_6  and  C_8
REMARK    5  A    between atoms: C_8  and  O_9
REMARK                            x       y       z     vdW  Elec       q    Type
REMARK                         _______ _______ _______ _____ _____    ______ ____
ROOT
ATOM      1  C   UNL     1       0.538  -0.544   0.005  0.00  0.00    +0.121 C 
ENDROOT
BRANCH   1   3
ATOM      2  O   UNL     1       2.138   1.267  -0.008  0.00  0.00    -0.250 OA
ATOM      3  C   UNL     1       1.919   0.063  -0.005  0.00  0.00    +0.314 C 
BRANCH   3   4
ATOM      4  O   UNL     1       2.900  -0.874   0.011  0.00  0.00    -0.480 OA
ATOM      5  H   UNL     1       2.678  -1.784   0.013  0.00  0.00    +0.295 HD
ENDBRANCH   3   4
ENDBRANCH   1   3
BRANCH   1   6
ATOM      6  C   UNL     1      -0.534   0.534  -0.006  0.00  0.00    +0.121 C 
BRANCH   6   8
ATOM      7  O   UNL     1      -2.146  -1.265  -0.012  0.00  0.00    -0.250 OA
ATOM      8  C   UNL     1      -1.920  -0.062   0.002  0.00  0.00    +0.314 C 
BRANCH   8   9
ATOM      9  O   UNL     1      -2.895   0.881   0.012  0.00  0.00    -0.480 OA
ATOM     10  H   UNL     1      -2.667   1.790   0.023  0.00  0.00    +0.295 HD
ENDBRANCH   8   9
ENDBRANCH   6   8
ENDBRANCH   1   6
TORSDOF 5
