REMARK  Name = 4158
REMARK  4 active torsions:
REMARK  status: ('A' for Active; 'I' for Inactive)
REMARK    1  A    between atoms: C_1  and  C_3
REMARK    2  A    between atoms: C_1  and  C_10
REMARK    3  A    between atoms: C_1  and  C_17
REMARK    4  A    between atoms: C_17  and  O_18
REMARK                            x       y       z     vdW  Elec       q    Type
REMARK                         _______ _______ _______ _____ _____    ______ ____
ROOT
ATOM      1  C   UNL     1      -0.043  -0.411  -0.672  0.00  0.00    +0.102 C 
ENDROOT
BRANCH   1   3
ATOM      2  N   UNL     1      -1.312   1.643  -0.316  0.00  0.00    +0.386 N 
ATOM      3  C   UNL     1      -1.242   0.218   0.034  0.00  0.00    -0.047 C 
ATOM      4  C   UNL     1      -2.539  -0.503  -0.361  0.00  0.00    -0.021 C 
ATOM      5  C   UNL     1      -3.757   0.164   0.272  0.00  0.00    -0.004 C 
ATOM      6  C   UNL     1      -3.767   1.659  -0.030  0.00  0.00    -0.023 C 
ATOM      7  C   UNL     1      -2.436   2.307   0.345  0.00  0.00    -0.082 C 
ATOM      8  H   UNL     1      -1.424   1.730  -1.326  0.00  0.00    -0.084 HD
ATOM      9  H   UNL     1      -0.450   2.090  -0.004  0.00  0.00    -0.084 HD
ENDBRANCH   1   3
BRANCH   1  10
ATOM     10  C   UNL     1       1.269   0.266  -0.305  0.00  0.00    -0.014 C 
ATOM     11  C   UNL     1       1.435   0.749   0.977  0.00  0.00    -0.004 C 
ATOM     12  C   UNL     1       2.254   0.378  -1.266  0.00  0.00    -0.004 C 
ATOM     13  C   UNL     1       2.638   1.371   1.313  0.00  0.00    -0.000 C 
ATOM     14  C   UNL     1       3.456   1.000  -0.929  0.00  0.00    -0.000 C 
ATOM     15  C   UNL     1       3.648   1.496   0.360  0.00  0.00    -0.000 C 
ENDBRANCH   1  10
BRANCH   1  17
ATOM     16  O   UNL     1      -0.104  -2.783  -1.261  0.00  0.00    -0.250 OA
ATOM     17  C   UNL     1       0.003  -1.912  -0.407  0.00  0.00    +0.319 C 
BRANCH  17  18
ATOM     18  O   UNL     1       0.204  -2.133   0.927  0.00  0.00    -0.444 OA
ATOM     19  C   UNL     1       0.293  -3.507   1.320  0.00  0.00    +0.256 C 
ENDBRANCH  17  18
ENDBRANCH   1  17
TORSDOF 4
