REMARK  Name = 4075
REMARK  4 active torsions:
REMARK  status: ('A' for Active; 'I' for Inactive)
REMARK    1  A    between atoms: C_1  and  C_13
REMARK    2  A    between atoms: C_2  and  N_7
REMARK    3  A    between atoms: C_4  and  O_10
REMARK    4  A    between atoms: C_13  and  O_14
REMARK                            x       y       z     vdW  Elec       q    Type
REMARK                         _______ _______ _______ _____ _____    ______ ____
ROOT
ATOM      1  C   UNL     1       0.487   0.153   0.020  0.00  0.00    +0.110 C 
ATOM      2  C   UNL     1      -1.899   0.532   0.059  0.00  0.00    +0.042 C 
ATOM      3  C   UNL     1      -0.597   1.030   0.085  0.00  0.00    +0.024 C 
ATOM      4  C   UNL     1       0.267  -1.221  -0.072  0.00  0.00    +0.140 C 
ATOM      5  C   UNL     1      -2.119  -0.842  -0.033  0.00  0.00    +0.017 C 
ATOM      6  C   UNL     1      -1.036  -1.719  -0.099  0.00  0.00    +0.038 C 
ENDROOT
BRANCH   2   7
ATOM      7  N   UNL     1      -2.994   1.419   0.127  0.00  0.00    -0.357 N 
ATOM      8  H   UNL     1      -2.839   2.388   0.192  0.00  0.00    +0.142 HD
ATOM      9  H   UNL     1      -3.914   1.067   0.109  0.00  0.00    +0.142 HD
ENDBRANCH   2   7
BRANCH   4  10
ATOM     10  O   UNL     1       1.311  -2.094  -0.139  0.00  0.00    -0.505 OA
ATOM     11  H   UNL     1       2.192  -1.773  -0.122  0.00  0.00    +0.292 HD
ENDBRANCH   4  10
BRANCH   1  13
ATOM     12  O   UNL     1       2.829   0.116   0.507  0.00  0.00    -0.245 OA
ATOM     13  C   UNL     1       1.839   0.693   0.047  0.00  0.00    +0.341 C 
BRANCH  13  14
ATOM     14  O   UNL     1       1.913   1.935  -0.501  0.00  0.00    -0.477 OA
ATOM     15  H   UNL     1       1.141   2.344  -0.841  0.00  0.00    +0.295 HD
ENDBRANCH  13  14
ENDBRANCH   1  13
TORSDOF 4
