REMARK  Name = 216239
REMARK  6 active torsions:
REMARK  status: ('A' for Active; 'I' for Inactive)
REMARK    1  A    between atoms: C_1  and  N_9
REMARK    2  A    between atoms: C_2  and  O_24
REMARK    3  A    between atoms: N_8  and  C_14
REMARK    4  A    between atoms: C_15  and  C_23
REMARK    5  A    between atoms: O_24  and  C_26
REMARK    6  A    between atoms: C_28  and  C_33
REMARK                            x       y       z     vdW  Elec       q    Type
REMARK                         _______ _______ _______ _____ _____    ______ ____
ROOT
ATOM      1  C   UNL     1      -0.577  -1.714  -0.429  0.00  0.00    +0.052 C 
ATOM      2  C   UNL     1      -3.287  -2.171  -0.083  0.00  0.00    +0.145 C 
ATOM      3  C   UNL     1      -1.242  -2.545  -1.314  0.00  0.00    +0.018 C 
ATOM      4  C   UNL     1      -1.237  -1.106   0.626  0.00  0.00    +0.018 C 
ATOM      5  C   UNL     1      -2.607  -2.775  -1.140  0.00  0.00    +0.039 C 
ATOM      6  C   UNL     1      -2.602  -1.337   0.801  0.00  0.00    +0.039 C 
ENDROOT
BRANCH   1   9
ATOM      7  O   UNL     1       1.313  -0.037   1.163  0.00  0.00    -0.252 OA
ATOM      8  N   UNL     1       2.972  -0.718  -0.344  0.00  0.00    -0.268 N 
ATOM      9  N   UNL     1       0.807  -1.481  -0.606  0.00  0.00    -0.268 N 
ATOM     10  C   UNL     1       1.655  -0.679   0.176  0.00  0.00    +0.308 C 
ATOM     11  H   UNL     1       3.099  -1.277  -1.145  0.00  0.00    +0.156 HD
ATOM     12  H   UNL     1       1.228  -1.936  -1.370  0.00  0.00    +0.156 HD
BRANCH   8  14
ATOM     13 CL   UNL     1       7.785   2.053   1.678  0.00  0.00    -0.082 Cl
ATOM     14  C   UNL     1       4.114  -0.069   0.126  0.00  0.00    +0.052 C 
ATOM     15  C   UNL     1       6.473   0.416  -0.062  0.00  0.00    +0.083 C 
ATOM     16  C   UNL     1       5.332  -0.234  -0.532  0.00  0.00    +0.019 C 
ATOM     17  C   UNL     1       4.036   0.746   1.256  0.00  0.00    +0.016 C 
ATOM     18  C   UNL     1       6.396   1.231   1.068  0.00  0.00    +0.062 C 
ATOM     19  C   UNL     1       5.177   1.396   1.726  0.00  0.00    +0.013 C 
BRANCH  15  23
ATOM     20  F   UNL     1       7.645  -0.612  -1.876  0.00  0.00    -0.166 F 
ATOM     21  F   UNL     1       8.293   1.372  -1.285  0.00  0.00    -0.166 F 
ATOM     22  F   UNL     1       8.728  -0.336  -0.011  0.00  0.00    -0.166 F 
ATOM     23  C   UNL     1       7.759   0.215  -0.797  0.00  0.00    +0.419 C 
ENDBRANCH  15  23
ENDBRANCH   8  14
ENDBRANCH   1   9
BRANCH   2  24
ATOM     24  O   UNL     1      -4.618  -2.397   0.088  0.00  0.00    -0.453 OA
BRANCH  24  26
ATOM     25  N   UNL     1      -7.046   0.876   0.904  0.00  0.00    -0.239 NA
ATOM     26  C   UNL     1      -5.426  -1.306   0.360  0.00  0.00    +0.149 C 
ATOM     27  C   UNL     1      -5.268  -0.150  -0.374  0.00  0.00    +0.061 C 
ATOM     28  C   UNL     1      -6.102   0.912  -0.064  0.00  0.00    +0.137 C 
ATOM     29  C   UNL     1      -6.372  -1.401   1.359  0.00  0.00    +0.058 C 
ATOM     30  C   UNL     1      -7.156  -0.282   1.592  0.00  0.00    +0.102 C 
BRANCH  28  33
ATOM     31  O   UNL     1      -5.171   2.290  -1.717  0.00  0.00    -0.268 OA
ATOM     32  N   UNL     1      -6.872   3.192  -0.425  0.00  0.00    -0.298 N 
ATOM     33  C   UNL     1      -5.996   2.164  -0.794  0.00  0.00    +0.264 C 
ATOM     34  C   UNL     1      -6.904   4.485  -1.071  0.00  0.00    +0.111 C 
ATOM     35  H   UNL     1      -7.500   3.026   0.315  0.00  0.00    +0.150 HD
ENDBRANCH  28  33
ENDBRANCH  24  26
ENDBRANCH   2  24
TORSDOF 6
