REMARK  Name = 5950
REMARK  3 active torsions:
REMARK  status: ('A' for Active; 'I' for Inactive)
REMARK    1  A    between atoms: CA_1  and  N_3
REMARK    2  A    between atoms: CA_1  and  C_8
REMARK    3  A    between atoms: C_8  and  O_9
REMARK                            x       y       z     vdW  Elec       q    Type
REMARK                         _______ _______ _______ _____ _____    ______ ____
ROOT
ATOM      1  CA  ALA A   1      -0.709  -0.114   0.394  0.00  0.00    +0.036 C 
ATOM      2  CB  ALA A   1      -1.335  -1.200  -0.470  0.00  0.00    -0.013 C 
ENDROOT
BRANCH   1   3
ATOM      3  N   ALA A   1      -1.411   1.151   0.182  0.00  0.00    +0.389 N 
ATOM      4  H1  ALA A   1      -2.396   1.037   0.421  0.00  0.00    -0.088 HD
ATOM      5  H2  ALA A   1      -1.328   1.426  -0.797  0.00  0.00    -0.088 HD
ATOM      6  H3  ALA A   1      -0.998   1.872   0.774  0.00  0.00    -0.088 HD
ENDBRANCH   1   3
BRANCH   1   8
ATOM      7  OXT ALA A   1       1.249   1.117  -0.405  0.00  0.00    -0.253 OA
ATOM      8  C   ALA A   1       0.747   0.090   0.031  0.00  0.00    +0.293 C 
BRANCH   8   9
ATOM      9  O   ALA A   1       1.457  -1.044   0.268  0.00  0.00    -0.482 OA
ATOM     10  H   ALA A   1       1.026  -1.805   0.603  0.00  0.00    +0.295 HD
ENDBRANCH   8   9
ENDBRANCH   1   8
TORSDOF 3
