REMARK  Name = 52195
REMARK  6 active torsions:
REMARK  status: ('A' for Active; 'I' for Inactive)
REMARK    1  A    between atoms: C_1  and  C_16
REMARK    2  A    between atoms: C_1  and  C_19
REMARK    3  A    between atoms: C_19  and  C_20
REMARK    4  A    between atoms: C_20  and  C_21
REMARK    5  A    between atoms: C_21  and  N_22
REMARK    6  A    between atoms: N_22  and  C_25
REMARK                            x       y       z     vdW  Elec       q    Type
REMARK                         _______ _______ _______ _____ _____    ______ ____
ROOT
ATOM      1  C   UNL     1       0.870  -0.041   1.069  0.00  0.00    +0.106 C 
ATOM      2  C   UNL     1       1.315   1.141   0.210  0.00  0.00    -0.011 C 
ATOM      3  C   UNL     1       1.096  -1.211   0.114  0.00  0.00    -0.011 C 
ATOM      4  C   UNL     1       1.745   0.692  -1.060  0.00  0.00    -0.004 C 
ATOM      5  C   UNL     1       1.611  -0.748  -1.119  0.00  0.00    -0.004 C 
ATOM      6  C   UNL     1       1.333   2.488   0.538  0.00  0.00    -0.004 C 
ATOM      7  C   UNL     1       0.863  -2.561   0.331  0.00  0.00    -0.004 C 
ATOM      8  C   UNL     1       2.198   1.593  -2.010  0.00  0.00    -0.000 C 
ATOM      9  C   UNL     1       1.898  -1.636  -2.143  0.00  0.00    -0.000 C 
ATOM     10  C   UNL     1       1.790   3.395  -0.420  0.00  0.00    -0.000 C 
ATOM     11  C   UNL     1       1.152  -3.455  -0.702  0.00  0.00    -0.000 C 
ATOM     12  C   UNL     1       2.218   2.951  -1.682  0.00  0.00    -0.000 C 
ATOM     13  C   UNL     1       1.665  -2.997  -1.926  0.00  0.00    -0.000 C 
ENDROOT
BRANCH   1  16
ATOM     14  O   UNL     1       1.300  -0.096   3.424  0.00  0.00    -0.275 OA
ATOM     15  N   UNL     1       3.073  -0.391   1.987  0.00  0.00    -0.328 N 
ATOM     16  C   UNL     1       1.747  -0.181   2.282  0.00  0.00    +0.226 C 
ATOM     17  H   UNL     1       3.729  -0.496   2.714  0.00  0.00    +0.145 HD
ATOM     18  H   UNL     1       3.367  -0.437   1.048  0.00  0.00    +0.145 HD
ENDBRANCH   1  16
BRANCH   1  19
ATOM     19  C   UNL     1      -0.598   0.081   1.480  0.00  0.00    +0.015 C 
BRANCH  19  20
ATOM     20  C   UNL     1      -1.508   0.166   0.258  0.00  0.00    -0.022 C 
BRANCH  20  21
ATOM     21  C   UNL     1      -2.974   0.254   0.676  0.00  0.00    -0.082 C 
BRANCH  21  22
ATOM     22  N   UNL     1      -3.831   0.355  -0.499  0.00  0.00    +0.385 N 
ATOM     23  H   UNL     1      -3.689  -0.466  -1.088  0.00  0.00    -0.084 HD
ATOM     24  H   UNL     1      -3.587   1.205  -1.008  0.00  0.00    -0.084 HD
BRANCH  22  25
ATOM     25  C   UNL     1      -5.234   0.430  -0.115  0.00  0.00    -0.062 C 
ATOM     26  C   UNL     1      -5.633  -0.815   0.673  0.00  0.00    -0.023 C 
ATOM     27  C   UNL     1      -6.095   0.587  -1.364  0.00  0.00    -0.023 C 
ENDBRANCH  22  25
ENDBRANCH  21  22
ENDBRANCH  20  21
ENDBRANCH  19  20
ENDBRANCH   1  19
TORSDOF 6
