REMARK  Name = 1054
REMARK  5 active torsions:
REMARK  status: ('A' for Active; 'I' for Inactive)
REMARK    1  A    between atoms: C_2  and  C_10
REMARK    2  A    between atoms: C_3  and  C_13
REMARK    3  A    between atoms: C_4  and  O_8
REMARK    4  A    between atoms: C_10  and  O_11
REMARK    5  A    between atoms: C_13  and  O_14
REMARK                            x       y       z     vdW  Elec       q    Type
REMARK                         _______ _______ _______ _____ _____    ______ ____
ROOT
ATOM      1  N   UNL     1       1.304  -1.696   0.314  0.00  0.00    -0.245 NA
ATOM      2  C   UNL     1      -0.326   0.536  -0.104  0.00  0.00    +0.042 C 
ATOM      3  C   UNL     1      -0.894  -0.695   0.207  0.00  0.00    +0.027 C 
ATOM      4  C   UNL     1       1.056   0.652  -0.206  0.00  0.00    +0.145 C 
ATOM      5  C   UNL     1       1.820  -0.483   0.010  0.00  0.00    +0.093 C 
ATOM      6  C   UNL     1      -0.043  -1.770   0.404  0.00  0.00    +0.097 C 
ATOM      7  C   UNL     1       3.309  -0.414  -0.086  0.00  0.00    +0.055 C 
ENDROOT
BRANCH   4   8
ATOM      8  O   UNL     1       1.638   1.842  -0.509  0.00  0.00    -0.505 OA
ATOM      9  H   UNL     1       1.107   2.601  -0.652  0.00  0.00    +0.292 HD
ENDBRANCH   4   8
BRANCH   2  10
ATOM     10  C   UNL     1      -1.195   1.732  -0.327  0.00  0.00    +0.166 C 
BRANCH  10  11
ATOM     11  O   UNL     1      -1.395   2.403   0.909  0.00  0.00    -0.377 OA
ATOM     12  H   UNL     1      -1.958   3.180   0.768  0.00  0.00    +0.211 HD
ENDBRANCH  10  11
ENDBRANCH   2  10
BRANCH   3  13
ATOM     13  C   UNL     1      -2.367  -0.877   0.328  0.00  0.00    +0.165 C 
BRANCH  13  14
ATOM     14  O   UNL     1      -2.907  -1.232  -0.940  0.00  0.00    -0.377 OA
ATOM     15  H   UNL     1      -3.867  -1.350  -0.861  0.00  0.00    +0.211 HD
ENDBRANCH  13  14
ENDBRANCH   3  13
TORSDOF 5
