REMARK  Name = 4991
REMARK  2 active torsions:
REMARK  status: ('A' for Active; 'I' for Inactive)
REMARK    1  A    between atoms: C_2  and  O_8
REMARK    2  A    between atoms: O_8  and  C_11
REMARK                            x       y       z     vdW  Elec       q    Type
REMARK                         _______ _______ _______ _____ _____    ______ ____
ROOT
ATOM      1  N   UNL     1       2.626  -0.723  -0.052  0.00  0.00    -0.298 N 
ATOM      2  C   UNL     1       0.511   0.311  -0.409  0.00  0.00    +0.147 C 
ATOM      3  C   UNL     1       1.290  -0.819  -0.393  0.00  0.00    +0.156 C 
ATOM      4  C   UNL     1       3.148   0.516   0.266  0.00  0.00    +0.062 C 
ATOM      5  C   UNL     1       1.010   1.549  -0.097  0.00  0.00    +0.036 C 
ATOM      6  C   UNL     1       2.353   1.657   0.247  0.00  0.00    +0.019 C 
ATOM      7  C   UNL     1       3.469  -1.907  -0.029  0.00  0.00    +0.113 C 
ENDROOT
BRANCH   2   8
ATOM      8  O   UNL     1      -0.838   0.193  -0.759  0.00  0.00    -0.413 OA
BRANCH   8  11
ATOM      9  O   UNL     1      -1.298  -0.141   1.486  0.00  0.00    -0.226 OA
ATOM     10  N   UNL     1      -3.030  -0.155  -0.066  0.00  0.00    -0.242 N 
ATOM     11  C   UNL     1      -1.691  -0.044   0.324  0.00  0.00    +0.409 C 
ATOM     12  C   UNL     1      -4.064  -0.403   0.929  0.00  0.00    +0.118 C 
ATOM     13  C   UNL     1      -3.486  -0.035  -1.447  0.00  0.00    +0.118 C 
ENDBRANCH   8  11
ENDBRANCH   2   8
TORSDOF 2
