REMARK  Name = 4768
REMARK  8 active torsions:
REMARK  status: ('A' for Active; 'I' for Inactive)
REMARK    1  A    between atoms: N_1  and  C_3
REMARK    2  A    between atoms: N_1  and  C_13
REMARK    3  A    between atoms: N_1  and  C_20
REMARK    4  A    between atoms: C_3  and  C_5
REMARK    5  A    between atoms: C_5  and  O_6
REMARK    6  A    between atoms: O_6  and  C_7
REMARK    7  A    between atoms: C_13  and  C_14
REMARK    8  A    between atoms: C_20  and  C_22
REMARK                            x       y       z     vdW  Elec       q    Type
REMARK                         _______ _______ _______ _____ _____    ______ ____
ROOT
ATOM      1  N   UNL     1      -0.994   1.102  -0.063  0.00  0.00    +0.394 N 
ATOM      2  H   UNL     1      -0.542   0.739   0.776  0.00  0.00    -0.079 HD
ENDROOT
BRANCH   1   3
ATOM      3  C   UNL     1      -0.250   2.275  -0.519  0.00  0.00    -0.013 C 
ATOM      4  C   UNL     1      -0.880   2.831  -1.797  0.00  0.00    -0.019 C 
BRANCH   3   5
ATOM      5  C   UNL     1       1.215   1.892  -0.729  0.00  0.00    +0.185 C 
BRANCH   5   6
ATOM      6  O   UNL     1       1.756   1.384   0.485  0.00  0.00    -0.478 OA
BRANCH   6   7
ATOM      7  C   UNL     1       2.782   0.483   0.374  0.00  0.00    +0.138 C 
ATOM      8  C   UNL     1       3.647   0.555  -0.712  0.00  0.00    +0.037 C 
ATOM      9  C   UNL     1       2.949  -0.494   1.349  0.00  0.00    +0.037 C 
ATOM     10  C   UNL     1       4.692  -0.362  -0.825  0.00  0.00    +0.003 C 
ATOM     11  C   UNL     1       3.993  -1.411   1.236  0.00  0.00    +0.003 C 
ATOM     12  C   UNL     1       4.864  -1.346   0.149  0.00  0.00    +0.000 C 
ENDBRANCH   6   7
ENDBRANCH   5   6
ENDBRANCH   3   5
ENDBRANCH   1   3
BRANCH   1  13
ATOM     13  C   UNL     1      -0.979   0.057  -1.086  0.00  0.00    -0.050 C 
BRANCH  13  14
ATOM     14  C   UNL     1      -1.686  -1.190  -0.624  0.00  0.00    -0.043 C 
ATOM     15  C   UNL     1      -0.967  -2.180   0.032  0.00  0.00    -0.006 C 
ATOM     16  C   UNL     1      -3.046  -1.333  -0.862  0.00  0.00    -0.006 C 
ATOM     17  C   UNL     1      -1.621  -3.335   0.460  0.00  0.00    -0.000 C 
ATOM     18  C   UNL     1      -3.700  -2.489  -0.434  0.00  0.00    -0.000 C 
ATOM     19  C   UNL     1      -2.987  -3.489   0.227  0.00  0.00    -0.000 C 
ENDBRANCH  13  14
ENDBRANCH   1  13
BRANCH   1  20
ATOM     20  C   UNL     1      -2.370   1.468   0.274  0.00  0.00    -0.059 C 
BRANCH  20  22
ATOM     21 CL   UNL     1      -4.044   3.011   1.748  0.00  0.00    -0.116 Cl
ATOM     22  C   UNL     1      -2.374   2.573   1.318  0.00  0.00    +0.072 C 
ENDBRANCH  20  22
ENDBRANCH   1  20
TORSDOF 8
