REMARK  Name = 60877
REMARK  3 active torsions:
REMARK  status: ('A' for Active; 'I' for Inactive)
REMARK    1  A    between atoms: N_3  and  C_14
REMARK    2  A    between atoms: C_16  and  C_17
REMARK    3  A    between atoms: C_17  and  O_18
REMARK                            x       y       z     vdW  Elec       q    Type
REMARK                         _______ _______ _______ _____ _____    ______ ____
ROOT
ATOM      1  F   UNL     1       2.320   2.559  -0.227  0.00  0.00    -0.199 F 
ATOM      2  O   UNL     1       1.166  -2.642   0.299  0.00  0.00    -0.193 OA
ATOM      3  N   UNL     1       0.399  -0.474   0.111  0.00  0.00    -0.177 N 
ATOM      4  N   UNL     1       2.739  -1.014   0.107  0.00  0.00    -0.304 NA
ATOM      5  N   UNL     1       4.343   0.664  -0.091  0.00  0.00    -0.330 N 
ATOM      6  C   UNL     1       0.699   0.862  -0.025  0.00  0.00    +0.113 C 
ATOM      7  C   UNL     1       1.421  -1.442   0.179  0.00  0.00    +0.276 C 
ATOM      8  C   UNL     1       1.961   1.271  -0.094  0.00  0.00    +0.200 C 
ATOM      9  C   UNL     1       3.032   0.254  -0.022  0.00  0.00    +0.220 C 
ATOM     10  H   UNL     1       5.069   0.000  -0.045  0.00  0.00    +0.145 HD
ATOM     11  H   UNL     1       4.555   1.620  -0.188  0.00  0.00    +0.145 HD
ENDROOT
BRANCH   3  14
ATOM     12  S   UNL     1      -3.337  -1.094  -0.883  0.00  0.00    -0.105 S 
ATOM     13  O   UNL     1      -1.732   0.143   0.827  0.00  0.00    -0.325 OA
ATOM     14  C   UNL     1      -0.974  -0.887   0.184  0.00  0.00    +0.218 C 
ATOM     15  C   UNL     1      -1.566  -1.111  -1.200  0.00  0.00    +0.112 C 
ATOM     16  C   UNL     1      -3.124  -0.161   0.656  0.00  0.00    +0.194 C 
BRANCH  16  17
ATOM     17  C   UNL     1      -3.908   1.138   0.628  0.00  0.00    +0.178 C 
BRANCH  17  18
ATOM     18  O   UNL     1      -3.438   1.934  -0.448  0.00  0.00    -0.379 OA
ATOM     19  H   UNL     1      -3.934   2.767  -0.475  0.00  0.00    +0.211 HD
ENDBRANCH  17  18
ENDBRANCH  16  17
ENDBRANCH   3  14
TORSDOF 3
