REMARK  Name = 2342
REMARK  7 active torsions:
REMARK  status: ('A' for Active; 'I' for Inactive)
REMARK    1  A    between atoms: C_3  and  C_18
REMARK    2  A    between atoms: C_5  and  O_27
REMARK    3  A    between atoms: C_13  and  O_23
REMARK    4  A    between atoms: C_14  and  O_25
REMARK    5  A    between atoms: N_17  and  C_19
REMARK    6  A    between atoms: N_17  and  C_21
REMARK    7  A    between atoms: O_27  and  C_29
REMARK                            x       y       z     vdW  Elec       q    Type
REMARK                         _______ _______ _______ _____ _____    ______ ____
ROOT
ATOM      1  N   UNL     1       0.167  -1.467   0.788  0.00  0.00    +0.391 N 
ATOM      2  C   UNL     1      -0.480  -0.159   0.504  0.00  0.00    -0.031 C 
ATOM      3  C   UNL     1       2.366  -0.677   0.030  0.00  0.00    +0.096 C 
ATOM      4  C   UNL     1       0.276   0.511  -0.672  0.00  0.00    +0.028 C 
ATOM      5  C   UNL     1       1.772   0.670  -0.379  0.00  0.00    +0.174 C 
ATOM      6  C   UNL     1       1.574  -1.309   1.178  0.00  0.00    -0.064 C 
ATOM      7  C   UNL     1      -0.576  -2.205   1.813  0.00  0.00    -0.072 C 
ATOM      8  C   UNL     1      -1.981  -0.291   0.239  0.00  0.00    -0.042 C 
ATOM      9  C   UNL     1      -1.932  -2.616   1.245  0.00  0.00    +0.003 C 
ATOM     10  C   UNL     1      -2.669  -1.459   0.624  0.00  0.00    -0.027 C 
ATOM     11  C   UNL     1      -2.724   0.771  -0.302  0.00  0.00    +0.033 C 
ATOM     12  C   UNL     1      -4.049  -1.573   0.397  0.00  0.00    +0.035 C 
ATOM     13  C   UNL     1      -4.099   0.654  -0.513  0.00  0.00    +0.172 C 
ATOM     14  C   UNL     1      -4.761  -0.520  -0.172  0.00  0.00    +0.172 C 
ATOM     15  H   UNL     1       0.148  -2.008  -0.076  0.00  0.00    -0.079 HD
ENDROOT
BRANCH   3  18
ATOM     16  O   UNL     1       4.094  -0.308   1.598  0.00  0.00    -0.275 OA
ATOM     17  N   UNL     1       4.745  -0.625  -0.611  0.00  0.00    -0.280 N 
ATOM     18  C   UNL     1       3.807  -0.520   0.416  0.00  0.00    +0.227 C 
BRANCH  17  19
ATOM     19  C   UNL     1       6.177  -0.493  -0.375  0.00  0.00    +0.093 C 
ATOM     20  C   UNL     1       6.631   0.946  -0.512  0.00  0.00    +0.023 C 
ENDBRANCH  17  19
BRANCH  17  21
ATOM     21  C   UNL     1       4.360  -0.876  -1.998  0.00  0.00    +0.093 C 
ATOM     22  C   UNL     1       4.305  -2.360  -2.298  0.00  0.00    +0.023 C 
ENDBRANCH  17  21
ENDBRANCH   3  18
BRANCH  13  23
ATOM     23  O   UNL     1      -4.784   1.702  -1.052  0.00  0.00    -0.468 OA
ATOM     24  C   UNL     1      -5.323   2.659  -0.143  0.00  0.00    +0.253 C 
ENDBRANCH  13  23
BRANCH  14  25
ATOM     25  O   UNL     1      -6.100  -0.648  -0.377  0.00  0.00    -0.468 OA
ATOM     26  C   UNL     1      -6.516  -1.173  -1.637  0.00  0.00    +0.253 C 
ENDBRANCH  14  25
BRANCH   5  27
ATOM     27  O   UNL     1       1.937   1.613   0.681  0.00  0.00    -0.452 OA
BRANCH  27  29
ATOM     28  O   UNL     1       1.345   3.408  -0.648  0.00  0.00    -0.250 OA
ATOM     29  C   UNL     1       1.437   2.860   0.442  0.00  0.00    +0.317 C 
ATOM     30  C   UNL     1       1.002   3.484   1.734  0.00  0.00    +0.121 C 
ENDBRANCH  27  29
ENDBRANCH   5  27
TORSDOF 7
