4993
  -OEChem-10051719103D

 30 31  0     0  0  0  0  0  0999 V2000
    5.3314    0.1055    0.0311 Cl  0  0  0  0  0  0  0  0  0  0  0  0
   -2.7207   -0.9466    0.2971 N   0  0  0  0  0  0  0  0  0  0  0  0
   -2.6995    1.4132   -0.1912 N   0  0  0  0  0  0  0  0  0  0  0  0
   -0.6530    2.5708   -0.4429 N   0  0  0  0  0  0  0  0  0  0  0  0
   -4.7234    0.2531    0.0612 N   0  0  0  0  0  0  0  0  0  0  0  0
   -0.6251    0.2127    0.0446 C   0  0  0  0  0  0  0  0  0  0  0  0
   -1.3717   -0.9236    0.2842 C   0  0  0  0  0  0  0  0  0  0  0  0
   -0.7093   -2.2366    0.5517 C   0  0  0  0  0  0  0  0  0  0  0  0
    0.8215    0.1877    0.0412 C   0  0  0  0  0  0  0  0  0  0  0  0
   -1.3513    1.3636   -0.1892 C   0  0  0  0  0  0  0  0  0  0  0  0
    1.5116   -0.0688   -1.1435 C   0  0  0  0  0  0  0  0  0  0  0  0
    1.5260    0.4194    1.2227 C   0  0  0  0  0  0  0  0  0  0  0  0
   -0.4628   -3.0276   -0.7300 C   0  0  0  0  0  0  0  0  0  0  0  0
   -3.3115    0.2393    0.0555 C   0  0  0  0  0  0  0  0  0  0  0  0
    2.9063   -0.0940   -1.1466 C   0  0  0  0  0  0  0  0  0  0  0  0
    2.9207    0.3943    1.2193 C   0  0  0  0  0  0  0  0  0  0  0  0
    3.6108    0.1376    0.0348 C   0  0  0  0  0  0  0  0  0  0  0  0
    0.2217   -2.1290    1.1173 H   0  0  0  0  0  0  0  0  0  0  0  0
   -1.3654   -2.8320    1.2004 H   0  0  0  0  0  0  0  0  0  0  0  0
    0.9788   -0.2439   -2.0752 H   0  0  0  0  0  0  0  0  0  0  0  0
    1.0033    0.6208    2.1549 H   0  0  0  0  0  0  0  0  0  0  0  0
   -1.4014   -3.2104   -1.2648 H   0  0  0  0  0  0  0  0  0  0  0  0
   -0.0184   -3.9990   -0.4900 H   0  0  0  0  0  0  0  0  0  0  0  0
    0.2134   -2.5113   -1.4148 H   0  0  0  0  0  0  0  0  0  0  0  0
    3.4308   -0.2938   -2.0775 H   0  0  0  0  0  0  0  0  0  0  0  0
    3.4565    0.5763    2.1475 H   0  0  0  0  0  0  0  0  0  0  0  0
    0.2471    2.7167   -0.0035 H   0  0  0  0  0  0  0  0  0  0  0  0
   -1.2225    3.3900   -0.6186 H   0  0  0  0  0  0  0  0  0  0  0  0
   -5.2280   -0.6038    0.2412 H   0  0  0  0  0  0  0  0  0  0  0  0
   -5.2127    1.1196   -0.1154 H   0  0  0  0  0  0  0  0  0  0  0  0
  1 17  1  0  0  0  0
  2  7  1  0  0  0  0
  2 14  2  0  0  0  0
  3 10  2  0  0  0  0
  3 14  1  0  0  0  0
  4 10  1  0  0  0  0
  4 27  1  0  0  0  0
  4 28  1  0  0  0  0
  5 14  1  0  0  0  0
  5 29  1  0  0  0  0
  5 30  1  0  0  0  0
  6  7  2  0  0  0  0
  6  9  1  0  0  0  0
  6 10  1  0  0  0  0
  7  8  1  0  0  0  0
  8 13  1  0  0  0  0
  8 18  1  0  0  0  0
  8 19  1  0  0  0  0
  9 11  2  0  0  0  0
  9 12  1  0  0  0  0
 11 15  1  0  0  0  0
 11 20  1  0  0  0  0
 12 16  2  0  0  0  0
 12 21  1  0  0  0  0
 13 22  1  0  0  0  0
 13 23  1  0  0  0  0
 13 24  1  0  0  0  0
 15 17  2  0  0  0  0
 15 25  1  0  0  0  0
 16 17  1  0  0  0  0
 16 26  1  0  0  0  0
M  END
> <DATABASE_ID>
DB00205

> <DATABASE_NAME>
drugbank

> <ORIGINAL_SOURCE>
PUBCHEM

> <ORIGINAL_SOURCE_URL>
https://pubchem.ncbi.nlm.nih.gov/rest/pug/compound/inchikey/WKSAUQYGYAYLPV-UHFFFAOYSA-N/SDF?record_type=3d

> <SMILES>
CCC1=C(C(N)=NC(N)=N1)C1=CC=C(Cl)C=C1

> <INCHI_IDENTIFIER>
InChI=1S/C12H13ClN4/c1-2-9-10(11(14)17-12(15)16-9)7-3-5-8(13)6-4-7/h3-6H,2H2,1H3,(H4,14,15,16,17)

> <INCHI_KEY>
WKSAUQYGYAYLPV-UHFFFAOYSA-N

> <FORMULA>
C12H13ClN4

> <MOLECULAR_WEIGHT>
248.711

> <EXACT_MASS>
248.082874143

> <JCHEM_ACCEPTOR_COUNT>
4

> <JCHEM_AVERAGE_POLARIZABILITY>
25.794130782433673

> <JCHEM_BIOAVAILABILITY>
1

> <JCHEM_DONOR_COUNT>
2

> <JCHEM_FORMAL_CHARGE>
0

> <JCHEM_GHOSE_FILTER>
1

> <JCHEM_IUPAC>
5-(4-chlorophenyl)-6-ethylpyrimidine-2,4-diamine

> <ALOGPS_LOGP>
2.62

> <JCHEM_LOGP>
2.748303154333333

> <ALOGPS_LOGS>
-3.14

> <JCHEM_MDDR_LIKE_RULE>
0

> <JCHEM_NUMBER_OF_RINGS>
2

> <JCHEM_PHYSIOLOGICAL_CHARGE>
1

> <JCHEM_PKA_STRONGEST_ACIDIC>
17.222043955485603

> <JCHEM_PKA_STRONGEST_BASIC>
7.773183579634736

> <JCHEM_POLAR_SURFACE_AREA>
77.82

> <JCHEM_REFRACTIVITY>
71.54200000000002

> <JCHEM_ROTATABLE_BOND_COUNT>
2

> <JCHEM_RULE_OF_FIVE>
1

> <ALOGPS_SOLUBILITY>
1.79e-01 g/l

> <JCHEM_TRADITIONAL_IUPAC>
pyrimethamine

> <JCHEM_VEBER_RULE>
0

> <DRUGBANK_ID>
DB00205

> <SECONDARY_ACCESSION_NUMBERS>
APRD00599

> <DRUG_GROUPS>
approved; investigational; vet_approved

> <GENERIC_NAME>
Pyrimethamine

> <SYNONYMS>
2,4-Diamino-5-(4-chlorophenyl)-6-ethylpyrimidine; 2,4-Diamino-5-(P-chlorophenyl)-6-ethylpyrimidine; 2,4-Diamino-5-chlorophenyl-6-ethylpyrimidine; 5-(4-Chlorophenyl)-6-ethyl-2,4-diaminopyrimidine; 5-(4-Chlorophenyl)-6-ethyl-2,4-pyrimidinediamine; 5-(4'-Chlorophenyl)-2,4-diamino-6-ethylpyrimidine; CD; Chloridine; Chloridyn; Diaminopyritamin; Ethylpyrimidine; Pirimetamina; Primethamine; PyrimÃ©thamine; Pyrimethamine; Pyrimethaminum

> <PRODUCTS>
Daraprim; Fansidar; Fansidar Tablets; Pyrimethamine Leucovorin

> <SALTS>
Pyrimethamine hydrochloride

$$$$
