REMARK  Name = 5281881
REMARK  7 active torsions:
REMARK  status: ('A' for Active; 'I' for Inactive)
REMARK    1  A    between atoms: C_2  and  C_20
REMARK    2  A    between atoms: C_10  and  C_19
REMARK    3  A    between atoms: C_20  and  C_21
REMARK    4  A    between atoms: C_21  and  N_22
REMARK    5  A    between atoms: N_23  and  C_30
REMARK    6  A    between atoms: C_30  and  C_31
REMARK    7  A    between atoms: C_31  and  O_32
REMARK                            x       y       z     vdW  Elec       q    Type
REMARK                         _______ _______ _______ _____ _____    ______ ____
ROOT
ATOM      1  S   UNL     1       4.528  -0.263  -1.593  0.00  0.00    -0.087 S 
ATOM      2  C   UNL     1       1.121   1.556   0.263  0.00  0.00    -0.028 C 
ATOM      3  C   UNL     1       2.247   0.818   0.210  0.00  0.00    -0.003 C 
ATOM      4  C   UNL     1       2.151  -0.624  -0.142  0.00  0.00    +0.006 C 
ATOM      5  C   UNL     1       3.562   1.494   0.372  0.00  0.00    +0.006 C 
ATOM      6  C   UNL     1       3.149  -1.205  -0.948  0.00  0.00    +0.029 C 
ATOM      7  C   UNL     1       4.659   1.062  -0.397  0.00  0.00    +0.029 C 
ATOM      8  C   UNL     1       1.115  -1.440   0.346  0.00  0.00    +0.004 C 
ATOM      9  C   UNL     1       3.757   2.524   1.309  0.00  0.00    +0.000 C 
ATOM     10  C   UNL     1       1.053  -2.794   0.012  0.00  0.00    +0.071 C 
ATOM     11  C   UNL     1       3.073  -2.565  -1.283  0.00  0.00    +0.006 C 
ATOM     12  C   UNL     1       5.907   1.687  -0.250  0.00  0.00    +0.006 C 
ATOM     13  C   UNL     1       2.028  -3.354  -0.806  0.00  0.00    +0.004 C 
ATOM     14  C   UNL     1       5.005   3.135   1.453  0.00  0.00    +0.000 C 
ATOM     15  C   UNL     1       6.077   2.720   0.670  0.00  0.00    +0.001 C 
ENDROOT
BRANCH  10  19
ATOM     16  F   UNL     1       0.001  -4.940   0.120  0.00  0.00    -0.166 F 
ATOM     17  F   UNL     1      -0.117  -3.696   1.893  0.00  0.00    -0.166 F 
ATOM     18  F   UNL     1      -1.288  -3.189   0.133  0.00  0.00    -0.166 F 
ATOM     19  C   UNL     1      -0.062  -3.638   0.529  0.00  0.00    +0.419 C 
ENDBRANCH  10  19
BRANCH   2  20
ATOM     20  C   UNL     1      -0.253   0.985   0.114  0.00  0.00    +0.003 C 
BRANCH  20  21
ATOM     21  C   UNL     1      -1.201   2.000  -0.523  0.00  0.00    -0.073 C 
BRANCH  21  22
ATOM     22  N   UNL     1      -2.533   1.420  -0.681  0.00  0.00    +0.384 N 
ATOM     23  N   UNL     1      -5.391   1.380  -0.248  0.00  0.00    +0.386 N 
ATOM     24  C   UNL     1      -3.102   1.058   0.624  0.00  0.00    -0.101 C 
ATOM     25  C   UNL     1      -3.425   2.346  -1.390  0.00  0.00    -0.101 C 
ATOM     26  C   UNL     1      -4.501   0.453   0.461  0.00  0.00    -0.101 C 
ATOM     27  C   UNL     1      -4.823   1.740  -1.552  0.00  0.00    -0.101 C 
ATOM     28  H   UNL     1      -2.443   0.571  -1.238  0.00  0.00    -0.080 HD
ATOM     29  H   UNL     1      -5.481   2.230   0.309  0.00  0.00    -0.080 HD
BRANCH  23  30
ATOM     30  C   UNL     1      -6.724   0.801  -0.404  0.00  0.00    -0.045 C 
BRANCH  30  31
ATOM     31  C   UNL     1      -7.357   0.537   0.953  0.00  0.00    +0.115 C 
BRANCH  31  32
ATOM     32  O   UNL     1      -8.655  -0.008   0.754  0.00  0.00    -0.384 OA
ATOM     33  H   UNL     1      -9.068  -0.181   1.614  0.00  0.00    +0.210 HD
ENDBRANCH  31  32
ENDBRANCH  30  31
ENDBRANCH  23  30
ENDBRANCH  21  22
ENDBRANCH  20  21
ENDBRANCH   2  20
TORSDOF 7
