REMARK  Name = 5311017
REMARK  5 active torsions:
REMARK  status: ('A' for Active; 'I' for Inactive)
REMARK    1  A    between atoms: N_1  and  C_4
REMARK    2  A    between atoms: N_1  and  C_13
REMARK    3  A    between atoms: C_4  and  C_6
REMARK    4  A    between atoms: C_6  and  C_7
REMARK    5  A    between atoms: C_13  and  C_14
REMARK                            x       y       z     vdW  Elec       q    Type
REMARK                         _______ _______ _______ _____ _____    ______ ____
ROOT
ATOM      1  N   UNL     1      -0.684   0.194   0.189  0.00  0.00    +0.390 N 
ATOM      2  C   UNL     1      -1.042   1.235   1.150  0.00  0.00    -0.100 C 
ATOM      3  H   UNL     1      -0.730  -0.709   0.660  0.00  0.00    -0.079 HD
ENDROOT
BRANCH   1   4
ATOM      4  C   UNL     1       0.683   0.400  -0.299  0.00  0.00    -0.053 C 
ATOM      5  C   UNL     1       0.751   1.769  -0.976  0.00  0.00    -0.023 C 
BRANCH   4   6
ATOM      6  C   UNL     1       1.671   0.272   0.874  0.00  0.00    +0.006 C 
BRANCH   6   7
ATOM      7  C   UNL     1       3.082  -0.050   0.444  0.00  0.00    -0.024 C 
ATOM      8  C   UNL     1       3.471  -1.375   0.328  0.00  0.00    -0.004 C 
ATOM      9  C   UNL     1       3.962   0.985   0.172  0.00  0.00    -0.004 C 
ATOM     10  C   UNL     1       4.774  -1.673  -0.070  0.00  0.00    -0.000 C 
ATOM     11  C   UNL     1       5.266   0.687  -0.226  0.00  0.00    -0.000 C 
ATOM     12  C   UNL     1       5.671  -0.642  -0.347  0.00  0.00    -0.000 C 
ENDBRANCH   6   7
ENDBRANCH   4   6
ENDBRANCH   1   4
BRANCH   1  13
ATOM     13  C   UNL     1      -1.625   0.180  -0.929  0.00  0.00    -0.050 C 
BRANCH  13  14
ATOM     14  C   UNL     1      -3.035  -0.086  -0.472  0.00  0.00    -0.043 C 
ATOM     15  C   UNL     1      -3.495  -1.393  -0.401  0.00  0.00    -0.006 C 
ATOM     16  C   UNL     1      -3.855   0.980  -0.128  0.00  0.00    -0.006 C 
ATOM     17  C   UNL     1      -4.801  -1.640   0.023  0.00  0.00    -0.000 C 
ATOM     18  C   UNL     1      -5.161   0.733   0.296  0.00  0.00    -0.000 C 
ATOM     19  C   UNL     1      -5.633  -0.577   0.371  0.00  0.00    -0.000 C 
ENDBRANCH  13  14
ENDBRANCH   1  13
TORSDOF 5
