REMARK  Name = 176870
REMARK  10 active torsions:
REMARK  status: ('A' for Active; 'I' for Inactive)
REMARK    1  A    between atoms: N_1  and  C_13
REMARK    2  A    between atoms: C_6  and  O_21
REMARK    3  A    between atoms: C_7  and  O_26
REMARK    4  A    between atoms: C_16  and  C_19
REMARK    5  A    between atoms: O_21  and  C_22
REMARK    6  A    between atoms: C_22  and  C_23
REMARK    7  A    between atoms: C_23  and  O_24
REMARK    8  A    between atoms: O_26  and  C_27
REMARK    9  A    between atoms: C_27  and  C_28
REMARK   10  A    between atoms: C_28  and  O_29
REMARK                            x       y       z     vdW  Elec       q    Type
REMARK                         _______ _______ _______ _____ _____    ______ ____
ROOT
ATOM      1  N   UNL     1       2.483  -0.168  -1.054  0.00  0.00    -0.298 N 
ATOM      2  N   UNL     1       0.326   3.223  -0.063  0.00  0.00    -0.248 NA
ATOM      3  N   UNL     1       2.422   2.120  -0.508  0.00  0.00    -0.230 NA
ATOM      4  C   UNL     1       0.344   0.889  -0.615  0.00  0.00    +0.048 C 
ATOM      5  C   UNL     1      -0.334   2.071  -0.276  0.00  0.00    +0.066 C 
ATOM      6  C   UNL     1      -1.743  -0.336  -0.721  0.00  0.00    +0.169 C 
ATOM      7  C   UNL     1      -2.426   0.828  -0.386  0.00  0.00    +0.156 C 
ATOM      8  C   UNL     1      -0.357  -0.309  -0.836  0.00  0.00    +0.044 C 
ATOM      9  C   UNL     1       1.730   0.984  -0.715  0.00  0.00    +0.131 C 
ATOM     10  C   UNL     1      -1.722   2.016  -0.167  0.00  0.00    +0.112 C 
ATOM     11  C   UNL     1       1.668   3.185  -0.190  0.00  0.00    +0.252 C 
ATOM     12  H   UNL     1       1.998  -0.805  -1.626  0.00  0.00    +0.154 HD
ENDROOT
BRANCH   1  13
ATOM     13  C   UNL     1       3.786  -0.576  -0.730  0.00  0.00    +0.050 C 
ATOM     14  C   UNL     1       4.359  -0.186   0.481  0.00  0.00    +0.023 C 
ATOM     15  C   UNL     1       4.508  -1.372  -1.619  0.00  0.00    +0.015 C 
ATOM     16  C   UNL     1       5.654  -0.592   0.802  0.00  0.00    +0.044 C 
ATOM     17  C   UNL     1       5.803  -1.778  -1.298  0.00  0.00    +0.002 C 
ATOM     18  C   UNL     1       6.377  -1.388  -0.088  0.00  0.00    +0.008 C 
BRANCH  16  19
ATOM     19  C   UNL     1       6.242  -0.193   2.041  0.00  0.00    -0.051 C 
ATOM     20  C   UNL     1       6.736   0.142   3.083  0.00  0.00    -0.009 C 
ENDBRANCH  16  19
ENDBRANCH   1  13
BRANCH   6  21
ATOM     21  O   UNL     1      -2.416  -1.499  -0.937  0.00  0.00    -0.470 OA
BRANCH  21  22
ATOM     22  C   UNL     1      -2.093  -2.603  -0.093  0.00  0.00    +0.237 C 
BRANCH  22  23
ATOM     23  C   UNL     1      -3.326  -3.467   0.085  0.00  0.00    +0.189 C 
BRANCH  23  24
ATOM     24  O   UNL     1      -4.351  -2.693   0.698  0.00  0.00    -0.347 OA
ATOM     25  C   UNL     1      -5.542  -3.449   0.870  0.00  0.00    +0.174 C 
ENDBRANCH  23  24
ENDBRANCH  22  23
ENDBRANCH  21  22
ENDBRANCH   6  21
BRANCH   7  26
ATOM     26  O   UNL     1      -3.783   0.825  -0.267  0.00  0.00    -0.474 OA
BRANCH  26  27
ATOM     27  C   UNL     1      -4.355   1.749   0.656  0.00  0.00    +0.237 C 
BRANCH  27  28
ATOM     28  C   UNL     1      -5.654   1.176   1.190  0.00  0.00    +0.189 C 
BRANCH  28  29
ATOM     29  O   UNL     1      -6.554   0.980   0.107  0.00  0.00    -0.347 OA
ATOM     30  C   UNL     1      -7.785   0.422   0.548  0.00  0.00    +0.174 C 
ENDBRANCH  28  29
ENDBRANCH  27  28
ENDBRANCH  26  27
ENDBRANCH   7  26
TORSDOF 10
