REMARK  Name = 5095
REMARK  7 active torsions:
REMARK  status: ('A' for Active; 'I' for Inactive)
REMARK    1  A    between atoms: C_3  and  C_12
REMARK    2  A    between atoms: C_12  and  C_13
REMARK    3  A    between atoms: C_13  and  N_14
REMARK    4  A    between atoms: N_14  and  C_16
REMARK    5  A    between atoms: N_14  and  C_19
REMARK    6  A    between atoms: C_16  and  C_17
REMARK    7  A    between atoms: C_19  and  C_20
REMARK                            x       y       z     vdW  Elec       q    Type
REMARK                         _______ _______ _______ _____ _____    ______ ____
ROOT
ATOM      1  O   UNL     1      -3.562   2.790  -1.485  0.00  0.00    -0.274 OA
ATOM      2  N   UNL     1      -3.998   0.606  -0.732  0.00  0.00    -0.284 N 
ATOM      3  C   UNL     1      -1.066  -0.715   0.841  0.00  0.00    -0.027 C 
ATOM      4  C   UNL     1      -1.984   0.085   0.188  0.00  0.00    -0.004 C 
ATOM      5  C   UNL     1      -1.838   1.478  -0.338  0.00  0.00    +0.113 C 
ATOM      6  C   UNL     1      -3.271  -0.378  -0.070  0.00  0.00    +0.046 C 
ATOM      7  C   UNL     1      -1.472  -1.995   1.230  0.00  0.00    -0.005 C 
ATOM      8  C   UNL     1      -3.223   1.753  -0.937  0.00  0.00    +0.231 C 
ATOM      9  C   UNL     1      -3.698  -1.636   0.303  0.00  0.00    +0.014 C 
ATOM     10  C   UNL     1      -2.777  -2.452   0.963  0.00  0.00    +0.001 C 
ATOM     11  H   UNL     1      -4.934   0.508  -1.019  0.00  0.00    +0.155 HD
ENDROOT
BRANCH   3  12
ATOM     12  C   UNL     1       0.315  -0.240   1.129  0.00  0.00    +0.003 C 
BRANCH  12  13
ATOM     13  C   UNL     1       1.292  -0.573  -0.009  0.00  0.00    -0.073 C 
BRANCH  13  14
ATOM     14  N   UNL     1       2.647  -0.127   0.296  0.00  0.00    +0.387 N 
ATOM     15  H   UNL     1       2.947  -0.582   1.158  0.00  0.00    -0.080 HD
BRANCH  14  16
ATOM     16  C   UNL     1       2.678   1.322   0.501  0.00  0.00    -0.077 C 
BRANCH  16  17
ATOM     17  C   UNL     1       4.098   1.782   0.820  0.00  0.00    -0.023 C 
ATOM     18  C   UNL     1       4.153   3.284   1.058  0.00  0.00    -0.002 C 
ENDBRANCH  16  17
ENDBRANCH  14  16
BRANCH  14  19
ATOM     19  C   UNL     1       3.568  -0.508  -0.775  0.00  0.00    -0.077 C 
BRANCH  19  20
ATOM     20  C   UNL     1       3.585  -2.026  -0.944  0.00  0.00    -0.023 C 
ATOM     21  C   UNL     1       4.552  -2.450  -2.039  0.00  0.00    -0.002 C 
ENDBRANCH  19  20
ENDBRANCH  14  19
ENDBRANCH  13  14
ENDBRANCH  12  13
ENDBRANCH   3  12
TORSDOF 7
