REMARK  Name = 5284585
REMARK  6 active torsions:
REMARK  status: ('A' for Active; 'I' for Inactive)
REMARK    1  A    between atoms: N_2  and  CA_9
REMARK    2  A    between atoms: C_3  and  CA_19
REMARK    3  A    between atoms: CA_13  and  C_16
REMARK    4  A    between atoms: C_16  and  O_17
REMARK    5  A    between atoms: CA_19  and  C_20
REMARK    6  A    between atoms: CA_19  and  N_26
REMARK                            x       y       z     vdW  Elec       q    Type
REMARK                         _______ _______ _______ _____ _____    ______ ____
ROOT
ATOM      1  O   UNL     1      -1.948   1.909   1.654  0.00  0.00    -0.277 OA
ATOM      2  N   UNL     1      -0.664   1.749  -0.271  0.00  0.00    -0.298 N 
ATOM      3  C   UNL     1      -1.865   1.714   0.442  0.00  0.00    +0.206 C 
ATOM      4  H   UNL     1      -0.688   1.582  -1.241  0.00  0.00    +0.150 HD
ENDROOT
BRANCH   2   9
ATOM      5 CL   UNL     1       3.737  -2.868   0.990  0.00  0.00    -0.085 Cl
ATOM      6  O   UNL     1       2.308   2.280  -1.566  0.00  0.00    -0.273 OA
ATOM      7  N   UNL     1       2.165   0.677   0.152  0.00  0.00    -0.251 N 
ATOM      8  C   UNL     1       1.212   0.881   1.237  0.00  0.00    +0.107 C 
ATOM      9  CA  UNL     1       0.625   2.022   0.359  0.00  0.00    +0.168 C 
ATOM     10  C   UNL     1       0.495  -0.428   1.504  0.00  0.00    +0.028 C 
ATOM     11  C   UNL     1       1.853   1.773  -0.567  0.00  0.00    +0.249 C 
ATOM     12  C   UNL     1       1.562  -1.478   1.870  0.00  0.00    +0.041 C 
ATOM     13  CA  UNL     1       2.986  -0.402   0.105  0.00  0.00    +0.137 C 
ATOM     14  C   UNL     1       2.758  -1.441   0.933  0.00  0.00    +0.055 C 
BRANCH  13  16
ATOM     15  OXT UNL     1       3.950  -0.806  -2.030  0.00  0.00    -0.244 OA
ATOM     16  C   UNL     1       4.067  -0.404  -0.889  0.00  0.00    +0.353 C 
BRANCH  16  17
ATOM     17  O   UNL     1       5.187   0.105  -0.337  0.00  0.00    -0.476 OA
ATOM     18  H   UNL     1       5.180   0.392   0.556  0.00  0.00    +0.295 HD
ENDBRANCH  16  17
ENDBRANCH  13  16
ENDBRANCH   2   9
BRANCH   3  19
ATOM     19  CA  UNL     1      -3.069   1.388  -0.435  0.00  0.00    +0.036 C 
BRANCH  19  20
ATOM     20  C   UNL     1      -3.307  -0.107  -0.491  0.00  0.00    -0.034 C 
ATOM     21  C   UNL     1      -2.689  -0.851  -1.480  0.00  0.00    -0.006 C 
ATOM     22  C   UNL     1      -4.136  -0.694   0.449  0.00  0.00    -0.006 C 
ATOM     23  C   UNL     1      -2.908  -2.228  -1.532  0.00  0.00    -0.000 C 
ATOM     24  C   UNL     1      -4.354  -2.071   0.397  0.00  0.00    -0.000 C 
ATOM     25  C   UNL     1      -3.741  -2.837  -0.594  0.00  0.00    -0.000 C 
ENDBRANCH  19  20
BRANCH  19  26
ATOM     26  N   UNL     1      -4.223   2.117   0.101  0.00  0.00    +0.390 N 
ATOM     27  H1  UNL     1      -4.015   3.115   0.119  0.00  0.00    -0.088 HD
ATOM     28  H2  UNL     1      -4.420   1.793   1.048  0.00  0.00    -0.088 HD
ATOM     29  H3  UNL     1      -5.036   1.949  -0.492  0.00  0.00    -0.088 HD
ENDBRANCH  19  26
ENDBRANCH   3  19
TORSDOF 6
