REMARK  Name = 19150
REMARK  9 active torsions:
REMARK  status: ('A' for Active; 'I' for Inactive)
REMARK    1  A    between atoms: CA_5  and  N_11
REMARK    2  A    between atoms: CA_7  and  C_26
REMARK    3  A    between atoms: C_8  and  C_29
REMARK    4  A    between atoms: C_12  and  CA_14
REMARK    5  A    between atoms: CA_14  and  C_15
REMARK    6  A    between atoms: CA_14  and  N_21
REMARK    7  A    between atoms: C_26  and  O_27
REMARK    8  A    between atoms: C_29  and  O_30
REMARK    9  A    between atoms: O_30  and  C_32
REMARK                            x       y       z     vdW  Elec       q    Type
REMARK                         _______ _______ _______ _____ _____    ______ ____
ROOT
ATOM      1  S   UNL     1       0.082   0.889   0.635  0.00  0.00    -0.114 S 
ATOM      2  O   UNL     1      -0.426  -3.584  -0.526  0.00  0.00    -0.273 OA
ATOM      3  N   UNL     1      -1.099  -1.455   0.232  0.00  0.00    -0.242 N 
ATOM      4  C   UNL     1      -0.281  -0.781   1.224  0.00  0.00    +0.155 C 
ATOM      5  CA  UNL     1       0.787  -1.858   0.936  0.00  0.00    +0.178 C 
ATOM      6  C   UNL     1      -0.319  -2.548   0.087  0.00  0.00    +0.251 C 
ATOM      7  CA  UNL     1      -2.259  -0.950  -0.259  0.00  0.00    +0.127 C 
ATOM      8  C   UNL     1      -2.596   0.350  -0.082  0.00  0.00    +0.030 C 
ATOM      9  C   UNL     1      -1.677   1.373   0.583  0.00  0.00    +0.086 C 
ENDROOT
BRANCH   5  11
ATOM     10  O   UNL     1       3.444  -1.384   1.948  0.00  0.00    -0.277 OA
ATOM     11  N   UNL     1       1.970  -1.482   0.161  0.00  0.00    -0.298 N 
ATOM     12  C   UNL     1       3.221  -1.273   0.744  0.00  0.00    +0.206 C 
ATOM     13  H   UNL     1       1.879  -1.373  -0.813  0.00  0.00    +0.150 HD
BRANCH  12  14
ATOM     14  CA  UNL     1       4.287  -0.870  -0.269  0.00  0.00    +0.036 C 
BRANCH  14  15
ATOM     15  C   UNL     1       4.343   0.636  -0.423  0.00  0.00    -0.034 C 
ATOM     16  C   UNL     1       3.549   1.246  -1.377  0.00  0.00    -0.006 C 
ATOM     17  C   UNL     1       5.187   1.367   0.395  0.00  0.00    -0.006 C 
ATOM     18  C   UNL     1       3.600   2.633  -1.519  0.00  0.00    -0.000 C 
ATOM     19  C   UNL     1       5.238   2.753   0.254  0.00  0.00    -0.000 C 
ATOM     20  C   UNL     1       4.445   3.387  -0.704  0.00  0.00    -0.000 C 
ENDBRANCH  14  15
BRANCH  14  21
ATOM     21  N   UNL     1       5.564  -1.433   0.178  0.00  0.00    +0.390 N 
ATOM     22  H1  UNL     1       5.477  -2.445   0.267  0.00  0.00    -0.088 HD
ATOM     23  H2  UNL     1       5.814  -1.033   1.083  0.00  0.00    -0.088 HD
ATOM     24  H3  UNL     1       6.291  -1.213  -0.503  0.00  0.00    -0.088 HD
ENDBRANCH  14  21
ENDBRANCH  12  14
ENDBRANCH   5  11
BRANCH   7  26
ATOM     25  OXT UNL     1      -2.985  -2.040  -2.243  0.00  0.00    -0.244 OA
ATOM     26  C   UNL     1      -3.102  -1.861  -1.048  0.00  0.00    +0.352 C 
BRANCH  26  27
ATOM     27  O   UNL     1      -4.005  -2.448  -0.238  0.00  0.00    -0.476 OA
ATOM     28  H   UNL     1      -4.017  -2.244   0.677  0.00  0.00    +0.295 HD
ENDBRANCH  26  27
ENDBRANCH   7  26
BRANCH   8  29
ATOM     29  C   UNL     1      -3.902   0.965  -0.525  0.00  0.00    +0.233 C 
BRANCH  29  30
ATOM     30  O   UNL     1      -4.577   1.491   0.598  0.00  0.00    -0.444 OA
BRANCH  30  32
ATOM     31  O   UNL     1      -6.319   2.197  -0.744  0.00  0.00    -0.250 OA
ATOM     32  C   UNL     1      -5.787   2.087   0.352  0.00  0.00    +0.318 C 
ATOM     33  C   UNL     1      -6.385   2.594   1.629  0.00  0.00    +0.121 C 
ENDBRANCH  30  32
ENDBRANCH  29  30
ENDBRANCH   8  29
TORSDOF 9
