REMARK  Name = 4062
REMARK  2 active torsions:
REMARK  status: ('A' for Active; 'I' for Inactive)
REMARK    1  A    between atoms: N_2  and  C_13
REMARK    2  A    between atoms: C_3  and  C_6
REMARK                            x       y       z     vdW  Elec       q    Type
REMARK                         _______ _______ _______ _____ _____    ______ ____
ROOT
ATOM      1  O   UNL     1      -0.478   0.348   1.577  0.00  0.00    -0.277 OA
ATOM      2  N   UNL     1       0.455  -0.089  -0.538  0.00  0.00    -0.286 N 
ATOM      3  C   UNL     1      -0.571   0.116   0.376  0.00  0.00    +0.207 C 
ATOM      4  H   UNL     1       0.181  -0.261  -1.468  0.00  0.00    +0.155 HD
ENDROOT
BRANCH   3   6
ATOM      5  N   UNL     1      -2.853   0.898   0.438  0.00  0.00    +0.392 N 
ATOM      6  C   UNL     1      -1.912   0.025  -0.287  0.00  0.00    +0.021 C 
ATOM      7  C   UNL     1      -2.343  -1.448  -0.240  0.00  0.00    -0.012 C 
ATOM      8  C   UNL     1      -3.766  -1.633  -0.748  0.00  0.00    -0.004 C 
ATOM      9  C   UNL     1      -4.710  -0.699  -0.005  0.00  0.00    -0.023 C 
ATOM     10  C   UNL     1      -4.223   0.747  -0.084  0.00  0.00    -0.077 C 
ATOM     11  C   UNL     1      -2.466   2.312   0.354  0.00  0.00    -0.100 C 
ATOM     12  H   UNL     1      -2.823   0.609   1.415  0.00  0.00    -0.079 HD
ENDBRANCH   3   6
BRANCH   2  13
ATOM     13  C   UNL     1       1.848  -0.079  -0.287  0.00  0.00    +0.042 C 
ATOM     14  C   UNL     1       2.551   1.111  -0.394  0.00  0.00    -0.009 C 
ATOM     15  C   UNL     1       2.486  -1.260   0.061  0.00  0.00    -0.009 C 
ATOM     16  C   UNL     1       3.924   1.121  -0.147  0.00  0.00    -0.003 C 
ATOM     17  C   UNL     1       3.859  -1.251   0.308  0.00  0.00    -0.003 C 
ATOM     18  C   UNL     1       1.879   2.393  -0.769  0.00  0.00    +0.032 C 
ATOM     19  C   UNL     1       1.743  -2.552   0.181  0.00  0.00    +0.032 C 
ATOM     20  C   UNL     1       4.578  -0.060   0.204  0.00  0.00    -0.001 C 
ENDBRANCH   2  13
TORSDOF 2
