REMARK  Name = 4737
REMARK  4 active torsions:
REMARK  status: ('A' for Active; 'I' for Inactive)
REMARK    1  A    between atoms: C_6  and  C_12
REMARK    2  A    between atoms: C_6  and  C_17
REMARK    3  A    between atoms: C_12  and  C_14
REMARK    4  A    between atoms: C_14  and  C_15
REMARK                            x       y       z     vdW  Elec       q    Type
REMARK                         _______ _______ _______ _____ _____    ______ ____
ROOT
ATOM      1  O   UNL     1       1.514  -1.960   1.270  0.00  0.00    -0.274 OA
ATOM      2  O   UNL     1      -0.170   0.642  -2.257  0.00  0.00    -0.274 OA
ATOM      3  O   UNL     1       2.977   2.340   0.618  0.00  0.00    -0.252 OA
ATOM      4  N   UNL     1       2.171   0.222   1.002  0.00  0.00    -0.239 N 
ATOM      5  N   UNL     1       1.329   1.522  -0.760  0.00  0.00    -0.239 N 
ATOM      6  C   UNL     1       0.165  -0.558  -0.177  0.00  0.00    +0.138 C 
ATOM      7  C   UNL     1       1.344  -0.861   0.743  0.00  0.00    +0.237 C 
ATOM      8  C   UNL     1       0.424   0.559  -1.183  0.00  0.00    +0.237 C 
ATOM      9  C   UNL     1       2.201   1.431   0.318  0.00  0.00    +0.312 C 
ATOM     10  H   UNL     1       2.804   0.123   1.749  0.00  0.00    +0.159 HD
ATOM     11  H   UNL     1       1.357   2.358  -1.280  0.00  0.00    +0.159 HD
ENDROOT
BRANCH   6  12
ATOM     12  C   UNL     1      -0.998  -0.096   0.719  0.00  0.00    +0.016 C 
ATOM     13  C   UNL     1      -1.317  -1.181   1.751  0.00  0.00    +0.001 C 
BRANCH  12  14
ATOM     14  C   UNL     1      -2.266   0.241  -0.087  0.00  0.00    +0.001 C 
BRANCH  14  15
ATOM     15  C   UNL     1      -3.416   0.766   0.776  0.00  0.00    +0.000 C 
ATOM     16  C   UNL     1      -4.617   1.150  -0.075  0.00  0.00    +0.000 C 
ENDBRANCH  14  15
ENDBRANCH  12  14
ENDBRANCH   6  12
BRANCH   6  17
ATOM     17  C   UNL     1      -0.246  -1.835  -0.923  0.00  0.00    +0.017 C 
ATOM     18  C   UNL     1       0.907  -2.383  -1.734  0.00  0.00    +0.001 C 
ENDBRANCH   6  17
TORSDOF 4
