REMARK  Name = 4171
REMARK  10 active torsions:
REMARK  status: ('A' for Active; 'I' for Inactive)
REMARK    1  A    between atoms: O_1  and  C_2
REMARK    2  A    between atoms: O_1  and  C_12
REMARK    3  A    between atoms: C_3  and  C_8
REMARK    4  A    between atoms: C_8  and  C_9
REMARK    5  A    between atoms: C_9  and  O_10
REMARK    6  A    between atoms: C_12  and  C_13
REMARK    7  A    between atoms: C_13  and  O_14
REMARK    8  A    between atoms: C_13  and  C_16
REMARK    9  A    between atoms: C_16  and  N_17
REMARK   10  A    between atoms: N_17  and  C_20
REMARK                            x       y       z     vdW  Elec       q    Type
REMARK                         _______ _______ _______ _____ _____    ______ ____
ROOT
ATOM      1  O   UNL     1      -1.395  -1.712  -0.380  0.00  0.00    -0.473 OA
ENDROOT
BRANCH   1   2
ATOM      2  C   UNL     1      -0.046  -1.510  -0.270  0.00  0.00    +0.139 C 
ATOM      3  C   UNL     1       2.696  -1.097  -0.045  0.00  0.00    -0.019 C 
ATOM      4  C   UNL     1       0.603  -1.823   0.919  0.00  0.00    +0.037 C 
ATOM      5  C   UNL     1       0.664  -0.991  -1.348  0.00  0.00    +0.037 C 
ATOM      6  C   UNL     1       1.978  -1.616   1.032  0.00  0.00    -0.001 C 
ATOM      7  C   UNL     1       2.039  -0.784  -1.235  0.00  0.00    -0.001 C 
BRANCH   3   8
ATOM      8  C   UNL     1       4.166  -0.876   0.075  0.00  0.00    +0.058 C 
BRANCH   8   9
ATOM      9  C   UNL     1       4.520   0.520   0.596  0.00  0.00    +0.147 C 
BRANCH   9  10
ATOM     10  O   UNL     1       4.037   1.504  -0.311  0.00  0.00    -0.351 OA
ATOM     11  C   UNL     1       4.343   2.818   0.134  0.00  0.00    +0.174 C 
ENDBRANCH   9  10
ENDBRANCH   8   9
ENDBRANCH   3   8
ENDBRANCH   1   2
BRANCH   1  12
ATOM     12  C   UNL     1      -2.159  -1.596   0.817  0.00  0.00    +0.232 C 
BRANCH  12  13
ATOM     13  C   UNL     1      -3.557  -1.093   0.463  0.00  0.00    +0.133 C 
BRANCH  13  14
ATOM     14  O   UNL     1      -4.158  -2.020  -0.445  0.00  0.00    -0.383 OA
ATOM     15  H   UNL     1      -5.048  -1.713  -0.679  0.00  0.00    +0.210 HD
ENDBRANCH  13  14
BRANCH  13  16
ATOM     16  C   UNL     1      -3.555   0.288  -0.195  0.00  0.00    -0.048 C 
BRANCH  16  17
ATOM     17  N   UNL     1      -2.924   1.296   0.647  0.00  0.00    +0.387 N 
ATOM     18  H   UNL     1      -1.971   1.002   0.860  0.00  0.00    -0.084 HD
ATOM     19  H   UNL     1      -3.468   1.391   1.504  0.00  0.00    -0.084 HD
BRANCH  17  20
ATOM     20  C   UNL     1      -2.885   2.587  -0.026  0.00  0.00    -0.062 C 
ATOM     21  C   UNL     1      -2.101   2.480  -1.331  0.00  0.00    -0.023 C 
ATOM     22  C   UNL     1      -2.264   3.625   0.903  0.00  0.00    -0.023 C 
ENDBRANCH  17  20
ENDBRANCH  16  17
ENDBRANCH  13  16
ENDBRANCH  12  13
ENDBRANCH   1  12
TORSDOF 10
