REMARK  Name = 5284570
REMARK  1 active torsions:
REMARK  status: ('A' for Active; 'I' for Inactive)
REMARK    1  A    between atoms: C_19  and  O_22
REMARK                            x       y       z     vdW  Elec       q    Type
REMARK                         _______ _______ _______ _____ _____    ______ ____
ROOT
ATOM      1  O   UNL     1      -1.978  -0.451   1.252  0.00  0.00    -0.469 OA
ATOM      2  O   UNL     1      -2.619  -2.557  -0.337  0.00  0.00    -0.292 OA
ATOM      3  N   UNL     1       3.142   0.144   0.479  0.00  0.00    +0.387 N 
ATOM      4  C   UNL     1       0.359  -0.670   0.664  0.00  0.00    +0.061 C 
ATOM      5  C   UNL     1       1.341  -1.284  -0.340  0.00  0.00    -0.011 C 
ATOM      6  C   UNL     1       2.349  -0.161  -0.737  0.00  0.00    -0.053 C 
ATOM      7  C   UNL     1      -0.933  -1.438   0.985  0.00  0.00    +0.226 C 
ATOM      8  C   UNL     1       1.145  -0.264   1.929  0.00  0.00    -0.015 C 
ATOM      9  C   UNL     1      -0.287   0.530   0.068  0.00  0.00    +0.014 C 
ATOM     10  C   UNL     1       0.632  -1.947  -1.528  0.00  0.00    +0.006 C 
ATOM     11  C   UNL     1       1.645   1.077  -1.396  0.00  0.00    +0.005 C 
ATOM     12  C   UNL     1       2.348   0.641   1.608  0.00  0.00    -0.077 C 
ATOM     13  C   UNL     1       0.286   1.404  -0.836  0.00  0.00    -0.025 C 
ATOM     14  C   UNL     1      -0.370  -2.982  -1.028  0.00  0.00    +0.068 C 
ATOM     15  C   UNL     1      -1.422  -2.326  -0.162  0.00  0.00    +0.191 C 
ATOM     16  C   UNL     1      -1.595   0.632   0.496  0.00  0.00    +0.168 C 
ATOM     17  C   UNL     1       4.296   0.998   0.221  0.00  0.00    -0.101 C 
ATOM     18  C   UNL     1      -0.494   2.486  -1.243  0.00  0.00    -0.001 C 
ATOM     19  C   UNL     1      -2.377   1.699   0.118  0.00  0.00    +0.167 C 
ATOM     20  C   UNL     1      -1.809   2.640  -0.753  0.00  0.00    +0.039 C 
ATOM     21  H   UNL     1       3.502  -0.765   0.766  0.00  0.00    -0.080 HD
ENDROOT
BRANCH  19  22
ATOM     22  O   UNL     1      -3.659   1.827   0.539  0.00  0.00    -0.503 OA
ATOM     23  H   UNL     1      -4.026   1.191   1.121  0.00  0.00    +0.292 HD
ENDBRANCH  19  22
TORSDOF 1
