REMARK  Name = 6926437
REMARK  4 active torsions:
REMARK  status: ('A' for Active; 'I' for Inactive)
REMARK    1  A    between atoms: CA_1  and  N_2
REMARK    2  A    between atoms: CA_1  and  C_8
REMARK    3  A    between atoms: CA_1  and  C_9
REMARK    4  A    between atoms: C_9  and  S_12
REMARK                            x       y       z     vdW  Elec       q    Type
REMARK                         _______ _______ _______ _____ _____    ______ ____
ROOT
ATOM      1  CA  UNL     1       0.205   0.509  -0.545  0.00  0.00    +0.049 C 
ENDROOT
BRANCH   1   2
ATOM      2  N   UNL     1       0.163   1.990  -0.307  0.00  0.00    +0.389 N 
ATOM      3  H1  UNL     1      -0.706   2.370  -0.681  0.00  0.00    -0.088 HD
ATOM      4  H2  UNL     1       0.956   2.432  -0.772  0.00  0.00    -0.088 HD
ATOM      5  H3  UNL     1       0.210   2.174   0.695  0.00  0.00    -0.088 HD
ENDBRANCH   1   2
BRANCH   1   8
ATOM      6  O   UNL     1       1.625  -0.079   1.256  0.00  0.00    -0.248 OA
ATOM      7  OXT UNL     1       2.279  -0.612  -0.868  0.00  0.00    -0.248 OA
ATOM      8  C   UNL     1       1.498  -0.130  -0.001  0.00  0.00    +0.346 C 
ENDBRANCH   1   8
BRANCH   1   9
ATOM      9  C   UNL     1      -1.091  -0.146   0.008  0.00  0.00    +0.028 C 
ATOM     10  C   UNL     1      -1.221  -0.065   1.537  0.00  0.00    +0.009 C 
ATOM     11  C   UNL     1      -2.343   0.475  -0.637  0.00  0.00    +0.009 C 
BRANCH   9  12
ATOM     12  S   UNL     1      -1.113  -1.942  -0.443  0.00  0.00    -0.171 S 
ATOM     13  H   UNL     1      -0.028  -2.558   0.097  0.00  0.00    +0.102 HD
ENDBRANCH   9  12
ENDBRANCH   1   9
TORSDOF 4
