REMARK  Name = 6971018
REMARK  3 active torsions:
REMARK  status: ('A' for Active; 'I' for Inactive)
REMARK    1  A    between atoms: CA_1  and  N_2
REMARK    2  A    between atoms: CA_1  and  C_8
REMARK    3  A    between atoms: CA_1  and  CB_9
REMARK                            x       y       z     vdW  Elec       q    Type
REMARK                         _______ _______ _______ _____ _____    ______ ____
ROOT
ATOM      1  CA  VAL A   1       0.028  -0.537  -0.418  0.00  0.00    +0.040 C 
ENDROOT
BRANCH   1   2
ATOM      2  N   VAL A   1      -0.170  -1.773   0.399  0.00  0.00    +0.389 N 
ATOM      3  H1  VAL A   1      -1.074  -2.188   0.174  0.00  0.00    -0.088 HD
ATOM      4  H2  VAL A   1      -0.142  -1.534   1.390  0.00  0.00    -0.088 HD
ATOM      5  H3  VAL A   1       0.572  -2.441   0.190  0.00  0.00    -0.088 HD
ENDBRANCH   1   2
BRANCH   1   8
ATOM      6  O   VAL A   1       2.306  -0.545   0.264  0.00  0.00    -0.248 OA
ATOM      7  OXT VAL A   1       1.364   1.417  -0.428  0.00  0.00    -0.248 OA
ATOM      8  C   VAL A   1       1.365   0.180  -0.164  0.00  0.00    +0.345 C 
ENDBRANCH   1   8
BRANCH   1   9
ATOM      9  CB  VAL A   1      -1.164   0.430  -0.242  0.00  0.00    -0.009 C 
ATOM     10  CG1 VAL A   1      -2.504  -0.242  -0.561  0.00  0.00    -0.002 C 
ATOM     11  CG2 VAL A   1      -1.226   1.070   1.150  0.00  0.00    -0.002 C 
ENDBRANCH   1   9
TORSDOF 3
