REMARK  Name = 5212
REMARK  7 active torsions:
REMARK  status: ('A' for Active; 'I' for Inactive)
REMARK    1  A    between atoms: C_1  and  S_22
REMARK    2  A    between atoms: C_3  and  C_12
REMARK    3  A    between atoms: C_5  and  O_33
REMARK    4  A    between atoms: C_14  and  C_19
REMARK    5  A    between atoms: C_19  and  C_20
REMARK    6  A    between atoms: S_22  and  N_25
REMARK    7  A    between atoms: O_33  and  C_34
REMARK                            x       y       z     vdW  Elec       q    Type
REMARK                         _______ _______ _______ _____ _____    ______ ____
ROOT
ATOM      1  C   UNL     1       2.394   1.007   1.093  0.00  0.00    +0.123 C 
ATOM      2  C   UNL     1       1.300   0.160   1.020  0.00  0.00    +0.027 C 
ATOM      3  C   UNL     1       0.135   0.601   0.392  0.00  0.00    +0.080 C 
ATOM      4  C   UNL     1       2.354   2.283   0.555  0.00  0.00    +0.023 C 
ATOM      5  C   UNL     1       0.080   1.883  -0.155  0.00  0.00    +0.142 C 
ATOM      6  C   UNL     1       1.190   2.724  -0.074  0.00  0.00    +0.038 C 
ENDROOT
BRANCH   3  12
ATOM      7  O   UNL     1      -1.605  -3.761   0.160  0.00  0.00    -0.208 OA
ATOM      8  N   UNL     1      -2.320   0.257   0.297  0.00  0.00    -0.284 N 
ATOM      9  N   UNL     1      -4.347  -2.529   0.125  0.00  0.00    -0.236 N 
ATOM     10  N   UNL     1      -5.356  -1.629   0.125  0.00  0.00    -0.172 NA
ATOM     11  N   UNL     1      -0.784  -1.607   0.271  0.00  0.00    -0.316 NA
ATOM     12  C   UNL     1      -1.046  -0.319   0.316  0.00  0.00    +0.200 C 
ATOM     13  C   UNL     1      -3.341  -0.611   0.232  0.00  0.00    +0.095 A 
ATOM     14  C   UNL     1      -4.726  -0.449   0.190  0.00  0.00    +0.094 A 
ATOM     15  C   UNL     1      -3.111  -1.958   0.187  0.00  0.00    +0.187 A 
ATOM     16  C   UNL     1      -1.803  -2.552   0.203  0.00  0.00    +0.225 C 
ATOM     17  C   UNL     1      -4.660  -3.937   0.059  0.00  0.00    +0.155 C 
ATOM     18  H   UNL     1      -2.458   1.231   0.328  0.00  0.00    +0.155 HD
BRANCH  14  19
ATOM     19  C   UNL     1      -5.505   0.800   0.210  0.00  0.00    +0.049 C 
BRANCH  19  20
ATOM     20  C   UNL     1      -5.779   1.368  -1.196  0.00  0.00    +0.006 C 
ATOM     21  C   UNL     1      -6.617   2.636  -1.157  0.00  0.00    +0.000 C 
ENDBRANCH  19  20
ENDBRANCH  14  19
ENDBRANCH   3  12
BRANCH   1  22
ATOM     22  S   UNL     1       3.868   0.450   1.888  0.00  0.00    +0.063 S 
ATOM     23  O   UNL     1       4.600   1.617   2.331  0.00  0.00    -0.153 OA
ATOM     24  O   UNL     1       3.504  -0.599   2.817  0.00  0.00    -0.153 OA
BRANCH  22  25
ATOM     25  N   UNL     1       4.683  -0.247   0.553  0.00  0.00    -0.160 NA
ATOM     26  N   UNL     1       5.444  -1.107  -2.084  0.00  0.00    +0.387 N 
ATOM     27  C   UNL     1       5.238   0.720  -0.436  0.00  0.00    +0.073 C 
ATOM     28  C   UNL     1       3.966  -1.365  -0.124  0.00  0.00    +0.073 C 
ATOM     29  C   UNL     1       6.160  -0.016  -1.407  0.00  0.00    -0.058 C 
ATOM     30  C   UNL     1       4.912  -2.061  -1.101  0.00  0.00    -0.058 C 
ATOM     31  C   UNL     1       6.321  -1.785  -3.037  0.00  0.00    -0.101 C 
ATOM     32  H   UNL     1       4.660  -0.705  -2.599  0.00  0.00    -0.080 HD
ENDBRANCH  22  25
ENDBRANCH   1  22
BRANCH   5  33
ATOM     33  O   UNL     1      -1.049   2.331  -0.773  0.00  0.00    -0.475 OA
BRANCH  33  34
ATOM     34  C   UNL     1      -1.304   3.733  -0.717  0.00  0.00    +0.206 C 
ATOM     35  C   UNL     1      -2.799   3.964  -0.761  0.00  0.00    +0.051 C 
ENDBRANCH  33  34
ENDBRANCH   5  33
TORSDOF 7
