REMARK  Name = 2955
REMARK  4 active torsions:
REMARK  status: ('A' for Active; 'I' for Inactive)
REMARK    1  A    between atoms: S_1  and  C_4
REMARK    2  A    between atoms: S_1  and  C_13
REMARK    3  A    between atoms: C_9  and  N_10
REMARK    4  A    between atoms: C_18  and  N_19
REMARK                            x       y       z     vdW  Elec       q    Type
REMARK                         _______ _______ _______ _____ _____    ______ ____
ROOT
ATOM      1  S   UNL     1      -0.002   1.619   0.000  0.00  0.00    +0.027 S 
ATOM      2  O   UNL     1      -0.024   2.350  -1.259  0.00  0.00    -0.164 OA
ATOM      3  O   UNL     1       0.061   2.349   1.260  0.00  0.00    -0.164 OA
ENDROOT
BRANCH   1   4
ATOM      4  C   UNL     1      -1.420   0.600   0.002  0.00  0.00    +0.110 C 
ATOM      5  C   UNL     1      -1.985   0.193   1.210  0.00  0.00    +0.020 C 
ATOM      6  C   UNL     1      -1.988   0.193  -1.206  0.00  0.00    +0.020 C 
ATOM      7  C   UNL     1      -3.118  -0.621   1.211  0.00  0.00    +0.015 C 
ATOM      8  C   UNL     1      -3.120  -0.621  -1.205  0.00  0.00    +0.015 C 
ATOM      9  C   UNL     1      -3.686  -1.028   0.003  0.00  0.00    +0.042 C 
BRANCH   9  10
ATOM     10  N   UNL     1      -4.831  -1.851   0.004  0.00  0.00    -0.357 N 
ATOM     11  H   UNL     1      -5.230  -2.138   0.857  0.00  0.00    +0.142 HD
ATOM     12  H   UNL     1      -5.232  -2.137  -0.848  0.00  0.00    +0.142 HD
ENDBRANCH   9  10
ENDBRANCH   1   4
BRANCH   1  13
ATOM     13  C   UNL     1       1.435   0.582  -0.001  0.00  0.00    +0.110 C 
ATOM     14  C   UNL     1       1.978   0.190  -1.210  0.00  0.00    +0.020 C 
ATOM     15  C   UNL     1       1.980   0.190   1.206  0.00  0.00    +0.020 C 
ATOM     16  C   UNL     1       3.110  -0.626  -1.211  0.00  0.00    +0.015 C 
ATOM     17  C   UNL     1       3.112  -0.626   1.205  0.00  0.00    +0.015 C 
ATOM     18  C   UNL     1       3.677  -1.034  -0.003  0.00  0.00    +0.042 C 
BRANCH  18  19
ATOM     19  N   UNL     1       4.821  -1.858  -0.004  0.00  0.00    -0.357 N 
ATOM     20  H   UNL     1       5.219  -2.146  -0.857  0.00  0.00    +0.142 HD
ATOM     21  H   UNL     1       5.221  -2.146   0.848  0.00  0.00    +0.142 HD
ENDBRANCH  18  19
ENDBRANCH   1  13
TORSDOF 4
