REMARK  Name = 3180
REMARK  8 active torsions:
REMARK  status: ('A' for Active; 'I' for Inactive)
REMARK    1  A    between atoms: C_2  and  C_3
REMARK    2  A    between atoms: C_2  and  C_14
REMARK    3  A    between atoms: C_6  and  O_9
REMARK    4  A    between atoms: O_9  and  C_10
REMARK    5  A    between atoms: C_10  and  C_11
REMARK    6  A    between atoms: C_11  and  C_12
REMARK    7  A    between atoms: C_14  and  C_15
REMARK    8  A    between atoms: C_15  and  N_16
REMARK                            x       y       z     vdW  Elec       q    Type
REMARK                         _______ _______ _______ _____ _____    ______ ____
ROOT
ATOM      1  O   UNL     1      -1.168  -2.384  -0.675  0.00  0.00    -0.291 OA
ATOM      2  C   UNL     1      -0.983  -1.278  -0.173  0.00  0.00    +0.171 C 
ENDROOT
BRANCH   2   3
ATOM      3  C   UNL     1       0.411  -0.836   0.124  0.00  0.00    +0.035 C 
ATOM      4  C   UNL     1       0.604   0.405   0.686  0.00  0.00    +0.006 C 
ATOM      5  C   UNL     1       1.450  -1.688  -0.175  0.00  0.00    +0.006 C 
ATOM      6  C   UNL     1       2.982  -0.022   0.673  0.00  0.00    +0.139 C 
ATOM      7  C   UNL     1       1.907   0.818   0.965  0.00  0.00    +0.037 C 
ATOM      8  C   UNL     1       2.753  -1.275   0.104  0.00  0.00    +0.037 C 
BRANCH   6   9
ATOM      9  O   UNL     1       4.253   0.380   0.947  0.00  0.00    -0.475 OA
BRANCH   9  10
ATOM     10  C   UNL     1       5.288  -0.125   0.105  0.00  0.00    +0.205 C 
BRANCH  10  11
ATOM     11  C   UNL     1       6.417   0.895   0.049  0.00  0.00    +0.047 C 
BRANCH  11  12
ATOM     12  C   UNL     1       7.556   0.426  -0.851  0.00  0.00    +0.004 C 
ATOM     13  C   UNL     1       8.661   1.466  -0.939  0.00  0.00    +0.000 C 
ENDBRANCH  11  12
ENDBRANCH  10  11
ENDBRANCH   9  10
ENDBRANCH   6   9
ENDBRANCH   2   3
BRANCH   2  14
ATOM     14  C   UNL     1      -2.134  -0.338   0.157  0.00  0.00    +0.046 C 
BRANCH  14  15
ATOM     15  C   UNL     1      -3.491  -0.947  -0.193  0.00  0.00    -0.069 C 
BRANCH  15  16
ATOM     16  N   UNL     1      -4.582  -0.037   0.155  0.00  0.00    +0.387 N 
ATOM     17  C   UNL     1      -5.883  -0.683  -0.070  0.00  0.00    -0.077 C 
ATOM     18  C   UNL     1      -4.471   1.214  -0.609  0.00  0.00    -0.077 C 
ATOM     19  C   UNL     1      -7.034   0.238   0.336  0.00  0.00    -0.023 C 
ATOM     20  C   UNL     1      -5.577   2.197  -0.221  0.00  0.00    -0.023 C 
ATOM     21  C   UNL     1      -6.958   1.575  -0.393  0.00  0.00    -0.004 C 
ATOM     22  H   UNL     1      -4.513   0.193   1.146  0.00  0.00    -0.080 HD
ENDBRANCH  15  16
ENDBRANCH  14  15
ENDBRANCH   2  14
TORSDOF 8
