REMARK  Name = 441350
REMARK  6 active torsions:
REMARK  status: ('A' for Active; 'I' for Inactive)
REMARK    1  A    between atoms: C_1  and  N_3
REMARK    2  A    between atoms: C_1  and  C_8
REMARK    3  A    between atoms: C_1  and  C_11
REMARK    4  A    between atoms: C_8  and  O_9
REMARK    5  A    between atoms: C_11  and  C_12
REMARK    6  A    between atoms: C_17  and  O_18
REMARK                            x       y       z     vdW  Elec       q    Type
REMARK                         _______ _______ _______ _____ _____    ______ ____
ROOT
ATOM      1  C   UNL     1      -2.071  -0.532  -0.011  0.00  0.00    +0.047 C 
ATOM      2  C   UNL     1      -1.903  -1.352   1.277  0.00  0.00    -0.011 C 
ENDROOT
BRANCH   1   3
ATOM      3  N   UNL     1      -3.373  -0.912  -0.579  0.00  0.00    +0.390 N 
ATOM      4  H   UNL     1      -3.365  -1.905  -0.813  0.00  0.00    -0.088 HD
ATOM      5  H   UNL     1      -3.549  -0.365  -1.422  0.00  0.00    -0.088 HD
ATOM      6  H   UNL     1      -4.108  -0.730   0.104  0.00  0.00    -0.088 HD
ENDBRANCH   1   3
BRANCH   1   8
ATOM      7  O   UNL     1      -2.758   1.788  -0.338  0.00  0.00    -0.253 OA
ATOM      8  C   UNL     1      -2.136   0.962   0.321  0.00  0.00    +0.295 C 
BRANCH   8   9
ATOM      9  O   UNL     1      -1.422   1.312   1.422  0.00  0.00    -0.482 OA
ATOM     10  H   UNL     1      -0.957   0.658   1.906  0.00  0.00    +0.295 HD
ENDBRANCH   8   9
ENDBRANCH   1   8
BRANCH   1  11
ATOM     11  C   UNL     1      -0.966  -0.852  -1.048  0.00  0.00    +0.017 C 
BRANCH  11  12
ATOM     12  C   UNL     1       0.442  -0.486  -0.633  0.00  0.00    -0.023 C 
ATOM     13  C   UNL     1       0.931   0.772  -0.937  0.00  0.00    -0.001 C 
ATOM     14  C   UNL     1       1.212  -1.419   0.040  0.00  0.00    -0.001 C 
ATOM     15  C   UNL     1       2.230   1.109  -0.556  0.00  0.00    +0.036 C 
ATOM     16  C   UNL     1       2.510  -1.083   0.422  0.00  0.00    +0.036 C 
ATOM     17  C   UNL     1       3.019   0.181   0.124  0.00  0.00    +0.134 C 
BRANCH  17  18
ATOM     18  O   UNL     1       4.286   0.511   0.496  0.00  0.00    -0.506 OA
ATOM     19  H   UNL     1       4.628   1.360   0.296  0.00  0.00    +0.292 HD
ENDBRANCH  17  18
ENDBRANCH  11  12
ENDBRANCH   1  11
TORSDOF 6
