REMARK  Name = 5311068
REMARK  2 active torsions:
REMARK  status: ('A' for Active; 'I' for Inactive)
REMARK    1  A    between atoms: C_1  and  C_3
REMARK    2  A    between atoms: C_1  and  C_13
REMARK                            x       y       z     vdW  Elec       q    Type
REMARK                         _______ _______ _______ _____ _____    ______ ____
ROOT
ATOM      1  C   UNL     1       0.725  -0.522  -1.083  0.00  0.00    +0.059 C 
ATOM      2  C   UNL     1       1.111  -1.851  -1.780  0.00  0.00    +0.011 C 
ENDROOT
BRANCH   1   3
ATOM      3  C   UNL     1      -0.607  -0.503  -0.407  0.00  0.00    -0.021 C 
ATOM      4  C   UNL     1      -1.393   0.649  -0.399  0.00  0.00    -0.029 C 
ATOM      5  C   UNL     1      -2.634   0.641   0.238  0.00  0.00    -0.026 C 
ATOM      6  C   UNL     1      -1.062  -1.663   0.220  0.00  0.00    -0.004 C 
ATOM      7  C   UNL     1      -0.905   1.892  -1.071  0.00  0.00    +0.030 C 
ATOM      8  C   UNL     1      -3.089  -0.519   0.866  0.00  0.00    -0.005 C 
ATOM      9  C   UNL     1      -2.303  -1.671   0.857  0.00  0.00    -0.001 C 
ATOM     10  C   UNL     1      -3.495   1.862   0.263  0.00  0.00    +0.031 C 
ENDBRANCH   1   3
BRANCH   1  13
ATOM     11  N   UNL     1       2.581   1.022  -0.469  0.00  0.00    -0.318 N 
ATOM     12  N   UNL     1       3.373   0.177   1.426  0.00  0.00    -0.315 N 
ATOM     13  C   UNL     1       1.871  -0.063  -0.167  0.00  0.00    +0.041 C 
ATOM     14  C   UNL     1       2.329  -0.588   0.968  0.00  0.00    +0.069 C 
ATOM     15  C   UNL     1       3.499   1.138   0.537  0.00  0.00    +0.182 C 
ATOM     16  H   UNL     1       2.469   1.613  -1.249  0.00  0.00    +0.148 HD
ATOM     17  H   UNL     1       3.908   0.037   2.240  0.00  0.00    +0.148 HD
ENDBRANCH   1  13
TORSDOF 2
