REMARK  Name = 2145
REMARK  3 active torsions:
REMARK  status: ('A' for Active; 'I' for Inactive)
REMARK    1  A    between atoms: C_4  and  C_10
REMARK    2  A    between atoms: C_4  and  C_19
REMARK    3  A    between atoms: C_15  and  N_16
REMARK                            x       y       z     vdW  Elec       q    Type
REMARK                         _______ _______ _______ _____ _____    ______ ____
ROOT
ATOM      1  O   UNL     1       1.675   0.949   2.060  0.00  0.00    -0.274 OA
ATOM      2  O   UNL     1       2.744  -2.879  -0.249  0.00  0.00    -0.275 OA
ATOM      3  N   UNL     1       2.193  -0.935   0.858  0.00  0.00    -0.255 N 
ATOM      4  C   UNL     1       0.748   0.800  -0.184  0.00  0.00    +0.088 C 
ATOM      5  C   UNL     1       1.417   0.269  -1.471  0.00  0.00    +0.022 C 
ATOM      6  C   UNL     1       1.491  -1.250  -1.472  0.00  0.00    +0.086 C 
ATOM      7  C   UNL     1       1.585   0.310   1.009  0.00  0.00    +0.231 C 
ATOM      8  C   UNL     1       2.213  -1.768  -0.255  0.00  0.00    +0.228 C 
ATOM      9  H   UNL     1       2.674  -1.272   1.648  0.00  0.00    +0.158 HD
ENDROOT
BRANCH   4  10
ATOM     10  C   UNL     1      -0.731   0.387  -0.084  0.00  0.00    -0.015 C 
ATOM     11  C   UNL     1      -1.168  -0.353   1.010  0.00  0.00    -0.003 C 
ATOM     12  C   UNL     1      -1.619   0.755  -1.089  0.00  0.00    -0.003 C 
ATOM     13  C   UNL     1      -2.509  -0.728   1.100  0.00  0.00    +0.014 C 
ATOM     14  C   UNL     1      -2.959   0.380  -0.999  0.00  0.00    +0.014 C 
ATOM     15  C   UNL     1      -3.404  -0.361   0.096  0.00  0.00    +0.042 C 
BRANCH  15  16
ATOM     16  N   UNL     1      -4.760  -0.740   0.187  0.00  0.00    -0.357 N 
ATOM     17  H   UNL     1      -5.073  -1.264   0.960  0.00  0.00    +0.142 HD
ATOM     18  H   UNL     1      -5.392  -0.481  -0.521  0.00  0.00    +0.142 HD
ENDBRANCH  15  16
ENDBRANCH   4  10
BRANCH   4  19
ATOM     19  C   UNL     1       0.826   2.345  -0.194  0.00  0.00    +0.013 C 
ATOM     20  C   UNL     1       2.259   2.819  -0.324  0.00  0.00    +0.001 C 
ENDBRANCH   4  19
TORSDOF 3
