REMARK  Name = 2119
REMARK  9 active torsions:
REMARK  status: ('A' for Active; 'I' for Inactive)
REMARK    1  A    between atoms: C_1  and  O_2
REMARK    2  A    between atoms: C_1  and  C_12
REMARK    3  A    between atoms: O_2  and  C_3
REMARK    4  A    between atoms: C_4  and  C_9
REMARK    5  A    between atoms: C_9  and  C_10
REMARK    6  A    between atoms: C_12  and  O_13
REMARK    7  A    between atoms: C_12  and  C_15
REMARK    8  A    between atoms: C_15  and  N_16
REMARK    9  A    between atoms: N_16  and  C_19
REMARK                            x       y       z     vdW  Elec       q    Type
REMARK                         _______ _______ _______ _____ _____    ______ ____
ROOT
ATOM      1  C   UNL     1       0.883   0.440  -1.993  0.00  0.00    +0.232 C 
ENDROOT
BRANCH   1   2
ATOM      2  O   UNL     1      -0.176  -0.246  -1.333  0.00  0.00    -0.473 OA
BRANCH   2   3
ATOM      3  C   UNL     1      -1.109   0.529  -0.698  0.00  0.00    +0.135 C 
ATOM      4  C   UNL     1      -1.773   0.055   0.429  0.00  0.00    +0.016 C 
ATOM      5  C   UNL     1      -1.383   1.799  -1.196  0.00  0.00    +0.037 C 
ATOM      6  C   UNL     1      -2.721   0.858   1.064  0.00  0.00    -0.001 C 
ATOM      7  C   UNL     1      -2.331   2.603  -0.562  0.00  0.00    +0.003 C 
ATOM      8  C   UNL     1      -3.000   2.132   0.568  0.00  0.00    -0.000 C 
BRANCH   4   9
ATOM      9  C   UNL     1      -1.488  -1.306   0.973  0.00  0.00    +0.055 C 
BRANCH   9  10
ATOM     10  C   UNL     1      -2.368  -2.374   0.379  0.00  0.00    -0.021 C 
ATOM     11  C   UNL     1      -3.231  -3.114   1.083  0.00  0.00    -0.005 C 
ENDBRANCH   9  10
ENDBRANCH   4   9
ENDBRANCH   2   3
ENDBRANCH   1   2
BRANCH   1  12
ATOM     12  C   UNL     1       2.134  -0.435  -1.958  0.00  0.00    +0.133 C 
BRANCH  12  13
ATOM     13  O   UNL     1       1.840  -1.677  -2.606  0.00  0.00    -0.383 OA
ATOM     14  H   UNL     1       2.627  -2.243  -2.591  0.00  0.00    +0.210 HD
ENDBRANCH  12  13
BRANCH  12  15
ATOM     15  C   UNL     1       2.622  -0.739  -0.540  0.00  0.00    -0.048 C 
BRANCH  15  16
ATOM     16  N   UNL     1       2.911   0.475   0.212  0.00  0.00    +0.387 N 
ATOM     17  H   UNL     1       2.074   1.057   0.240  0.00  0.00    -0.084 HD
ATOM     18  H   UNL     1       3.674   0.969  -0.250  0.00  0.00    -0.084 HD
BRANCH  16  19
ATOM     19  C   UNL     1       3.318   0.159   1.574  0.00  0.00    -0.062 C 
ATOM     20  C   UNL     1       3.660   1.448   2.313  0.00  0.00    -0.023 C 
ATOM     21  C   UNL     1       2.212  -0.609   2.293  0.00  0.00    -0.023 C 
ENDBRANCH  16  19
ENDBRANCH  15  16
ENDBRANCH  12  15
ENDBRANCH   1  12
TORSDOF 9
