REMARK  Name = 2160
REMARK  3 active torsions:
REMARK  status: ('A' for Active; 'I' for Inactive)
REMARK    1  A    between atoms: C_8  and  C_17
REMARK    2  A    between atoms: C_17  and  C_18
REMARK    3  A    between atoms: C_18  and  N_19
REMARK                            x       y       z     vdW  Elec       q    Type
REMARK                         _______ _______ _______ _____ _____    ______ ____
ROOT
ATOM      1  C   UNL     1      -1.878   0.830  -1.794  0.00  0.00    +0.031 C 
ATOM      2  C   UNL     1      -0.378   1.083  -1.947  0.00  0.00    +0.031 C 
ATOM      3  C   UNL     1      -0.211  -0.205   0.632  0.00  0.00    -0.005 C 
ATOM      4  C   UNL     1      -2.356  -0.161  -0.747  0.00  0.00    -0.022 C 
ATOM      5  C   UNL     1       0.192   1.819  -0.761  0.00  0.00    -0.022 C 
ATOM      6  C   UNL     1      -1.608  -0.633   0.354  0.00  0.00    -0.004 C 
ATOM      7  C   UNL     1       0.266   1.187   0.491  0.00  0.00    -0.004 C 
ATOM      8  C   UNL     1       0.718  -1.131   0.940  0.00  0.00    -0.028 C 
ATOM      9  C   UNL     1      -3.691  -0.599  -0.895  0.00  0.00    -0.004 C 
ATOM     10  C   UNL     1       0.645   3.139  -0.894  0.00  0.00    -0.004 C 
ATOM     11  C   UNL     1      -2.229  -1.514   1.267  0.00  0.00    -0.000 C 
ATOM     12  C   UNL     1       0.785   1.885   1.592  0.00  0.00    -0.000 C 
ATOM     13  C   UNL     1      -4.277  -1.482   0.009  0.00  0.00    -0.000 C 
ATOM     14  C   UNL     1       1.164   3.824   0.205  0.00  0.00    -0.000 C 
ATOM     15  C   UNL     1      -3.545  -1.939   1.093  0.00  0.00    -0.000 C 
ATOM     16  C   UNL     1       1.232   3.198   1.447  0.00  0.00    -0.000 C 
ENDROOT
BRANCH   8  17
ATOM     17  C   UNL     1       2.147  -0.806   1.236  0.00  0.00    +0.003 C 
BRANCH  17  18
ATOM     18  C   UNL     1       3.067  -1.950   0.810  0.00  0.00    -0.073 C 
BRANCH  18  19
ATOM     19  N   UNL     1       2.925  -2.208  -0.618  0.00  0.00    +0.384 N 
ATOM     20  C   UNL     1       3.776  -3.327  -1.026  0.00  0.00    -0.101 C 
ATOM     21  C   UNL     1       3.256  -1.010  -1.393  0.00  0.00    -0.101 C 
ATOM     22  H   UNL     1       1.953  -2.455  -0.803  0.00  0.00    -0.080 HD
ENDBRANCH  18  19
ENDBRANCH  17  18
ENDBRANCH   8  17
TORSDOF 3
