REMARK  Name = 5280980
REMARK  4 active torsions:
REMARK  status: ('A' for Active; 'I' for Inactive)
REMARK    1  A    between atoms: C_5  and  C_11
REMARK    2  A    between atoms: C_9  and  C_14
REMARK    3  A    between atoms: C_11  and  O_12
REMARK    4  A    between atoms: C_14  and  O_15
REMARK                            x       y       z     vdW  Elec       q    Type
REMARK                         _______ _______ _______ _____ _____    ______ ____
ROOT
ATOM      1  O   UNL     1      -0.598   1.057   0.990  0.00  0.00    -0.462 OA
ATOM      2  O   UNL     1       2.728   1.149  -1.525  0.00  0.00    -0.275 OA
ATOM      3  N   UNL     1       1.423   0.137   0.161  0.00  0.00    -0.232 N 
ATOM      4  C   UNL     1       0.839   1.023   1.171  0.00  0.00    +0.256 C 
ATOM      5  C   UNL     1       0.397  -0.665  -0.452  0.00  0.00    +0.234 C 
ATOM      6  C   UNL     1       1.701   2.154   0.584  0.00  0.00    +0.151 C 
ATOM      7  C   UNL     1       2.124   1.121  -0.476  0.00  0.00    +0.234 C 
ATOM      8  C   UNL     1      -0.845   0.027   0.061  0.00  0.00    +0.145 C 
ATOM      9  C   UNL     1      -2.091  -0.241  -0.344  0.00  0.00    +0.040 C 
ENDROOT
BRANCH   5  11
ATOM     10  O   UNL     1       0.436  -2.313   1.309  0.00  0.00    -0.248 OA
ATOM     11  C   UNL     1       0.495  -2.041   0.119  0.00  0.00    +0.340 C 
BRANCH  11  12
ATOM     12  O   UNL     1       0.661  -2.957  -0.866  0.00  0.00    -0.479 OA
ATOM     13  H   UNL     1       0.698  -2.682  -1.761  0.00  0.00    +0.295 HD
ENDBRANCH  11  12
ENDBRANCH   5  11
BRANCH   9  14
ATOM     14  C   UNL     1      -3.305   0.455   0.176  0.00  0.00    +0.166 C 
BRANCH  14  15
ATOM     15  O   UNL     1      -3.965   1.094  -0.907  0.00  0.00    -0.377 OA
ATOM     16  H   UNL     1      -4.756   1.550  -0.581  0.00  0.00    +0.211 HD
ENDBRANCH  14  15
ENDBRANCH   9  14
TORSDOF 4
