REMARK  Name = 6323481
REMARK  18 active torsions:
REMARK  status: ('A' for Active; 'I' for Inactive)
REMARK    1  A    between atoms: P_1  and  O_3
REMARK    2  A    between atoms: P_1  and  O_5
REMARK    3  A    between atoms: P_1  and  O_20
REMARK    4  A    between atoms: O_5  and  C_6
REMARK    5  A    between atoms: C_6  and  C_7
REMARK    6  A    between atoms: C_7  and  O_8
REMARK    7  A    between atoms: C_7  and  C_14
REMARK    8  A    between atoms: O_8  and  C_10
REMARK    9  A    between atoms: C_10  and  C_11
REMARK   10  A    between atoms: C_11  and  C_12
REMARK   11  A    between atoms: C_14  and  O_15
REMARK   12  A    between atoms: O_15  and  C_17
REMARK   13  A    between atoms: C_17  and  C_18
REMARK   14  A    between atoms: O_20  and  C_21
REMARK   15  A    between atoms: C_21  and  C_22
REMARK   16  A    between atoms: C_22  and  N_23
REMARK   17  A    between atoms: C_22  and  C_28
REMARK   18  A    between atoms: C_28  and  O_29
REMARK                            x       y       z     vdW  Elec       q    Type
REMARK                         _______ _______ _______ _____ _____    ______ ____
ROOT
ATOM      1  P   UNK     1      -1.243  -2.943  -0.365  0.00  0.00    +0.476 P 
ATOM      2  O   UNK     1      -1.065  -4.149   0.512  0.00  0.00    -0.227 OA
ENDROOT
BRANCH   1   3
ATOM      3  O   UNK     1      -1.265  -3.276  -1.949  0.00  0.00    -0.302 OA
ATOM      4  H   UNK     1      -1.383  -2.454  -2.450  0.00  0.00    +0.222 HD
ENDBRANCH   1   3
BRANCH   1   5
ATOM      5  O   UNK     1      -0.067  -1.841  -0.244  0.00  0.00    -0.269 OA
BRANCH   5   6
ATOM      6  C   UNK     1       0.167  -1.242   1.026  0.00  0.00    +0.201 C 
BRANCH   6   7
ATOM      7  C   UNK     1       1.310  -0.238   0.922  0.00  0.00    +0.242 C 
BRANCH   7   8
ATOM      8  O   UNK     1       0.963   0.754  -0.051  0.00  0.00    -0.446 OA
BRANCH   8  10
ATOM      9  O   UNK     1      -0.011   2.037   1.602  0.00  0.00    -0.250 OA
ATOM     10  C   UNK     1       0.300   1.846   0.434  0.00  0.00    +0.317 C 
BRANCH  10  11
ATOM     11  C   UNK     1       0.009   2.789  -0.711  0.00  0.00    +0.110 C 
BRANCH  11  12
ATOM     12  C   UNK     1      -0.756   4.027  -0.251  0.00  0.00    +0.012 C 
ATOM     13  C   UNK     1      -1.015   4.983  -1.405  0.00  0.00    +0.001 C 
ENDBRANCH  11  12
ENDBRANCH  10  11
ENDBRANCH   8  10
ENDBRANCH   7   8
BRANCH   7  14
ATOM     14  C   UNK     1       2.600  -0.908   0.469  0.00  0.00    +0.254 C 
BRANCH  14  15
ATOM     15  O   UNK     1       3.621   0.079   0.363  0.00  0.00    -0.444 OA
BRANCH  15  17
ATOM     16  O   UNK     1       5.128  -1.537  -0.303  0.00  0.00    -0.250 OA
ATOM     17  C   UNK     1       4.849  -0.376  -0.036  0.00  0.00    +0.317 C 
BRANCH  17  18
ATOM     18  C   UNK     1       5.812   0.787  -0.099  0.00  0.00    +0.110 C 
ATOM     19  C   UNK     1       7.205   0.353  -0.519  0.00  0.00    +0.012 C 
ENDBRANCH  17  18
ENDBRANCH  15  17
ENDBRANCH  14  15
ENDBRANCH   7  14
ENDBRANCH   6   7
ENDBRANCH   5   6
ENDBRANCH   1   5
BRANCH   1  20
ATOM     20  O   UNK     1      -2.615  -2.120  -0.113  0.00  0.00    -0.275 OA
BRANCH  20  21
ATOM     21  C   UNK     1      -2.898  -0.962  -0.879  0.00  0.00    +0.143 C 
BRANCH  21  22
ATOM     22  C   UNK     1      -4.242  -0.383  -0.444  0.00  0.00    +0.066 C 
BRANCH  22  23
ATOM     23  N   UNK     1      -4.772   0.482  -1.496  0.00  0.00    +0.390 N 
ATOM     24  H   UNK     1      -4.894  -0.059  -2.353  0.00  0.00    -0.088 HD
ATOM     25  H   UNK     1      -4.120   1.248  -1.668  0.00  0.00    -0.088 HD
ATOM     26  H   UNK     1      -5.672   0.862  -1.203  0.00  0.00    -0.088 HD
ENDBRANCH  22  23
BRANCH  22  28
ATOM     27  O   UNK     1      -4.306   1.663   0.897  0.00  0.00    -0.253 OA
ATOM     28  C   UNK     1      -4.080   0.465   0.802  0.00  0.00    +0.295 C 
BRANCH  28  29
ATOM     29  O   UNK     1      -3.630  -0.291   1.837  0.00  0.00    -0.482 OA
ATOM     30  H   UNK     1      -3.471  -1.207   1.714  0.00  0.00    +0.295 HD
ENDBRANCH  28  29
ENDBRANCH  22  28
ENDBRANCH  21  22
ENDBRANCH  20  21
ENDBRANCH   1  20
TORSDOF 18
