REMARK  Name = 25419
REMARK  6 active torsions:
REMARK  status: ('A' for Active; 'I' for Inactive)
REMARK    1  A    between atoms: C_3  and  P_4
REMARK    2  A    between atoms: C_3  and  P_10
REMARK    3  A    between atoms: P_4  and  O_6
REMARK    4  A    between atoms: P_4  and  O_8
REMARK    5  A    between atoms: P_10  and  O_12
REMARK    6  A    between atoms: P_10  and  O_14
REMARK                            x       y       z     vdW  Elec       q    Type
REMARK                         _______ _______ _______ _____ _____    ______ ____
ROOT
ATOM      1 CL   UNL     1      -0.005  -1.649   1.464  0.00  0.00    -0.075 Cl
ATOM      2 CL   UNL     1      -0.049  -1.707  -1.438  0.00  0.00    -0.075 Cl
ATOM      3  C   UNL     1      -0.003  -0.623  -0.010  0.00  0.00    +0.317 C 
ENDROOT
BRANCH   3   4
ATOM      4  P   UNL     1      -1.598   0.231  -0.001  0.00  0.00    +0.375 P 
ATOM      5  O   UNL     1      -2.807  -0.658   0.001  0.00  0.00    -0.255 OA
BRANCH   4   6
ATOM      6  O   UNL     1      -1.492   1.238  -1.262  0.00  0.00    -0.322 OA
ATOM      7  H   UNL     1      -2.314   1.747  -1.339  0.00  0.00    +0.220 HD
ENDBRANCH   4   6
BRANCH   4   8
ATOM      8  O   UNL     1      -1.480   1.228   1.266  0.00  0.00    -0.322 OA
ATOM      9  H   UNL     1      -2.301   1.738   1.354  0.00  0.00    +0.220 HD
ENDBRANCH   4   8
ENDBRANCH   3   4
BRANCH   3  10
ATOM     10  P   UNL     1       1.599   0.217  -0.014  0.00  0.00    +0.375 P 
ATOM     11  O   UNL     1       2.778  -0.712  -0.021  0.00  0.00    -0.255 OA
BRANCH  10  12
ATOM     12  O   UNL     1       1.534   1.244  -1.261  0.00  0.00    -0.322 OA
ATOM     13  H   UNL     1       2.370   1.732  -1.322  0.00  0.00    +0.220 HD
ENDBRANCH  10  12
BRANCH  10  14
ATOM     14  O   UNL     1       1.524   1.191   1.276  0.00  0.00    -0.322 OA
ATOM     15  H   UNL     1       2.353   1.688   1.353  0.00  0.00    +0.220 HD
ENDBRANCH  10  14
ENDBRANCH   3  10
TORSDOF 6
