REMARK  Name = 6916249
REMARK  4 active torsions:
REMARK  status: ('A' for Active; 'I' for Inactive)
REMARK    1  A    between atoms: N_1  and  C_23
REMARK    2  A    between atoms: C_3  and  O_19
REMARK    3  A    between atoms: C_16  and  O_21
REMARK    4  A    between atoms: C_23  and  C_24
REMARK                            x       y       z     vdW  Elec       q    Type
REMARK                         _______ _______ _______ _____ _____    ______ ____
ROOT
ATOM      1  N   UNL     1       1.672  -0.204  -0.173  0.00  0.00    +0.390 N 
ATOM      2  C   UNL     1      -0.940   1.006   0.400  0.00  0.00    +0.037 C 
ATOM      3  C   UNL     1      -0.124   1.345  -0.888  0.00  0.00    +0.075 C 
ATOM      4  C   UNL     1       0.720   0.102  -1.260  0.00  0.00    -0.028 C 
ATOM      5  C   UNL     1       0.044   0.587   1.532  0.00  0.00    -0.017 C 
ATOM      6  C   UNL     1      -1.750   2.263   0.833  0.00  0.00    +0.006 C 
ATOM      7  C   UNL     1       0.742   2.614  -0.720  0.00  0.00    +0.025 C 
ATOM      8  C   UNL     1      -1.852  -0.212   0.129  0.00  0.00    -0.022 C 
ATOM      9  C   UNL     1       1.032  -0.511   1.107  0.00  0.00    -0.077 C 
ATOM     10  C   UNL     1      -0.226  -1.053  -1.666  0.00  0.00    +0.008 C 
ATOM     11  C   UNL     1      -0.919   3.546   0.937  0.00  0.00    +0.000 C 
ATOM     12  C   UNL     1      -0.102   3.822  -0.317  0.00  0.00    +0.002 C 
ATOM     13  C   UNL     1      -1.482  -1.181  -0.832  0.00  0.00    -0.028 C 
ATOM     14  C   UNL     1      -3.031  -0.427   0.868  0.00  0.00    +0.032 C 
ATOM     15  C   UNL     1      -2.306  -2.297  -1.057  0.00  0.00    -0.002 C 
ATOM     16  C   UNL     1      -3.837  -1.544   0.638  0.00  0.00    +0.133 C 
ATOM     17  C   UNL     1      -3.478  -2.476  -0.327  0.00  0.00    +0.036 C 
ATOM     18  H   UNL     1       2.180   0.670  -0.038  0.00  0.00    -0.080 HD
ENDROOT
BRANCH   3  19
ATOM     19  O   UNL     1      -1.041   1.630  -1.960  0.00  0.00    -0.388 OA
ATOM     20  H   UNL     1      -1.613   0.861  -2.109  0.00  0.00    +0.210 HD
ENDBRANCH   3  19
BRANCH  16  21
ATOM     21  O   UNL     1      -4.974  -1.722   1.365  0.00  0.00    -0.506 OA
ATOM     22  H   UNL     1      -5.217  -1.093   2.016  0.00  0.00    +0.292 HD
ENDBRANCH  16  21
BRANCH   1  23
ATOM     23  C   UNL     1       2.659  -1.217  -0.531  0.00  0.00    -0.077 C 
BRANCH  23  24
ATOM     24  C   UNL     1       3.756  -1.289   0.482  0.00  0.00    -0.021 C 
ATOM     25  C   UNL     1       4.557   0.016   0.666  0.00  0.00    -0.002 C 
ATOM     26  C   UNL     1       5.064  -1.931  -0.026  0.00  0.00    -0.002 C 
ATOM     27  C   UNL     1       5.816  -0.866   0.800  0.00  0.00    -0.000 C 
ENDBRANCH  23  24
ENDBRANCH   1  23
TORSDOF 4
