REMARK  Name = 62307
REMARK  5 active torsions:
REMARK  status: ('A' for Active; 'I' for Inactive)
REMARK    1  A    between atoms: N_1  and  C_18
REMARK    2  A    between atoms: C_2  and  N_9
REMARK    3  A    between atoms: N_9  and  C_12
REMARK    4  A    between atoms: C_18  and  C_20
REMARK    5  A    between atoms: C_20  and  C_21
REMARK                            x       y       z     vdW  Elec       q    Type
REMARK                         _______ _______ _______ _____ _____    ______ ____
ROOT
ATOM      1  N   UNL     1      -0.921   0.105  -0.344  0.00  0.00    +0.389 N 
ATOM      2  C   UNL     1       1.771  -1.029  -0.506  0.00  0.00    +0.076 C 
ATOM      3  C   UNL     1       1.361   0.217  -1.292  0.00  0.00    -0.003 C 
ATOM      4  C   UNL     1       0.895  -1.181   0.737  0.00  0.00    -0.003 C 
ATOM      5  C   UNL     1      -0.140   0.220  -1.584  0.00  0.00    -0.076 C 
ATOM      6  C   UNL     1      -0.592  -1.131   0.378  0.00  0.00    -0.076 C 
ATOM      7  H   UNL     1      -0.678   0.894   0.255  0.00  0.00    -0.080 HD
ENDROOT
BRANCH   2   9
ATOM      8  O   UNL     1       3.565  -3.320  -0.026  0.00  0.00    -0.275 OA
ATOM      9  N   UNL     1       3.167  -0.981  -0.148  0.00  0.00    -0.260 N 
ATOM     10  C   UNL     1       3.949  -2.151   0.063  0.00  0.00    +0.230 C 
ATOM     11  C   UNL     1       5.406  -1.909   0.385  0.00  0.00    +0.095 C 
BRANCH   9  12
ATOM     12  C   UNL     1       3.756   0.334   0.094  0.00  0.00    +0.054 C 
ATOM     13  C   UNL     1       4.386   0.945  -0.949  0.00  0.00    +0.015 C 
ATOM     14  C   UNL     1       3.636   0.859   1.347  0.00  0.00    +0.015 C 
ATOM     15  C   UNL     1       4.948   2.201  -0.718  0.00  0.00    +0.001 C 
ATOM     16  C   UNL     1       4.198   2.114   1.577  0.00  0.00    +0.001 C 
ATOM     17  C   UNL     1       4.854   2.785   0.545  0.00  0.00    +0.000 C 
ENDBRANCH   9  12
ENDBRANCH   2   9
BRANCH   1  18
ATOM     18  C   UNL     1      -2.354   0.160  -0.636  0.00  0.00    -0.054 C 
ATOM     19  C   UNL     1      -2.645   1.468  -1.372  0.00  0.00    -0.023 C 
BRANCH  18  20
ATOM     20  C   UNL     1      -3.151   0.032   0.675  0.00  0.00    +0.006 C 
BRANCH  20  21
ATOM     21  C   UNL     1      -4.647   0.038   0.476  0.00  0.00    -0.024 C 
ATOM     22  C   UNL     1      -5.331   1.244   0.499  0.00  0.00    -0.004 C 
ATOM     23  C   UNL     1      -5.311  -1.162   0.276  0.00  0.00    -0.004 C 
ATOM     24  C   UNL     1      -6.713   1.249   0.316  0.00  0.00    -0.000 C 
ATOM     25  C   UNL     1      -6.693  -1.156   0.092  0.00  0.00    -0.000 C 
ATOM     26  C   UNL     1      -7.395   0.049   0.112  0.00  0.00    -0.000 C 
ENDBRANCH  20  21
ENDBRANCH  18  20
ENDBRANCH   1  18
TORSDOF 5
