REMARK  Name = 2478
REMARK  7 active torsions:
REMARK  status: ('A' for Active; 'I' for Inactive)
REMARK    1  A    between atoms: C_1  and  C_2
REMARK    2  A    between atoms: C_1  and  C_9
REMARK    3  A    between atoms: C_2  and  C_3
REMARK    4  A    between atoms: C_3  and  O_4
REMARK    5  A    between atoms: O_4  and  S_5
REMARK    6  A    between atoms: C_9  and  O_10
REMARK    7  A    between atoms: O_10  and  S_11
REMARK                            x       y       z     vdW  Elec       q    Type
REMARK                         _______ _______ _______ _____ _____    ______ ____
ROOT
ATOM      1  C   UNL     1      -0.622   0.440  -0.025  0.00  0.00    +0.037 C 
ENDROOT
BRANCH   1   2
ATOM      2  C   UNL     1       0.622  -0.440  -0.037  0.00  0.00    +0.037 C 
BRANCH   2   3
ATOM      3  C   UNL     1       1.898   0.389  -0.015  0.00  0.00    +0.172 C 
BRANCH   3   4
ATOM      4  O   UNL     1       3.016  -0.487  -0.012  0.00  0.00    -0.242 OA
BRANCH   4   5
ATOM      5  S   UNL     1       4.517   0.156   0.011  0.00  0.00    -0.005 S 
ATOM      6  O   UNL     1       4.744   0.802   1.288  0.00  0.00    -0.072 OA
ATOM      7  O   UNL     1       4.771   0.830  -1.246  0.00  0.00    -0.072 OA
ATOM      8  C   UNL     1       5.402  -1.382   0.004  0.00  0.00    +0.181 C 
ENDBRANCH   4   5
ENDBRANCH   3   4
ENDBRANCH   2   3
ENDBRANCH   1   2
BRANCH   1   9
ATOM      9  C   UNL     1      -1.898  -0.389  -0.005  0.00  0.00    +0.172 C 
BRANCH   9  10
ATOM     10  O   UNL     1      -3.016   0.487  -0.009  0.00  0.00    -0.242 OA
BRANCH  10  11
ATOM     11  S   UNL     1      -4.517  -0.156   0.010  0.00  0.00    -0.005 S 
ATOM     12  O   UNL     1      -4.749  -0.798   1.288  0.00  0.00    -0.072 OA
ATOM     13  O   UNL     1      -4.767  -0.834  -1.246  0.00  0.00    -0.072 OA
ATOM     14  C   UNL     1      -5.402   1.382  -0.005  0.00  0.00    +0.181 C 
ENDBRANCH  10  11
ENDBRANCH   9  10
ENDBRANCH   1   9
TORSDOF 7
