REMARK  Name = 68238
REMARK  0 active torsions:
REMARK  status: ('A' for Active; 'I' for Inactive)
REMARK                            x       y       z     vdW  Elec       q    Type
REMARK                         _______ _______ _______ _____ _____    ______ ____
ROOT
ATOM      1  O   UNL     1       0.002   2.657  -0.044  0.00  0.00    -0.287 OA
ATOM      2  O   UNL     1      -0.002  -2.657   0.037  0.00  0.00    -0.287 OA
ATOM      3  C   UNL     1      -1.285   0.672   0.004  0.00  0.00    +0.016 C 
ATOM      4  C   UNL     1       1.286   0.671   0.004  0.00  0.00    +0.016 C 
ATOM      5  C   UNL     1      -1.286  -0.671  -0.002  0.00  0.00    +0.016 C 
ATOM      6  C   UNL     1       1.285  -0.672  -0.002  0.00  0.00    +0.016 C 
ATOM      7  C   UNL     1       0.001   1.428  -0.011  0.00  0.00    +0.187 C 
ATOM      8  C   UNL     1      -0.001  -1.428   0.009  0.00  0.00    +0.187 C 
ATOM      9  C   UNL     1      -2.516   1.538   0.041  0.00  0.00    +0.034 C 
ATOM     10  C   UNL     1       2.518   1.535   0.040  0.00  0.00    +0.034 C 
ATOM     11  C   UNL     1      -2.518  -1.535  -0.037  0.00  0.00    +0.034 C 
ATOM     12  C   UNL     1       2.516  -1.538  -0.037  0.00  0.00    +0.034 C 
ENDROOT
TORSDOF 0
