REMARK  Name = 6464
REMARK  3 active torsions:
REMARK  status: ('A' for Active; 'I' for Inactive)
REMARK    1  A    between atoms: C_6  and  C_12
REMARK    2  A    between atoms: C_6  and  C_15
REMARK    3  A    between atoms: C_15  and  C_16
REMARK                            x       y       z     vdW  Elec       q    Type
REMARK                         _______ _______ _______ _____ _____    ______ ____
ROOT
ATOM      1  O   UNL     1      -0.684  -1.442   1.665  0.00  0.00    -0.274 OA
ATOM      2  O   UNL     1       0.084   1.061  -2.233  0.00  0.00    -0.274 OA
ATOM      3  O   UNL     1       3.581  -0.763   0.113  0.00  0.00    -0.252 OA
ATOM      4  N   UNL     1       1.452  -1.018   0.942  0.00  0.00    -0.239 N 
ATOM      5  N   UNL     1       1.835   0.232  -1.005  0.00  0.00    -0.239 N 
ATOM      6  C   UNL     1      -0.389   0.322   0.027  0.00  0.00    +0.142 C 
ATOM      7  C   UNL     1       0.081  -0.808   0.938  0.00  0.00    +0.237 C 
ATOM      8  C   UNL     1       0.500   0.558  -1.190  0.00  0.00    +0.237 C 
ATOM      9  C   UNL     1       2.376  -0.519   0.032  0.00  0.00    +0.312 C 
ATOM     10  H   UNL     1       1.808  -1.581   1.667  0.00  0.00    +0.159 HD
ATOM     11  H   UNL     1       2.468   0.569  -1.680  0.00  0.00    +0.159 HD
ENDROOT
BRANCH   6  12
ATOM     12  C   UNL     1      -0.361   1.614   0.863  0.00  0.00    +0.017 C 
ATOM     13  C   UNL     1      -0.786   2.804   0.010  0.00  0.00    +0.001 C 
ATOM     14  C   UNL     1      -1.260   1.473   2.085  0.00  0.00    +0.001 C 
ENDBRANCH   6  12
BRANCH   6  15
ATOM     15  C   UNL     1      -1.827   0.046  -0.433  0.00  0.00    +0.043 C 
BRANCH  15  16
ATOM     16  C   UNL     1      -1.919  -1.275  -1.122  0.00  0.00    -0.025 C 
ATOM     17  C   UNL     1      -2.683  -2.285  -0.691  0.00  0.00    -0.005 C 
ENDBRANCH  15  16
ENDBRANCH   6  15
TORSDOF 3
