REMARK  Name = 23897
REMARK  3 active torsions:
REMARK  status: ('A' for Active; 'I' for Inactive)
REMARK    1  A    between atoms: C_3  and  C_15
REMARK    2  A    between atoms: C_9  and  C_13
REMARK    3  A    between atoms: C_15  and  N_17
REMARK                            x       y       z     vdW  Elec       q    Type
REMARK                         _______ _______ _______ _____ _____    ______ ____
ROOT
ATOM      1  O   UNL     1       0.744  -2.057   0.219  0.00  0.00    -0.291 OA
ATOM      2  N   UNL     1       3.097   1.847  -0.002  0.00  0.00    -0.360 N 
ATOM      3  C   UNL     1      -0.643  -0.079  -0.066  0.00  0.00    +0.042 C 
ATOM      4  C   UNL     1      -0.577   1.348   0.527  0.00  0.00    +0.012 C 
ATOM      5  C   UNL     1       0.586   2.170  -0.054  0.00  0.00    +0.044 C 
ATOM      6  C   UNL     1       1.892  -0.023   0.087  0.00  0.00    +0.043 A 
ATOM      7  C   UNL     1       1.823   1.352   0.008  0.00  0.00    +0.036 A 
ATOM      8  C   UNL     1       0.689  -0.835   0.115  0.00  0.00    +0.171 C 
ATOM      9  C   UNL     1       3.262  -0.372   0.137  0.00  0.00    -0.007 A 
ATOM     10  C   UNL     1       3.984   0.803   0.079  0.00  0.00    +0.030 A 
ATOM     11  C   UNL     1       5.441   1.044   0.093  0.00  0.00    +0.049 C 
ATOM     12  H   UNL     1       3.339   2.800  -0.058  0.00  0.00    +0.165 HD
ENDROOT
BRANCH   9  13
ATOM     13  C   UNL     1       3.828  -1.734   0.231  0.00  0.00    +0.028 C 
ATOM     14  C   UNL     1       4.085  -2.367  -1.140  0.00  0.00    +0.005 C 
ENDBRANCH   9  13
BRANCH   3  15
ATOM     15  C   UNL     1      -1.797  -0.857   0.560  0.00  0.00    -0.069 C 
BRANCH  15  17
ATOM     16  O   UNL     1      -5.722   0.049  -0.618  0.00  0.00    -0.358 OA
ATOM     17  N   UNL     1      -3.055  -0.141   0.359  0.00  0.00    +0.391 N 
ATOM     18  C   UNL     1      -3.339   0.021  -1.074  0.00  0.00    -0.045 C 
ATOM     19  C   UNL     1      -4.166  -0.843   1.016  0.00  0.00    -0.045 C 
ATOM     20  C   UNL     1      -4.662   0.760  -1.259  0.00  0.00    +0.119 C 
ATOM     21  C   UNL     1      -5.470  -0.085   0.781  0.00  0.00    +0.119 C 
ATOM     22  H   UNL     1      -2.960   0.783   0.779  0.00  0.00    -0.079 HD
ENDBRANCH  15  17
ENDBRANCH   3  15
TORSDOF 3
