REMARK  Name = 159269
REMARK  4 active torsions:
REMARK  status: ('A' for Active; 'I' for Inactive)
REMARK    1  A    between atoms: N1_3  and  C1*_13
REMARK    2  A    between atoms: C3*_12  and  O3*_16
REMARK    3  A    between atoms: C4*_15  and  C5*_18
REMARK    4  A    between atoms: C5*_18  and  O5*_19
REMARK                            x       y       z     vdW  Elec       q    Type
REMARK                         _______ _______ _______ _____ _____    ______ ____
ROOT
ATOM      1  O2  T   A   1      -1.174  -2.804  -0.378  0.00  0.00    -0.252 OA
ATOM      2  O4  T   A   1      -4.369   0.450   0.214  0.00  0.00    -0.270 OA
ATOM      3  N1  T   A   1      -0.460  -0.590  -0.178  0.00  0.00    -0.219 N 
ATOM      4  N3  T   A   1      -2.757  -1.171  -0.083  0.00  0.00    -0.236 N 
ATOM      5  C6  T   A   1      -0.837   0.735  -0.003  0.00  0.00    +0.071 C 
ATOM      6  C2  T   A   1      -1.436  -1.609  -0.225  0.00  0.00    +0.315 C 
ATOM      7  C5  T   A   1      -2.102   1.151   0.133  0.00  0.00    +0.047 C 
ATOM      8  C4  T   A   1      -3.188   0.135   0.095  0.00  0.00    +0.250 C 
ATOM      9  C5M T   A   1      -2.487   2.583   0.321  0.00  0.00    +0.037 C 
ATOM     10  H3  T   A   1      -3.455  -1.864  -0.113  0.00  0.00    +0.159 HD
ENDROOT
BRANCH   3  13
ATOM     11  O4* T   A   1       1.597   0.193  -0.975  0.00  0.00    -0.335 OA
ATOM     12  C3* T   A   1       3.035  -0.623   0.727  0.00  0.00    +0.144 C 
ATOM     13  C1* T   A   1       0.936  -0.892  -0.310  0.00  0.00    +0.202 C 
ATOM     14  C2* T   A   1       1.630  -1.088   1.028  0.00  0.00    +0.083 C 
ATOM     15  C4* T   A   1       2.813   0.508  -0.268  0.00  0.00    +0.173 C 
BRANCH  12  16
ATOM     16  O3* T   A   1       3.737  -1.688   0.091  0.00  0.00    -0.382 OA
ATOM     17  H3* T   A   1       3.878  -2.408   0.726  0.00  0.00    +0.210 HD
ENDBRANCH  12  16
BRANCH  15  18
ATOM     18  C5* T   A   1       2.625   1.861   0.405  0.00  0.00    +0.169 C 
BRANCH  18  19
ATOM     19  O5* T   A   1       2.437   2.849  -0.595  0.00  0.00    -0.379 OA
ATOM     20  H5* T   A   1       2.316   3.715  -0.176  0.00  0.00    +0.211 HD
ENDBRANCH  18  19
ENDBRANCH  15  18
ENDBRANCH   3  13
TORSDOF 4
