REMARK  Name = 85875
REMARK  5 active torsions:
REMARK  status: ('A' for Active; 'I' for Inactive)
REMARK    1  A    between atoms: C_1  and  C_12
REMARK    2  A    between atoms: C_2  and  O_8
REMARK    3  A    between atoms: C_5  and  O_10
REMARK    4  A    between atoms: C_12  and  C_13
REMARK    5  A    between atoms: C_13  and  N_15
REMARK                            x       y       z     vdW  Elec       q    Type
REMARK                         _______ _______ _______ _____ _____    ______ ____
ROOT
ATOM      1  C   UNL     1      -0.472  -0.031  -0.321  0.00  0.00    +0.013 C 
ATOM      2  C   UNL     1      -0.222  -1.323   0.116  0.00  0.00    +0.134 C 
ATOM      3  C   UNL     1       0.548   0.902  -0.425  0.00  0.00    +0.035 C 
ATOM      4  C   UNL     1       2.115  -0.761   0.359  0.00  0.00    +0.015 C 
ATOM      5  C   UNL     1       1.849   0.535  -0.083  0.00  0.00    +0.135 C 
ATOM      6  C   UNL     1       1.079  -1.690   0.459  0.00  0.00    +0.035 C 
ATOM      7  C   UNL     1       3.502  -1.171   0.730  0.00  0.00    +0.034 C 
ENDROOT
BRANCH   2   8
ATOM      8  O   UNL     1      -1.222  -2.243   0.216  0.00  0.00    -0.472 OA
ATOM      9  C   UNL     1      -1.481  -3.045  -0.935  0.00  0.00    +0.252 C 
ENDBRANCH   2   8
BRANCH   5  10
ATOM     10  O   UNL     1       2.850   1.454  -0.188  0.00  0.00    -0.472 OA
ATOM     11  C   UNL     1       2.489   2.755  -0.648  0.00  0.00    +0.252 C 
ENDBRANCH   5  10
BRANCH   1  12
ATOM     12  C   UNL     1      -1.874   0.384  -0.698  0.00  0.00    +0.008 C 
BRANCH  12  13
ATOM     13  C   UNL     1      -2.684   0.958   0.479  0.00  0.00    -0.061 C 
ATOM     14  C   UNL     1      -2.360   2.427   0.751  0.00  0.00    -0.024 C 
BRANCH  13  15
ATOM     15  N   UNL     1      -4.116   0.849   0.188  0.00  0.00    +0.382 N 
ATOM     16  H   UNL     1      -4.352  -0.127   0.003  0.00  0.00    -0.089 HD
ATOM     17  H   UNL     1      -4.341   1.414  -0.631  0.00  0.00    -0.089 HD
ATOM     18  H   UNL     1      -4.653   1.182   0.989  0.00  0.00    -0.089 HD
ENDBRANCH  13  15
ENDBRANCH  12  13
ENDBRANCH   1  12
TORSDOF 5
