REMARK  Name = 439202
REMARK  8 active torsions:
REMARK  status: ('A' for Active; 'I' for Inactive)
REMARK    1  A    between atoms: C_1  and  CA_2
REMARK    2  A    between atoms: C_1  and  C_11
REMARK    3  A    between atoms: CA_2  and  N_3
REMARK    4  A    between atoms: CA_2  and  C_8
REMARK    5  A    between atoms: C_8  and  O_9
REMARK    6  A    between atoms: C_11  and  O_12
REMARK    7  A    between atoms: O_12  and  N_13
REMARK    8  A    between atoms: N_13  and  C_16
REMARK                            x       y       z     vdW  Elec       q    Type
REMARK                         _______ _______ _______ _____ _____    ______ ____
ROOT
ATOM      1  C   UNL     1       0.950  -0.240   0.020  0.00  0.00    +0.024 C 
ENDROOT
BRANCH   1   2
ATOM      2  CA  UNL     1       2.253   0.476   0.406  0.00  0.00    +0.038 C 
BRANCH   2   3
ATOM      3  N   UNL     1       2.387   1.777  -0.249  0.00  0.00    +0.389 N 
ATOM      4  H1  UNL     1       1.598   2.370   0.009  0.00  0.00    -0.088 HD
ATOM      5  H2  UNL     1       2.398   1.649  -1.261  0.00  0.00    -0.088 HD
ATOM      6  H3  UNL     1       3.257   2.219   0.048  0.00  0.00    -0.088 HD
ENDBRANCH   2   3
BRANCH   2   8
ATOM      7  OXT UNL     1       4.309  -0.026  -0.815  0.00  0.00    -0.253 OA
ATOM      8  C   UNL     1       3.449  -0.364  -0.012  0.00  0.00    +0.293 C 
BRANCH   8   9
ATOM      9  O   UNL     1       3.474  -1.564   0.627  0.00  0.00    -0.482 OA
ATOM     10  H   UNL     1       2.796  -1.785   1.235  0.00  0.00    +0.295 HD
ENDBRANCH   8   9
ENDBRANCH   2   8
ENDBRANCH   1   2
BRANCH   1  11
ATOM     11  C   UNL     1      -0.327   0.542   0.318  0.00  0.00    +0.175 C 
BRANCH  11  12
ATOM     12  O   UNL     1      -1.480  -0.206  -0.040  0.00  0.00    -0.234 OA
BRANCH  12  13
ATOM     13  N   UNL     1      -2.611   0.568   0.259  0.00  0.00    -0.096 NA
BRANCH  13  16
ATOM     14  N   UNL     1      -4.941   0.467   0.144  0.00  0.00    -0.368 N 
ATOM     15  N   UNL     1      -3.765  -1.346  -0.602  0.00  0.00    -0.368 N 
ATOM     16  C   UNL     1      -3.699  -0.084  -0.056  0.00  0.00    +0.217 C 
ATOM     17  H   UNL     1      -5.022   1.369   0.531  0.00  0.00    +0.159 HD
ATOM     18  H   UNL     1      -5.749  -0.039  -0.099  0.00  0.00    +0.159 HD
ATOM     19  H   UNL     1      -2.938  -1.844  -0.791  0.00  0.00    +0.159 HD
ATOM     20  H   UNL     1      -4.640  -1.750  -0.802  0.00  0.00    +0.159 HD
ENDBRANCH  13  16
ENDBRANCH  12  13
ENDBRANCH  11  12
ENDBRANCH   1  11
TORSDOF 8
