REMARK  Name = 284
REMARK  1 active torsions:
REMARK  status: ('A' for Active; 'I' for Inactive)
REMARK    1  A    between atoms: O_1  and  C_4
REMARK                            x       y       z     vdW  Elec       q    Type
REMARK                         _______ _______ _______ _____ _____    ______ ____
ROOT
ATOM      1  O   UNL     1      -1.169   0.182   0.000  0.00  0.00    -0.473 OA
ATOM      2  H   UNL     1      -1.938  -0.352   0.000  0.00  0.00    +0.296 HD
ENDROOT
BRANCH   1   4
ATOM      3  O   UNL     1       1.115   0.210   0.000  0.00  0.00    -0.238 OA
ATOM      4  C   UNL     1       0.054  -0.393   0.000  0.00  0.00    +0.415 C 
ENDBRANCH   1   4
TORSDOF 1
