REMARK  Name = 445238
REMARK  6 active torsions:
REMARK  status: ('A' for Active; 'I' for Inactive)
REMARK    1  A    between atoms: C_2  and  O_7
REMARK    2  A    between atoms: C_3  and  O_9
REMARK    3  A    between atoms: C_4  and  C_15
REMARK    4  A    between atoms: C_5  and  O_11
REMARK    5  A    between atoms: C_6  and  O_13
REMARK    6  A    between atoms: C_15  and  O_16
REMARK                            x       y       z     vdW  Elec       q    Type
REMARK                         _______ _______ _______ _____ _____    ______ ____
ROOT
ATOM      1  O   UNL     1       0.114  -1.103   0.274  0.00  0.00    -0.326 OA
ATOM      2  C   UNL     1       1.157   1.084   0.223  0.00  0.00    +0.169 C 
ATOM      3  C   UNL     1      -0.170   1.716  -0.199  0.00  0.00    +0.172 C 
ATOM      4  C   UNL     1       1.234  -0.375  -0.233  0.00  0.00    +0.176 C 
ATOM      5  C   UNL     1      -1.353   0.831   0.193  0.00  0.00    +0.196 C 
ATOM      6  C   UNL     1      -1.128  -0.620  -0.233  0.00  0.00    +0.266 C 
ENDROOT
BRANCH   2   7
ATOM      7  O   UNL     1       2.233   1.817  -0.359  0.00  0.00    -0.379 OA
ATOM      8  H   UNL     1       2.187   2.742  -0.071  0.00  0.00    +0.211 HD
ENDBRANCH   2   7
BRANCH   3   9
ATOM      9  O   UNL     1      -0.285   2.981   0.455  0.00  0.00    -0.379 OA
ATOM     10  H   UNL     1       0.466   3.542   0.206  0.00  0.00    +0.211 HD
ENDBRANCH   3   9
BRANCH   5  11
ATOM     11  O   UNL     1      -2.535   1.307  -0.450  0.00  0.00    -0.378 OA
ATOM     12  H   UNL     1      -2.695   2.228  -0.191  0.00  0.00    +0.211 HD
ENDBRANCH   5  11
BRANCH   6  13
ATOM     13  O   UNL     1      -2.200  -1.404   0.290  0.00  0.00    -0.326 OA
ATOM     14  C   UNL     1      -2.061  -2.771  -0.065  0.00  0.00    +0.177 C 
ENDBRANCH   6  13
BRANCH   4  15
ATOM     15  C   UNL     1       2.498  -1.060   0.277  0.00  0.00    +0.169 C 
BRANCH  15  16
ATOM     16  O   UNL     1       2.495  -2.403  -0.173  0.00  0.00    -0.379 OA
ATOM     17  H   UNL     1       3.294  -2.851   0.145  0.00  0.00    +0.211 HD
ENDBRANCH  15  16
ENDBRANCH   4  15
TORSDOF 6
