REMARK  Name = 42890
REMARK  8 active torsions:
REMARK  status: ('A' for Active; 'I' for Inactive)
REMARK    1  A    between atoms: C_3  and  O_30
REMARK    2  A    between atoms: C_4  and  C_22
REMARK    3  A    between atoms: C_4  and  O_24
REMARK    4  A    between atoms: C_9  and  O_26
REMARK    5  A    between atoms: C_10  and  O_28
REMARK    6  A    between atoms: O_30  and  C_32
REMARK    7  A    between atoms: C_33  and  N_38
REMARK    8  A    between atoms: C_35  and  O_42
REMARK                            x       y       z     vdW  Elec       q    Type
REMARK                         _______ _______ _______ _____ _____    ______ ____
ROOT
ATOM      1  O   UNL     1      -2.313   2.584  -0.977  0.00  0.00    -0.286 OA
ATOM      2  O   UNL     1      -4.600  -1.786   1.075  0.00  0.00    -0.286 OA
ATOM      3  C   UNL     1       1.647  -0.644  -0.360  0.00  0.00    +0.145 C 
ATOM      4  C   UNL     1       1.755  -3.117   0.188  0.00  0.00    +0.146 C 
ATOM      5  C   UNL     1       2.434  -1.761   0.331  0.00  0.00    +0.069 C 
ATOM      6  C   UNL     1       0.346  -3.086   0.785  0.00  0.00    +0.063 C 
ATOM      7  C   UNL     1       0.162  -0.692  -0.078  0.00  0.00    +0.038 A 
ATOM      8  C   UNL     1      -0.449  -1.852   0.430  0.00  0.00    +0.016 A 
ATOM      9  C   UNL     1      -0.640   0.419  -0.394  0.00  0.00    +0.135 A 
ATOM     10  C   UNL     1      -1.835  -1.863   0.660  0.00  0.00    +0.133 A 
ATOM     11  C   UNL     1      -2.022   0.396  -0.172  0.00  0.00    +0.078 A 
ATOM     12  C   UNL     1      -2.619  -0.744   0.359  0.00  0.00    +0.078 A 
ATOM     13  C   UNL     1      -2.837   1.582  -0.506  0.00  0.00    +0.199 C 
ATOM     14  C   UNL     1      -4.076  -0.784   0.604  0.00  0.00    +0.199 C 
ATOM     15  C   UNL     1      -4.293   1.544  -0.263  0.00  0.00    +0.042 C 
ATOM     16  C   UNL     1      -4.891   0.402   0.273  0.00  0.00    +0.042 C 
ATOM     17  C   UNL     1      -5.077   2.662  -0.574  0.00  0.00    +0.003 C 
ATOM     18  C   UNL     1      -6.272   0.377   0.499  0.00  0.00    +0.003 C 
ATOM     19  C   UNL     1      -6.453   2.633  -0.347  0.00  0.00    +0.000 C 
ATOM     20  C   UNL     1      -7.050   1.493   0.189  0.00  0.00    +0.000 C 
ENDROOT
BRANCH   4  22
ATOM     21  O   UNL     1       0.721  -3.901  -1.820  0.00  0.00    -0.294 OA
ATOM     22  C   UNL     1       1.760  -3.588  -1.240  0.00  0.00    +0.175 C 
ATOM     23  C   UNL     1       3.098  -3.656  -1.925  0.00  0.00    +0.075 C 
ENDBRANCH   4  22
BRANCH   4  24
ATOM     24  O   UNL     1       2.542  -4.088   0.872  0.00  0.00    -0.379 OA
ATOM     25  H   UNL     1       2.592  -3.858   1.813  0.00  0.00    +0.211 HD
ENDBRANCH   4  24
BRANCH   9  26
ATOM     26  O   UNL     1      -0.048   1.513  -0.963  0.00  0.00    -0.506 OA
ATOM     27  H   UNL     1       0.878   1.522  -1.109  0.00  0.00    +0.292 HD
ENDBRANCH   9  26
BRANCH  10  28
ATOM     28  O   UNL     1      -2.393  -2.994   1.190  0.00  0.00    -0.506 OA
ATOM     29  H   UNL     1      -1.853  -3.735   1.385  0.00  0.00    +0.292 HD
ENDBRANCH  10  28
BRANCH   3  30
ATOM     30  O   UNL     1       2.188   0.605   0.067  0.00  0.00    -0.328 OA
BRANCH  30  32
ATOM     31  O   UNL     1       4.523   0.485  -0.333  0.00  0.00    -0.331 OA
ATOM     32  C   UNL     1       3.269   1.013  -0.767  0.00  0.00    +0.233 C 
ATOM     33  C   UNL     1       3.772   3.140   0.487  0.00  0.00    -0.031 C 
ATOM     34  C   UNL     1       3.311   2.540  -0.846  0.00  0.00    +0.042 C 
ATOM     35  C   UNL     1       5.094   2.498   0.929  0.00  0.00    +0.118 C 
ATOM     36  C   UNL     1       4.947   0.969   0.948  0.00  0.00    +0.142 C 
ATOM     37  C   UNL     1       6.257   0.265   1.287  0.00  0.00    +0.035 C 
BRANCH  33  38
ATOM     38  N   UNL     1       3.903   4.591   0.369  0.00  0.00    +0.384 N 
ATOM     39  H   UNL     1       3.012   4.990   0.075  0.00  0.00    -0.089 HD
ATOM     40  H   UNL     1       4.620   4.812  -0.322  0.00  0.00    -0.089 HD
ATOM     41  H   UNL     1       4.169   4.982   1.273  0.00  0.00    -0.089 HD
ENDBRANCH  33  38
BRANCH  35  42
ATOM     42  O   UNL     1       6.140   2.847   0.021  0.00  0.00    -0.384 OA
ATOM     43  H   UNL     1       6.242   3.812   0.001  0.00  0.00    +0.210 HD
ENDBRANCH  35  42
ENDBRANCH  30  32
ENDBRANCH   3  30
TORSDOF 8
