REMARK  Name = 4168
REMARK  8 active torsions:
REMARK  status: ('A' for Active; 'I' for Inactive)
REMARK    1  A    between atoms: N_2  and  C_17
REMARK    2  A    between atoms: C_3  and  C_6
REMARK    3  A    between atoms: C_7  and  O_15
REMARK    4  A    between atoms: C_10  and  N_12
REMARK    5  A    between atoms: C_17  and  C_18
REMARK    6  A    between atoms: C_18  and  N_19
REMARK    7  A    between atoms: N_19  and  C_21
REMARK    8  A    between atoms: N_19  and  C_23
REMARK                            x       y       z     vdW  Elec       q    Type
REMARK                         _______ _______ _______ _____ _____    ______ ____
ROOT
ATOM      1  O   UNL     1      -0.153   0.977  -1.563  0.00  0.00    -0.270 OA
ATOM      2  N   UNL     1      -0.658  -0.883  -0.272  0.00  0.00    -0.303 N 
ATOM      3  C   UNL     1       0.194   0.083  -0.795  0.00  0.00    +0.249 C 
ATOM      4  H   UNL     1      -0.285  -1.561   0.337  0.00  0.00    +0.150 HD
ENDROOT
BRANCH   3   6
ATOM      5 CL   UNL     1       4.099  -2.955   0.603  0.00  0.00    -0.081 Cl
ATOM      6  C   UNL     1       1.621  -0.017  -0.395  0.00  0.00    +0.088 C 
ATOM      7  C   UNL     1       2.390   1.125  -0.307  0.00  0.00    +0.144 C 
ATOM      8  C   UNL     1       2.133  -1.269  -0.120  0.00  0.00    +0.020 C 
ATOM      9  C   UNL     1       3.728   1.011   0.071  0.00  0.00    +0.052 C 
ATOM     10  C   UNL     1       4.268  -0.243   0.354  0.00  0.00    +0.055 C 
ATOM     11  C   UNL     1       3.470  -1.384   0.259  0.00  0.00    +0.071 C 
BRANCH  10  12
ATOM     12  N   UNL     1       5.626  -0.327   0.736  0.00  0.00    -0.356 N 
ATOM     13  H   UNL     1       6.171   0.491   0.797  0.00  0.00    +0.142 HD
ATOM     14  H   UNL     1       6.027  -1.202   0.940  0.00  0.00    +0.142 HD
ENDBRANCH  10  12
BRANCH   7  15
ATOM     15  O   UNL     1       1.880   2.360  -0.578  0.00  0.00    -0.471 OA
ATOM     16  C   UNL     1       1.306   3.077   0.512  0.00  0.00    +0.252 C 
ENDBRANCH   7  15
ENDBRANCH   3   6
BRANCH   2  17
ATOM     17  C   UNL     1      -2.060  -0.934  -0.585  0.00  0.00    +0.067 C 
BRANCH  17  18
ATOM     18  C   UNL     1      -2.875  -0.111   0.401  0.00  0.00    -0.056 C 
BRANCH  18  19
ATOM     19  N   UNL     1      -4.293  -0.153   0.048  0.00  0.00    +0.388 N 
ATOM     20  H   UNL     1      -4.403   0.225  -0.893  0.00  0.00    -0.080 HD
BRANCH  19  21
ATOM     21  C   UNL     1      -4.781  -1.532   0.052  0.00  0.00    -0.077 C 
ATOM     22  C   UNL     1      -6.238  -1.600  -0.372  0.00  0.00    -0.025 C 
ENDBRANCH  19  21
BRANCH  19  23
ATOM     23  C   UNL     1      -5.074   0.669   0.972  0.00  0.00    -0.077 C 
ATOM     24  C   UNL     1      -4.582   2.106   0.980  0.00  0.00    -0.025 C 
ENDBRANCH  19  23
ENDBRANCH  18  19
ENDBRANCH  17  18
ENDBRANCH   2  17
TORSDOF 8
