REMARK  Name = 7933
REMARK  1 active torsions:
REMARK  status: ('A' for Active; 'I' for Inactive)
REMARK    1  A    between atoms: C_2  and  O_8
REMARK                            x       y       z     vdW  Elec       q    Type
REMARK                         _______ _______ _______ _____ _____    ______ ____
ROOT
ATOM      1 CL   UNL     1       2.748  -0.970   0.000  0.00  0.00    -0.082 Cl
ATOM      2  C   UNL     1      -1.216  -0.431   0.000  0.00  0.00    +0.135 C 
ATOM      3  C   UNL     1       0.045  -1.028   0.000  0.00  0.00    +0.048 C 
ATOM      4  C   UNL     1      -1.329   0.959   0.000  0.00  0.00    +0.037 C 
ATOM      5  C   UNL     1       1.192  -0.234   0.000  0.00  0.00    +0.061 C 
ATOM      6  C   UNL     1      -0.182   1.753   0.000  0.00  0.00    +0.004 C 
ATOM      7  C   UNL     1       1.079   1.156   0.000  0.00  0.00    +0.012 C 
ENDROOT
BRANCH   2   8
ATOM      8  O   UNL     1      -2.335  -1.205   0.000  0.00  0.00    -0.505 OA
ATOM      9  H   UNL     1      -2.259  -2.139   0.000  0.00  0.00    +0.292 HD
ENDBRANCH   2   8
TORSDOF 1
