REMARK  Name = 441300
REMARK  4 active torsions:
REMARK  status: ('A' for Active; 'I' for Inactive)
REMARK    1  A    between atoms: N_1  and  C_13
REMARK    2  A    between atoms: C_15  and  C_18
REMARK    3  A    between atoms: C_18  and  O_19
REMARK    4  A    between atoms: N_21  and  C_23
REMARK                            x       y       z     vdW  Elec       q    Type
REMARK                         _______ _______ _______ _____ _____    ______ ____
ROOT
ATOM      1  N   UNL     1      -0.870   1.529   0.000  0.00  0.00    -0.262 N 
ATOM      2  N   UNL     1       1.206   2.313   0.217  0.00  0.00    -0.240 NA
ATOM      3  N   UNL     1       1.984  -1.301   0.112  0.00  0.00    -0.312 NA
ATOM      4  N   UNL     1      -0.408  -0.855  -0.074  0.00  0.00    -0.311 NA
ATOM      5  N   UNL     1       0.429  -3.040  -0.104  0.00  0.00    -0.283 N 
ATOM      6  C   UNL     1       2.271   0.020   0.201  0.00  0.00    +0.215 C 
ATOM      7  C   UNL     1      -0.051   0.435   0.019  0.00  0.00    +0.220 C 
ATOM      8  C   UNL     1       1.231   0.943   0.154  0.00  0.00    +0.167 C 
ATOM      9  C   UNL     1      -0.068   2.633   0.122  0.00  0.00    +0.222 C 
ATOM     10  C   UNL     1       0.682  -1.651  -0.018  0.00  0.00    +0.199 C 
ATOM     11  H   UNL     1       1.177  -3.679  -0.070  0.00  0.00    +0.156 HD
ATOM     12  H   UNL     1      -0.494  -3.367  -0.199  0.00  0.00    +0.156 HD
ATOM     13  N   UNL     1       3.604   0.446   0.337  0.00  0.00    -0.308 N 
ATOM     14  H   UNL     1       3.775   1.414   0.399  0.00  0.00    +0.149 HD
ENDROOT
BRANCH   1  15
ATOM     15  C   UNL     1      -2.328   1.532  -0.127  0.00  0.00    +0.077 C 
ATOM     16  C   UNL     1      -3.045   0.735   0.978  0.00  0.00    +0.022 C 
ATOM     17  C   UNL     1      -4.239   0.047   0.294  0.00  0.00    +0.031 C 
ATOM     18  C   UNL     1      -2.826   0.894  -1.387  0.00  0.00    +0.020 C 
ATOM     19  C   UNL     1      -3.862   0.082  -1.155  0.00  0.00    +0.004 C 
BRANCH  17  20
ATOM     20  C   UNL     1      -4.464  -1.366   0.813  0.00  0.00    +0.137 C 
BRANCH  20  21
ATOM     21  O   UNL     1      -5.521  -1.957   0.076  0.00  0.00    -0.382 OA
ATOM     22  H   UNL     1      -5.674  -2.859   0.398  0.00  0.00    +0.210 HD
ENDBRANCH  20  21
ENDBRANCH  17  20
ENDBRANCH   1  15
BRANCH  13  23
ATOM     23  C   UNL     1       4.752  -0.458   0.394  0.00  0.00    +0.071 C 
ATOM     24  C   UNL     1       5.396  -0.983  -0.857  0.00  0.00    +0.021 C 
ATOM     25  C   UNL     1       6.128   0.002   0.007  0.00  0.00    +0.021 C 
ENDBRANCH  13  23
TORSDOF 4
