REMARK  Name = 5280863
REMARK  5 active torsions:
REMARK  status: ('A' for Active; 'I' for Inactive)
REMARK    1  A    between atoms: C_5  and  C_12
REMARK    2  A    between atoms: C_7  and  O_20
REMARK    3  A    between atoms: C_8  and  O_22
REMARK    4  A    between atoms: C_10  and  O_24
REMARK    5  A    between atoms: C_17  and  O_18
REMARK                            x       y       z     vdW  Elec       q    Type
REMARK                         _______ _______ _______ _____ _____    ______ ____
ROOT
ATOM      1  O   UNL     1      -0.113  -0.891  -0.002  0.00  0.00    -0.450 OA
ATOM      2  O   UNL     1      -1.778   2.828  -0.005  0.00  0.00    -0.283 OA
ATOM      3  C   UNL     1      -2.107   0.493   0.001  0.00  0.00    +0.110 A 
ATOM      4  C   UNL     1      -1.476  -0.749   0.000  0.00  0.00    +0.155 A 
ATOM      5  C   UNL     1       0.671   0.252   0.010  0.00  0.00    +0.182 A 
ATOM      6  C   UNL     1      -1.281   1.710   0.000  0.00  0.00    +0.238 A 
ATOM      7  C   UNL     1       0.188   1.508   0.003  0.00  0.00    +0.208 A 
ATOM      8  C   UNL     1      -3.502   0.576   0.002  0.00  0.00    +0.143 C 
ATOM      9  C   UNL     1      -2.238  -1.919  -0.001  0.00  0.00    +0.074 C 
ATOM     10  C   UNL     1      -3.630  -1.840   0.000  0.00  0.00    +0.140 C 
ATOM     11  C   UNL     1      -4.261  -0.595   0.002  0.00  0.00    +0.073 C 
ENDROOT
BRANCH   5  12
ATOM     12  C   UNL     1       2.115  -0.041   0.006  0.00  0.00    +0.038 C 
ATOM     13  C   UNL     1       2.804  -0.171   1.212  0.00  0.00    +0.006 C 
ATOM     14  C   UNL     1       2.793  -0.190  -1.204  0.00  0.00    +0.006 C 
ATOM     15  C   UNL     1       4.171  -0.449   1.208  0.00  0.00    +0.037 C 
ATOM     16  C   UNL     1       4.160  -0.468  -1.208  0.00  0.00    +0.037 C 
ATOM     17  C   UNL     1       4.849  -0.597  -0.001  0.00  0.00    +0.134 C 
BRANCH  17  18
ATOM     18  O   UNL     1       6.183  -0.869  -0.005  0.00  0.00    -0.506 OA
ATOM     19  H   UNL     1       6.645  -0.956   0.805  0.00  0.00    +0.292 HD
ENDBRANCH  17  18
ENDBRANCH   5  12
BRANCH   7  20
ATOM     20  O   UNL     1       0.996   2.625  -0.019  0.00  0.00    -0.501 OA
ATOM     21  H   UNL     1       1.928   2.529  -0.018  0.00  0.00    +0.292 HD
ENDBRANCH   7  20
BRANCH   8  22
ATOM     22  O   UNL     1      -4.167   1.765   0.003  0.00  0.00    -0.505 OA
ATOM     23  H   UNL     1      -3.688   2.570   0.003  0.00  0.00    +0.292 HD
ENDBRANCH   8  22
BRANCH  10  24
ATOM     24  O   UNL     1      -4.376  -2.979  -0.001  0.00  0.00    -0.505 OA
ATOM     25  H   UNL     1      -3.953  -3.815  -0.001  0.00  0.00    +0.292 HD
ENDBRANCH  10  24
TORSDOF 5
