REMARK  Name = 445936
REMARK  5 active torsions:
REMARK  status: ('A' for Active; 'I' for Inactive)
REMARK    1  A    between atoms: C_6  and  O_12
REMARK    2  A    between atoms: C_7  and  O_14
REMARK    3  A    between atoms: C_8  and  O_16
REMARK    4  A    between atoms: C_10  and  C_19
REMARK    5  A    between atoms: C_19  and  O_20
REMARK                            x       y       z     vdW  Elec       q    Type
REMARK                         _______ _______ _______ _____ _____    ______ ____
ROOT
ATOM      1  O   UNL     1       1.264   1.185  -0.277  0.00  0.00    -0.326 OA
ATOM      2  O   UNL     1      -0.842  -0.565   0.607  0.00  0.00    -0.323 OA
ATOM      3  O   UNL     1      -1.522   1.680   0.177  0.00  0.00    -0.323 OA
ATOM      4  C   UNL     1      -0.225  -0.693  -0.680  0.00  0.00    +0.177 C 
ATOM      5  C   UNL     1       0.246   0.683  -1.154  0.00  0.00    +0.177 C 
ATOM      6  C   UNL     1       0.963  -1.648  -0.566  0.00  0.00    +0.172 C 
ATOM      7  C   UNL     1       2.088  -1.037   0.268  0.00  0.00    +0.196 C 
ATOM      8  C   UNL     1       2.429   0.365  -0.238  0.00  0.00    +0.266 C 
ATOM      9  C   UNL     1      -0.913   1.671  -1.114  0.00  0.00    +0.177 C 
ATOM     10  C   UNL     1      -1.900   0.386   0.632  0.00  0.00    +0.280 C 
ATOM     11  C   UNL     1      -2.311   0.540   2.094  0.00  0.00    +0.074 C 
ENDROOT
BRANCH   6  12
ATOM     12  O   UNL     1       0.552  -2.876   0.029  0.00  0.00    -0.379 OA
ATOM     13  H   UNL     1      -0.163  -3.267  -0.497  0.00  0.00    +0.211 HD
ENDBRANCH   6  12
BRANCH   7  14
ATOM     14  O   UNL     1       3.252  -1.856   0.157  0.00  0.00    -0.378 OA
ATOM     15  H   UNL     1       3.051  -2.750   0.475  0.00  0.00    +0.211 HD
ENDBRANCH   7  14
BRANCH   8  16
ATOM     16  O   UNL     1       3.387   0.932   0.655  0.00  0.00    -0.326 OA
ATOM     17  C   UNL     1       3.757   2.241   0.252  0.00  0.00    +0.177 C 
ENDBRANCH   8  16
BRANCH  10  19
ATOM     18  O   UNL     1      -3.965   0.587  -0.627  0.00  0.00    -0.245 OA
ATOM     19  C   UNL     1      -3.116  -0.120  -0.105  0.00  0.00    +0.366 C 
BRANCH  19  20
ATOM     20  O   UNL     1      -3.144  -1.475  -0.110  0.00  0.00    -0.477 OA
ATOM     21  H   UNL     1      -2.460  -1.959   0.310  0.00  0.00    +0.295 HD
ENDBRANCH  19  20
ENDBRANCH  10  19
TORSDOF 5
