REMARK  Name = 17753823
REMARK  12 active torsions:
REMARK  status: ('A' for Active; 'I' for Inactive)
REMARK    1  A    between atoms: CG_1  and  OD2_2
REMARK    2  A    between atoms: CG_1  and  OD1_4
REMARK    3  A    between atoms: CG_1  and  CB_16
REMARK    4  A    between atoms: OD1_4  and  CB_5
REMARK    5  A    between atoms: CB_5  and  CA_7
REMARK    6  A    between atoms: CA_7  and  N_8
REMARK    7  A    between atoms: CA_7  and  C_13
REMARK    8  A    between atoms: C_13  and  O_14
REMARK    9  A    between atoms: CB_16  and  CA_17
REMARK   10  A    between atoms: CA_17  and  N_18
REMARK   11  A    between atoms: CA_17  and  C_23
REMARK   12  A    between atoms: C_23  and  O_24
REMARK                            x       y       z     vdW  Elec       q    Type
REMARK                         _______ _______ _______ _____ _____    ______ ____
ROOT
ATOM      1  CG  ASP A   1       0.533   1.440  -0.445  0.00  0.00    +0.230 C 
ENDROOT
BRANCH   1   2
ATOM      2  OD2 ASP A   1       0.356   2.799  -0.839  0.00  0.00    -0.360 OA
ATOM      3  HD2 ASP A   1      -0.510   2.902  -1.265  0.00  0.00    +0.213 HD
ENDBRANCH   1   2
BRANCH   1   4
ATOM      4  OD1 ASP A   1      -0.454   1.026   0.500  0.00  0.00    -0.335 OA
BRANCH   4   5
ATOM      5  CB  ASP A   1      -1.773   1.100  -0.024  0.00  0.00    +0.108 C 
ATOM      6  CG2 ASP A   1      -2.707   1.485   1.117  0.00  0.00    +0.030 C 
BRANCH   5   7
ATOM      7  CA  ASP A   1      -2.167  -0.219  -0.707  0.00  0.00    +0.063 C 
BRANCH   7   8
ATOM      8  N   ASP A   1      -3.524  -0.115  -1.253  0.00  0.00    +0.390 N 
ATOM      9  H1  ASP A   1      -3.568   0.666  -1.908  0.00  0.00    -0.088 HD
ATOM     10  H2  ASP A   1      -4.185   0.041  -0.492  0.00  0.00    -0.088 HD
ATOM     11  H3  ASP A   1      -3.762  -0.979  -1.739  0.00  0.00    -0.088 HD
ENDBRANCH   7   8
BRANCH   7  13
ATOM     12  OXT ASP A   1      -3.156  -2.057   0.557  0.00  0.00    -0.253 OA
ATOM     13  C   ASP A   1      -2.170  -1.395   0.256  0.00  0.00    +0.295 C 
BRANCH  13  14
ATOM     14  O   ASP A   1      -0.932  -1.662   0.746  0.00  0.00    -0.482 OA
ATOM     15  H   ASP A   1      -0.203  -1.132   0.491  0.00  0.00    +0.295 HD
ENDBRANCH  13  14
ENDBRANCH   7  13
ENDBRANCH   5   7
ENDBRANCH   4   5
ENDBRANCH   1   4
BRANCH   1  16
ATOM     16  CB  ASP A   1       1.913   1.338   0.219  0.00  0.00    +0.050 C 
BRANCH  16  17
ATOM     17  CA  ASP A   1       2.277  -0.087   0.664  0.00  0.00    +0.041 C 
BRANCH  17  18
ATOM     18  N   ASP A   1       3.369  -0.035   1.634  0.00  0.00    +0.389 N 
ATOM     19  H1  ASP A   1       3.087   0.533   2.433  0.00  0.00    -0.088 HD
ATOM     20  H2  ASP A   1       4.193   0.377   1.197  0.00  0.00    -0.088 HD
ATOM     21  H3  ASP A   1       3.588  -0.980   1.949  0.00  0.00    -0.088 HD
ENDBRANCH  17  18
BRANCH  17  23
ATOM     22  OXT ASP A   1       3.923  -1.024  -0.869  0.00  0.00    -0.253 OA
ATOM     23  C   ASP A   1       2.761  -0.943  -0.492  0.00  0.00    +0.293 C 
BRANCH  23  24
ATOM     24  O   ASP A   1       1.751  -1.651  -1.064  0.00  0.00    -0.482 OA
ATOM     25  H   ASP A   1       0.875  -1.559  -0.744  0.00  0.00    +0.295 HD
ENDBRANCH  23  24
ENDBRANCH  17  23
ENDBRANCH  16  17
ENDBRANCH   1  16
TORSDOF 12
