REMARK  Name = 62977
REMARK  8 active torsions:
REMARK  status: ('A' for Active; 'I' for Inactive)
REMARK    1  A    between atoms: N_2  and  CA_9
REMARK    2  A    between atoms: C_3  and  CA_21
REMARK    3  A    between atoms: CA_11  and  C_18
REMARK    4  A    between atoms: C_13  and  C_14
REMARK    5  A    between atoms: C_18  and  O_19
REMARK    6  A    between atoms: CA_21  and  C_22
REMARK    7  A    between atoms: CA_21  and  N_30
REMARK    8  A    between atoms: C_27  and  O_28
REMARK                            x       y       z     vdW  Elec       q    Type
REMARK                         _______ _______ _______ _____ _____    ______ ____
ROOT
ATOM      1  O   UNL     1      -2.710   2.480   1.754  0.00  0.00    -0.277 OA
ATOM      2  N   UNL     1      -1.325   1.744   0.046  0.00  0.00    -0.298 N 
ATOM      3  C   UNL     1      -2.563   1.923   0.667  0.00  0.00    +0.206 C 
ATOM      4  H   UNL     1      -1.297   1.287  -0.825  0.00  0.00    +0.150 HD
ENDROOT
BRANCH   2   9
ATOM      5  S   UNL     1       0.275  -0.535   1.332  0.00  0.00    -0.114 S 
ATOM      6  O   UNL     1       1.273   3.131  -1.349  0.00  0.00    -0.273 OA
ATOM      7  N   UNL     1       1.715   1.333   0.114  0.00  0.00    -0.242 N 
ATOM      8  C   UNL     1       0.871   1.169   1.284  0.00  0.00    +0.155 C 
ATOM      9  CA  UNL     1      -0.069   2.207   0.634  0.00  0.00    +0.178 C 
ATOM     10  C   UNL     1       1.070   2.400  -0.408  0.00  0.00    +0.251 C 
ATOM     11  CA  UNL     1       2.783   0.540  -0.166  0.00  0.00    +0.128 C 
ATOM     12  C   UNL     1       1.958  -1.234   1.457  0.00  0.00    +0.087 C 
ATOM     13  C   UNL     1       2.960  -0.646   0.466  0.00  0.00    +0.009 C 
BRANCH  13  14
ATOM     14  C   UNL     1       4.104  -1.517   0.273  0.00  0.00    -0.007 C 
ATOM     15  C   UNL     1       4.246  -2.676   0.911  0.00  0.00    -0.026 C 
ATOM     16  C   UNL     1       5.424  -3.574   0.719  0.00  0.00    +0.031 C 
ENDBRANCH  13  14
BRANCH  11  18
ATOM     17  OXT UNL     1       3.561   0.784  -2.399  0.00  0.00    -0.244 OA
ATOM     18  C   UNL     1       3.698   1.018  -1.217  0.00  0.00    +0.352 C 
BRANCH  18  19
ATOM     19  O   UNL     1       4.685   1.739  -0.651  0.00  0.00    -0.476 OA
ATOM     20  H   UNL     1       4.703   1.863   0.277  0.00  0.00    +0.295 HD
ENDBRANCH  18  19
ENDBRANCH  11  18
ENDBRANCH   2   9
BRANCH   3  21
ATOM     21  CA  UNL     1      -3.720   1.334  -0.132  0.00  0.00    +0.036 C 
BRANCH  21  22
ATOM     22  C   UNL     1      -3.538  -0.156  -0.329  0.00  0.00    -0.034 C 
ATOM     23  C   UNL     1      -3.464  -0.662  -1.614  0.00  0.00    -0.003 C 
ATOM     24  C   UNL     1      -3.448  -0.977   0.781  0.00  0.00    -0.003 C 
ATOM     25  C   UNL     1      -3.296  -2.035  -1.795  0.00  0.00    +0.036 C 
ATOM     26  C   UNL     1      -3.280  -2.349   0.600  0.00  0.00    +0.036 C 
ATOM     27  C   UNL     1      -3.204  -2.879  -0.688  0.00  0.00    +0.134 C 
BRANCH  27  28
ATOM     28  O   UNL     1      -3.041  -4.218  -0.866  0.00  0.00    -0.506 OA
ATOM     29  H   UNL     1      -2.989  -4.574  -1.731  0.00  0.00    +0.292 HD
ENDBRANCH  27  28
ENDBRANCH  21  22
BRANCH  21  30
ATOM     30  N   UNL     1      -4.962   1.656   0.576  0.00  0.00    +0.390 N 
ATOM     31  H1  UNL     1      -5.040   2.667   0.684  0.00  0.00    -0.088 HD
ATOM     32  H2  UNL     1      -4.953   1.216   1.496  0.00  0.00    -0.088 HD
ATOM     33  H3  UNL     1      -5.758   1.309   0.041  0.00  0.00    -0.088 HD
ENDBRANCH  21  30
ENDBRANCH   3  21
TORSDOF 8
