REMARK  Name = 17134
REMARK  5 active torsions:
REMARK  status: ('A' for Active; 'I' for Inactive)
REMARK    1  A    between atoms: S_1  and  C_4
REMARK    2  A    between atoms: S_1  and  N_13
REMARK    3  A    between atoms: C_9  and  N_10
REMARK    4  A    between atoms: C_18  and  O_21
REMARK    5  A    between atoms: C_19  and  O_23
REMARK                            x       y       z     vdW  Elec       q    Type
REMARK                         _______ _______ _______ _____ _____    ______ ____
ROOT
ATOM      1  S   UNL     1       1.509  -2.152  -0.034  0.00  0.00    +0.075 S 
ATOM      2  O   UNL     1       2.382  -2.787   0.947  0.00  0.00    -0.150 OA
ATOM      3  O   UNL     1       1.475  -2.683  -1.391  0.00  0.00    -0.150 OA
ENDROOT
BRANCH   1   4
ATOM      4  N   UNL     1      -0.087  -2.120   0.612  0.00  0.00    -0.200 N 
ATOM      5  H   UNL     1      -0.328  -2.665   1.396  0.00  0.00    +0.175 HD
ATOM      6  N   UNL     1      -1.419  -1.646  -1.268  0.00  0.00    -0.230 NA
ATOM      7  N   UNL     1      -2.893   0.259  -1.326  0.00  0.00    -0.212 NA
ATOM      8  C   UNL     1      -1.059  -1.274  -0.026  0.00  0.00    +0.157 C 
ATOM      9  C   UNL     1      -1.557  -0.172   0.629  0.00  0.00    +0.245 C 
ATOM     10  C   UNL     1      -2.483   0.568  -0.079  0.00  0.00    +0.233 C 
ATOM     11  C   UNL     1      -2.329  -0.845  -1.853  0.00  0.00    +0.254 C 
BRANCH   9  12
ATOM     12  O   UNL     1      -1.171   0.172   1.880  0.00  0.00    -0.338 OA
ATOM     13  C   UNL     1      -1.920  -0.371   2.971  0.00  0.00    +0.175 C 
ENDBRANCH   9  12
BRANCH  10  14
ATOM     14  O   UNL     1      -3.036   1.685   0.490  0.00  0.00    -0.457 OA
ATOM     15  C   UNL     1      -3.983   2.400  -0.295  0.00  0.00    +0.254 C 
ENDBRANCH  10  14
ENDBRANCH   1   4
BRANCH   1  16
ATOM     16  C   UNL     1       1.932  -0.460  -0.106  0.00  0.00    +0.125 C 
ATOM     17  C   UNL     1       2.553   0.151   0.984  0.00  0.00    +0.021 C 
ATOM     18  C   UNL     1       1.650   0.282  -1.253  0.00  0.00    +0.021 C 
ATOM     19  C   UNL     1       2.890   1.503   0.927  0.00  0.00    +0.015 C 
ATOM     20  C   UNL     1       1.988   1.634  -1.310  0.00  0.00    +0.015 C 
ATOM     21  C   UNL     1       2.608   2.244  -0.220  0.00  0.00    +0.042 C 
BRANCH  21  22
ATOM     22  N   UNL     1       2.950   3.612  -0.278  0.00  0.00    -0.357 N 
ATOM     23  H   UNL     1       3.388   4.043   0.491  0.00  0.00    +0.142 HD
ATOM     24  H   UNL     1       2.752   4.135  -1.088  0.00  0.00    +0.142 HD
ENDBRANCH  21  22
ENDBRANCH   1  16
TORSDOF 5
