REMARK  Name = 3902
REMARK  5 active torsions:
REMARK  status: ('A' for Active; 'I' for Inactive)
REMARK    1  A    between atoms: C_1  and  C_2
REMARK    2  A    between atoms: C_1  and  C_10
REMARK    3  A    between atoms: C_1  and  N_18
REMARK    4  A    between atoms: C_7  and  C_9
REMARK    5  A    between atoms: C_15  and  C_17
REMARK                            x       y       z     vdW  Elec       q    Type
REMARK                         _______ _______ _______ _____ _____    ______ ____
ROOT
ATOM      1  C   UNL     1      -0.004   0.787  -0.715  0.00  0.00    +0.142 C 
ENDROOT
BRANCH   1   2
ATOM      2  C   UNL     1      -1.290   0.080  -0.451  0.00  0.00    +0.002 C 
ATOM      3  C   UNL     1      -1.845  -0.746  -1.428  0.00  0.00    -0.002 C 
ATOM      4  C   UNL     1      -1.937   0.243   0.774  0.00  0.00    -0.002 C 
ATOM      5  C   UNL     1      -3.048  -1.408  -1.180  0.00  0.00    +0.010 C 
ATOM      6  C   UNL     1      -3.139  -0.419   1.022  0.00  0.00    +0.010 C 
ATOM      7  C   UNL     1      -3.695  -1.245   0.044  0.00  0.00    +0.068 C 
BRANCH   7   9
ATOM      8  N   UNL     1      -5.927  -2.477   0.505  0.00  0.00    -0.191 NA
ATOM      9  C   UNL     1      -4.926  -1.924   0.299  0.00  0.00    +0.100 C 
ENDBRANCH   7   9
ENDBRANCH   1   2
BRANCH   1  10
ATOM     10  C   UNL     1       1.299   0.018  -0.432  0.00  0.00    +0.002 C 
ATOM     11  C   UNL     1       2.390   0.274  -1.223  0.00  0.00    -0.002 C 
ATOM     12  C   UNL     1       1.308  -0.886   0.600  0.00  0.00    -0.002 C 
ATOM     13  C   UNL     1       3.571  -0.423  -0.965  0.00  0.00    +0.010 C 
ATOM     14  C   UNL     1       2.489  -1.582   0.858  0.00  0.00    +0.010 C 
ATOM     15  C   UNL     1       3.620  -1.351   0.075  0.00  0.00    +0.068 C 
BRANCH  15  17
ATOM     16  N   UNL     1       5.814  -2.642   0.555  0.00  0.00    -0.191 NA
ATOM     17  C   UNL     1       4.830  -2.063   0.340  0.00  0.00    +0.100 C 
ENDBRANCH  15  17
ENDBRANCH   1  10
BRANCH   1  18
ATOM     18  N   UNL     1       0.049   2.175  -0.153  0.00  0.00    -0.184 N 
ATOM     19  N   UNL     1       0.599   2.358   1.025  0.00  0.00    -0.153 NA
ATOM     20  N   UNL     1      -0.182   4.282   0.065  0.00  0.00    -0.203 NA
ATOM     21  C   UNL     1      -0.415   3.270  -0.738  0.00  0.00    +0.186 C 
ATOM     22  C   UNL     1       0.435   3.679   1.124  0.00  0.00    +0.218 C 
ENDBRANCH   1  18
TORSDOF 5
