REMARK  Name = 3000540
REMARK  11 active torsions:
REMARK  status: ('A' for Active; 'I' for Inactive)
REMARK    1  A    between atoms: C_1  and  C_3
REMARK    2  A    between atoms: C_1  and  N_17
REMARK    3  A    between atoms: C_1  and  C_30
REMARK    4  A    between atoms: C_4  and  O_10
REMARK    5  A    between atoms: C_5  and  O_12
REMARK    6  A    between atoms: C_6  and  O_14
REMARK    7  A    between atoms: C_7  and  S_8
REMARK    8  A    between atoms: C_18  and  C_22
REMARK    9  A    between atoms: C_21  and  C_27
REMARK   10  A    between atoms: C_27  and  C_28
REMARK   11  A    between atoms: C_30  and  O_32
REMARK                            x       y       z     vdW  Elec       q    Type
REMARK                         _______ _______ _______ _____ _____    ______ ____
ROOT
ATOM      1  C   UNL     1       0.839   0.570   0.776  0.00  0.00    +0.128 C 
ENDROOT
BRANCH   1   3
ATOM      2  O   UNL     1       3.212   0.784   0.757  0.00  0.00    -0.341 OA
ATOM      3  C   UNL     1       2.111   0.273  -0.012  0.00  0.00    +0.166 C 
ATOM      4  C   UNL     1       2.285  -1.224  -0.294  0.00  0.00    +0.168 C 
ATOM      5  C   UNL     1       3.629  -1.482  -0.979  0.00  0.00    +0.170 C 
ATOM      6  C   UNL     1       4.765  -0.871  -0.159  0.00  0.00    +0.177 C 
ATOM      7  C   UNL     1       4.502   0.609   0.157  0.00  0.00    +0.192 C 
BRANCH   7   8
ATOM      8  S   UNL     1       4.781   1.740  -1.258  0.00  0.00    -0.109 S 
ATOM      9  C   UNL     1       4.972   3.267  -0.316  0.00  0.00    +0.072 C 
ENDBRANCH   7   8
BRANCH   4  10
ATOM     10  O   UNL     1       2.233  -1.938   0.944  0.00  0.00    -0.379 OA
ATOM     11  H   UNL     1       1.381  -1.773   1.376  0.00  0.00    +0.211 HD
ENDBRANCH   4  10
BRANCH   5  12
ATOM     12  O   UNL     1       3.846  -2.885  -1.108  0.00  0.00    -0.379 OA
ATOM     13  H   UNL     1       3.127  -3.277  -1.628  0.00  0.00    +0.211 HD
ENDBRANCH   5  12
BRANCH   6  14
ATOM     14  O   UNL     1       6.013  -1.030  -0.825  0.00  0.00    -0.379 OA
ATOM     15  H   UNL     1       6.160  -1.970  -1.016  0.00  0.00    +0.211 HD
ENDBRANCH   6  14
ENDBRANCH   1   3
BRANCH   1  17
ATOM     16  O   UNL     1      -1.582  -0.528   1.942  0.00  0.00    -0.277 OA
ATOM     17  N   UNL     1      -0.302   0.024   0.078  0.00  0.00    -0.303 N 
ATOM     18  C   UNL     1      -1.417  -0.479   0.726  0.00  0.00    +0.203 C 
ATOM     19  H   UNL     1      -0.286   0.008  -0.907  0.00  0.00    +0.149 HD
BRANCH  18  22
ATOM     20  N   UNL     1      -3.244  -1.985   0.465  0.00  0.00    +0.392 N 
ATOM     21  C   UNL     1      -4.773  -0.302   0.033  0.00  0.00    -0.022 C 
ATOM     22  C   UNL     1      -2.461  -0.957  -0.231  0.00  0.00    +0.020 C 
ATOM     23  C   UNL     1      -3.451   0.156  -0.580  0.00  0.00    -0.014 C 
ATOM     24  C   UNL     1      -4.632  -1.817   0.031  0.00  0.00    -0.077 C 
ATOM     25  C   UNL     1      -2.752  -3.336   0.229  0.00  0.00    -0.100 C 
ATOM     26  H   UNL     1      -3.160  -1.863   1.474  0.00  0.00    -0.079 HD
BRANCH  21  27
ATOM     27  C   UNL     1      -5.995   0.191  -0.723  0.00  0.00    -0.002 C 
BRANCH  27  28
ATOM     28  C   UNL     1      -6.029   1.717  -0.799  0.00  0.00    -0.000 C 
ATOM     29  C   UNL     1      -7.266   2.211  -1.531  0.00  0.00    -0.000 C 
ENDBRANCH  27  28
ENDBRANCH  21  27
ENDBRANCH  18  22
ENDBRANCH   1  17
BRANCH   1  30
ATOM     30  C   UNL     1       0.661   2.073   1.061  0.00  0.00    +0.131 C 
ATOM     31  C   UNL     1       0.569   2.907  -0.212  0.00  0.00    +0.034 C 
BRANCH  30  32
ATOM     32  O   UNL     1      -0.515   2.313   1.829  0.00  0.00    -0.383 OA
ATOM     33  H   UNL     1      -0.480   1.792   2.646  0.00  0.00    +0.210 HD
ENDBRANCH  30  32
ENDBRANCH   1  30
TORSDOF 11
