REMARK  Name = 105039
REMARK  4 active torsions:
REMARK  status: ('A' for Active; 'I' for Inactive)
REMARK    1  A    between atoms: C_3  and  C_10
REMARK    2  A    between atoms: C_10  and  C_11
REMARK    3  A    between atoms: C_11  and  N_13
REMARK    4  A    between atoms: N_13  and  C_16
REMARK                            x       y       z     vdW  Elec       q    Type
REMARK                         _______ _______ _______ _____ _____    ______ ____
ROOT
ATOM      1  O   UNL     1      -3.203  -1.392  -0.528  0.00  0.00    -0.435 OA
ATOM      2  O   UNL     1      -3.974   0.705   0.374  0.00  0.00    -0.435 OA
ATOM      3  C   UNL     1       0.051   0.291  -0.320  0.00  0.00    -0.021 C 
ATOM      4  C   UNL     1      -0.851  -0.740  -0.592  0.00  0.00    +0.036 C 
ATOM      5  C   UNL     1      -0.400   1.515   0.206  0.00  0.00    -0.001 C 
ATOM      6  C   UNL     1      -2.186  -0.511  -0.327  0.00  0.00    +0.176 C 
ATOM      7  C   UNL     1      -2.626   0.687   0.188  0.00  0.00    +0.176 C 
ATOM      8  C   UNL     1      -1.756   1.721   0.466  0.00  0.00    +0.040 C 
ATOM      9  C   UNL     1      -4.333  -0.615  -0.082  0.00  0.00    +0.429 C 
ENDROOT
BRANCH   3  10
ATOM     10  C   UNL     1       1.505   0.094  -0.589  0.00  0.00    +0.005 C 
BRANCH  10  11
ATOM     11  C   UNL     1       2.298  -0.488   0.605  0.00  0.00    -0.058 C 
ATOM     12  C   UNL     1       1.785  -1.866   1.025  0.00  0.00    -0.023 C 
BRANCH  11  13
ATOM     13  N   UNL     1       3.716  -0.610   0.256  0.00  0.00    +0.385 N 
ATOM     14  H   UNL     1       3.818  -1.280  -0.506  0.00  0.00    -0.084 HD
ATOM     15  H   UNL     1       4.230  -0.930   1.077  0.00  0.00    -0.084 HD
BRANCH  13  16
ATOM     16  C   UNL     1       4.253   0.674  -0.162  0.00  0.00    -0.082 C 
ATOM     17  C   UNL     1       5.721   0.535  -0.518  0.00  0.00    -0.026 C 
ENDBRANCH  13  16
ENDBRANCH  11  13
ENDBRANCH  10  11
ENDBRANCH   3  10
TORSDOF 4
