REMARK  Name = 37464
REMARK  8 active torsions:
REMARK  status: ('A' for Active; 'I' for Inactive)
REMARK    1  A    between atoms: O_1  and  C_3
REMARK    2  A    between atoms: O_1  and  C_13
REMARK    3  A    between atoms: C_2  and  C_8
REMARK    4  A    between atoms: C_13  and  C_14
REMARK    5  A    between atoms: C_14  and  O_15
REMARK    6  A    between atoms: C_14  and  C_17
REMARK    7  A    between atoms: C_17  and  N_18
REMARK    8  A    between atoms: N_18  and  C_21
REMARK                            x       y       z     vdW  Elec       q    Type
REMARK                         _______ _______ _______ _____ _____    ______ ____
ROOT
ATOM      1  O   UNL     1      -0.143  -0.615   0.163  0.00  0.00    -0.473 OA
ENDROOT
BRANCH   1   3
ATOM      2  C   UNL     1       2.230  -0.508  -0.159  0.00  0.00    +0.011 C 
ATOM      3  C   UNL     1       1.065  -1.245   0.028  0.00  0.00    +0.135 C 
ATOM      4  C   UNL     1       3.452  -1.167  -0.294  0.00  0.00    -0.001 C 
ATOM      5  C   UNL     1       1.110  -2.635   0.082  0.00  0.00    +0.037 C 
ATOM      6  C   UNL     1       3.503  -2.559  -0.241  0.00  0.00    -0.000 C 
ATOM      7  C   UNL     1       2.332  -3.294  -0.053  0.00  0.00    +0.003 C 
BRANCH   2   8
ATOM      8  C   UNL     1       2.193   1.003  -0.220  0.00  0.00    +0.025 C 
ATOM      9  C   UNL     1       3.037   1.658   0.888  0.00  0.00    +0.004 C 
ATOM     10  C   UNL     1       2.706   1.603  -1.545  0.00  0.00    +0.004 C 
ATOM     11  C   UNL     1       3.620   2.905   0.243  0.00  0.00    +0.000 C 
ATOM     12  C   UNL     1       3.918   2.450  -1.175  0.00  0.00    +0.000 C 
ENDBRANCH   2   8
ENDBRANCH   1   3
BRANCH   1  13
ATOM     13  C   UNL     1      -0.849  -0.838   1.380  0.00  0.00    +0.232 C 
BRANCH  13  14
ATOM     14  C   UNL     1      -1.674   0.406   1.706  0.00  0.00    +0.133 C 
BRANCH  14  15
ATOM     15  O   UNL     1      -0.784   1.512   1.885  0.00  0.00    -0.383 OA
ATOM     16  H   UNL     1      -1.296   2.308   2.093  0.00  0.00    +0.210 HD
ENDBRANCH  14  15
BRANCH  14  17
ATOM     17  C   UNL     1      -2.676   0.772   0.609  0.00  0.00    -0.048 C 
BRANCH  17  18
ATOM     18  N   UNL     1      -3.664  -0.273   0.400  0.00  0.00    +0.388 N 
ATOM     19  H   UNL     1      -3.188  -1.134   0.131  0.00  0.00    -0.084 HD
ATOM     20  H   UNL     1      -4.183  -0.413   1.267  0.00  0.00    -0.084 HD
BRANCH  18  21
ATOM     21  C   UNL     1      -4.604   0.110  -0.658  0.00  0.00    -0.046 C 
ATOM     22  C   UNL     1      -3.835   0.330  -1.966  0.00  0.00    -0.022 C 
ATOM     23  C   UNL     1      -5.311   1.403  -0.239  0.00  0.00    -0.022 C 
ATOM     24  C   UNL     1      -5.628  -1.017  -0.833  0.00  0.00    -0.022 C 
ENDBRANCH  18  21
ENDBRANCH  17  18
ENDBRANCH  14  17
ENDBRANCH  13  14
ENDBRANCH   1  13
TORSDOF 8
