REMARK  Name = 101798
REMARK  6 active torsions:
REMARK  status: ('A' for Active; 'I' for Inactive)
REMARK    1  A    between atoms: C_2  and  O_7
REMARK    2  A    between atoms: C_3  and  O_9
REMARK    3  A    between atoms: C_4  and  C_15
REMARK    4  A    between atoms: C_5  and  O_11
REMARK    5  A    between atoms: C_6  and  O_13
REMARK    6  A    between atoms: C_15  and  O_16
REMARK                            x       y       z     vdW  Elec       q    Type
REMARK                         _______ _______ _______ _____ _____    ______ ____
ROOT
ATOM      1  O   UNL     1      -0.914   0.432   0.748  0.00  0.00    -0.326 OA
ATOM      2  C   UNL     1       0.580  -1.304  -0.112  0.00  0.00    +0.169 C 
ATOM      3  C   UNL     1       1.581  -0.223  -0.521  0.00  0.00    +0.172 C 
ATOM      4  C   UNL     1      -0.841  -0.726  -0.088  0.00  0.00    +0.176 C 
ATOM      5  C   UNL     1       1.411   1.029   0.342  0.00  0.00    +0.196 C 
ATOM      6  C   UNL     1      -0.043   1.497   0.350  0.00  0.00    +0.266 C 
ENDROOT
BRANCH   2   7
ATOM      7  O   UNL     1       0.625  -2.377  -1.049  0.00  0.00    -0.379 OA
ATOM      8  H   UNL     1       1.520  -2.749  -1.071  0.00  0.00    +0.211 HD
ENDBRANCH   2   7
BRANCH   3   9
ATOM      9  O   UNL     1       2.916  -0.701  -0.378  0.00  0.00    -0.379 OA
ATOM     10  H   UNL     1       3.034  -1.496  -0.922  0.00  0.00    +0.211 HD
ENDBRANCH   3   9
BRANCH   5  11
ATOM     11  O   UNL     1       1.782   0.744   1.692  0.00  0.00    -0.378 OA
ATOM     12  H   UNL     1       2.705   0.444   1.717  0.00  0.00    +0.211 HD
ENDBRANCH   5  11
BRANCH   6  13
ATOM     13  O   UNL     1      -0.384   2.029  -0.925  0.00  0.00    -0.326 OA
ATOM     14  C   UNL     1      -1.732   2.476  -0.958  0.00  0.00    +0.177 C 
ENDBRANCH   6  13
BRANCH   4  15
ATOM     15  C   UNL     1      -1.849  -1.738   0.448  0.00  0.00    +0.169 C 
BRANCH  15  16
ATOM     16  O   UNL     1      -3.131  -1.138   0.452  0.00  0.00    -0.379 OA
ATOM     17  H   UNL     1      -3.783  -1.771   0.791  0.00  0.00    +0.211 HD
ENDBRANCH  15  16
ENDBRANCH   4  15
TORSDOF 6
