27453
  -OEChem-10051719363D

 48 48  0     0  0  0  0  0  0999 V2000
   -5.4016   -0.4307    0.8278 O   0  0  0  0  0  0  0  0  0  0  0  0
    2.9246    1.5536    0.2422 O   0  0  0  0  0  0  0  0  0  0  0  0
    7.7713    0.0652    0.7620 O   0  0  0  0  0  0  0  0  0  0  0  0
    1.8563   -0.2004   -0.8418 N   0  0  0  0  0  0  0  0  0  0  0  0
   -0.5584   -0.4435   -0.1379 C   0  0  0  0  0  0  0  0  0  0  0  0
   -0.1709   -0.6153    1.3738 C   0  0  0  0  0  0  0  0  0  0  0  0
   -0.6243   -1.8849   -0.7582 C   0  0  0  0  0  0  0  0  0  0  0  0
    0.5406    0.3843   -0.8770 C   0  0  0  0  0  0  0  0  0  0  0  0
   -1.9582    0.2177   -0.2243 C   0  0  0  0  0  0  0  0  0  0  0  0
   -0.0967    0.6741    2.1870 C   0  0  0  0  0  0  0  0  0  0  0  0
   -1.0432   -1.9540   -2.2245 C   0  0  0  0  0  0  0  0  0  0  0  0
   -3.0638   -0.4121    0.3472 C   0  0  0  0  0  0  0  0  0  0  0  0
   -2.1117    1.4427   -0.8734 C   0  0  0  0  0  0  0  0  0  0  0  0
    2.9521    0.4416   -0.2777 C   0  0  0  0  0  0  0  0  0  0  0  0
   -4.3229    0.1832    0.2697 C   0  0  0  0  0  0  0  0  0  0  0  0
   -3.3708    2.0381   -0.9511 C   0  0  0  0  0  0  0  0  0  0  0  0
    4.2056   -0.4142   -0.3517 C   0  0  0  0  0  0  0  0  0  0  0  0
   -4.4763    1.4083   -0.3795 C   0  0  0  0  0  0  0  0  0  0  0  0
    5.4375    0.2492    0.2559 C   0  0  0  0  0  0  0  0  0  0  0  0
    6.6844   -0.6216    0.1555 C   0  0  0  0  0  0  0  0  0  0  0  0
   -5.1738   -1.6813    1.4761 C   0  0  0  0  0  0  0  0  0  0  0  0
   -0.8791   -1.2862    1.8761 H   0  0  0  0  0  0  0  0  0  0  0  0
    0.8015   -1.1193    1.4472 H   0  0  0  0  0  0  0  0  0  0  0  0
   -1.3189   -2.5135   -0.1867 H   0  0  0  0  0  0  0  0  0  0  0  0
    0.3483   -2.3821   -0.6546 H   0  0  0  0  0  0  0  0  0  0  0  0
    0.6033    1.3984   -0.4679 H   0  0  0  0  0  0  0  0  0  0  0  0
    0.2991    0.4942   -1.9404 H   0  0  0  0  0  0  0  0  0  0  0  0
    0.6568    1.3619    1.7967 H   0  0  0  0  0  0  0  0  0  0  0  0
   -1.0588    1.1934    2.2152 H   0  0  0  0  0  0  0  0  0  0  0  0
    0.1793    0.4410    3.2210 H   0  0  0  0  0  0  0  0  0  0  0  0
   -2.0293   -1.5117   -2.3908 H   0  0  0  0  0  0  0  0  0  0  0  0
   -1.0951   -3.0007   -2.5429 H   0  0  0  0  0  0  0  0  0  0  0  0
   -0.3216   -1.4529   -2.8752 H   0  0  0  0  0  0  0  0  0  0  0  0
    1.9974   -1.0928   -1.3058 H   0  0  0  0  0  0  0  0  0  0  0  0
   -2.9052   -1.3596    0.8468 H   0  0  0  0  0  0  0  0  0  0  0  0
   -1.2931    1.9791   -1.3384 H   0  0  0  0  0  0  0  0  0  0  0  0
   -3.4913    2.9917   -1.4569 H   0  0  0  0  0  0  0  0  0  0  0  0
    4.0013   -1.3592    0.1662 H   0  0  0  0  0  0  0  0  0  0  0  0
    4.3947   -0.6463   -1.4069 H   0  0  0  0  0  0  0  0  0  0  0  0
   -5.4546    1.8769   -0.4431 H   0  0  0  0  0  0  0  0  0  0  0  0
    5.6279    1.2124   -0.2350 H   0  0  0  0  0  0  0  0  0  0  0  0
    5.2504    0.4953    1.3092 H   0  0  0  0  0  0  0  0  0  0  0  0
    6.5384   -1.5727    0.6771 H   0  0  0  0  0  0  0  0  0  0  0  0
    6.9367   -0.8220   -0.8905 H   0  0  0  0  0  0  0  0  0  0  0  0
   -6.1396   -2.0258    1.8601 H   0  0  0  0  0  0  0  0  0  0  0  0
   -4.5085   -1.5724    2.3394 H   0  0  0  0  0  0  0  0  0  0  0  0
   -4.8217   -2.4425    0.7716 H   0  0  0  0  0  0  0  0  0  0  0  0
    8.5510   -0.5107    0.6843 H   0  0  0  0  0  0  0  0  0  0  0  0
  1 15  1  0  0  0  0
  1 21  1  0  0  0  0
  2 14  2  0  0  0  0
  3 20  1  0  0  0  0
  3 48  1  0  0  0  0
  4  8  1  0  0  0  0
  4 14  1  0  0  0  0
  4 34  1  0  0  0  0
  5  6  1  0  0  0  0
  5  7  1  0  0  0  0
  5  8  1  0  0  0  0
  5  9  1  0  0  0  0
  6 10  1  0  0  0  0
  6 22  1  0  0  0  0
  6 23  1  0  0  0  0
  7 11  1  0  0  0  0
  7 24  1  0  0  0  0
  7 25  1  0  0  0  0
  8 26  1  0  0  0  0
  8 27  1  0  0  0  0
  9 12  2  0  0  0  0
  9 13  1  0  0  0  0
 10 28  1  0  0  0  0
 10 29  1  0  0  0  0
 10 30  1  0  0  0  0
 11 31  1  0  0  0  0
 11 32  1  0  0  0  0
 11 33  1  0  0  0  0
 12 15  1  0  0  0  0
 12 35  1  0  0  0  0
 13 16  2  0  0  0  0
 13 36  1  0  0  0  0
 14 17  1  0  0  0  0
 15 18  2  0  0  0  0
 16 18  1  0  0  0  0
 16 37  1  0  0  0  0
 17 19  1  0  0  0  0
 17 38  1  0  0  0  0
 17 39  1  0  0  0  0
 18 40  1  0  0  0  0
 19 20  1  0  0  0  0
 19 41  1  0  0  0  0
 19 42  1  0  0  0  0
 20 43  1  0  0  0  0
 20 44  1  0  0  0  0
 21 45  1  0  0  0  0
 21 46  1  0  0  0  0
 21 47  1  0  0  0  0
M  END
> <DATABASE_ID>
DB01487

> <DATABASE_NAME>
drugbank

> <ORIGINAL_SOURCE>
PUBCHEM

> <ORIGINAL_SOURCE_URL>
https://pubchem.ncbi.nlm.nih.gov/rest/pug/compound/inchikey/LMBMDLOSPKIWAP-UHFFFAOYSA-N/SDF?record_type=3d

> <SMILES>
CCC(CC)(CNC(=O)CCCO)C1=CC(OC)=CC=C1

> <INCHI_IDENTIFIER>
InChI=1S/C17H27NO3/c1-4-17(5-2,13-18-16(20)10-7-11-19)14-8-6-9-15(12-14)21-3/h6,8-9,12,19H,4-5,7,10-11,13H2,1-3H3,(H,18,20)

> <INCHI_KEY>
LMBMDLOSPKIWAP-UHFFFAOYSA-N

> <FORMULA>
C17H27NO3

> <MOLECULAR_WEIGHT>
293.4012

> <EXACT_MASS>
293.199093735

> <JCHEM_ACCEPTOR_COUNT>
3

> <JCHEM_AVERAGE_POLARIZABILITY>
33.93461266486641

> <JCHEM_BIOAVAILABILITY>
1

> <JCHEM_DONOR_COUNT>
2

> <JCHEM_FORMAL_CHARGE>
0

> <JCHEM_GHOSE_FILTER>
1

> <JCHEM_IUPAC>
N-[2-ethyl-2-(3-methoxyphenyl)butyl]-4-hydroxybutanamide

> <ALOGPS_LOGP>
2.98

> <JCHEM_LOGP>
2.3893876959999996

> <ALOGPS_LOGS>
-3.85

> <JCHEM_MDDR_LIKE_RULE>
0

> <JCHEM_NUMBER_OF_RINGS>
1

> <JCHEM_PHYSIOLOGICAL_CHARGE>
0

> <JCHEM_PKA>
16.25275050081188

> <JCHEM_PKA_STRONGEST_ACIDIC>
15.626393017868423

> <JCHEM_PKA_STRONGEST_BASIC>
-0.06236279882040463

> <JCHEM_POLAR_SURFACE_AREA>
58.56

> <JCHEM_REFRACTIVITY>
84.42170000000002

> <JCHEM_ROTATABLE_BOND_COUNT>
9

> <JCHEM_RULE_OF_FIVE>
1

> <ALOGPS_SOLUBILITY>
4.17e-02 g/l

> <JCHEM_TRADITIONAL_IUPAC>
embutramide

> <JCHEM_VEBER_RULE>
0

> <DRUGBANK_ID>
DB01487

> <SECONDARY_ACCESSION_NUMBERS>
DB11402

> <DRUG_GROUPS>
experimental; illicit

> <GENERIC_NAME>
Embutramide

> <SYNONYMS>
Embutramid

$$$$
