REMARK  Name = 3950
REMARK  4 active torsions:
REMARK  status: ('A' for Active; 'I' for Inactive)
REMARK    1  A    between atoms: N_2  and  C_6
REMARK    2  A    between atoms: N_3  and  N_13
REMARK    3  A    between atoms: N_3  and  C_14
REMARK    4  A    between atoms: C_14  and  C_16
REMARK                            x       y       z     vdW  Elec       q    Type
REMARK                         _______ _______ _______ _____ _____    ______ ____
ROOT
ATOM      1  O   UNL     1       0.753   1.829  -0.206  0.00  0.00    -0.251 OA
ATOM      2  N   UNL     1      -0.667   0.080   0.249  0.00  0.00    -0.289 N 
ATOM      3  N   UNL     1       1.609  -0.324  -0.246  0.00  0.00    -0.163 N 
ATOM      4  C   UNL     1       0.578   0.613  -0.078  0.00  0.00    +0.320 C 
ATOM      5  H   UNL     1      -0.759  -0.896   0.341  0.00  0.00    +0.151 HD
ENDROOT
BRANCH   2   6
ATOM      6  C   UNL     1      -1.829   0.916   0.457  0.00  0.00    +0.073 C 
ATOM      7  C   UNL     1      -2.562   1.178  -0.863  0.00  0.00    +0.020 C 
ATOM      8  C   UNL     1      -2.768   0.304   1.502  0.00  0.00    +0.020 C 
ATOM      9  C   UNL     1      -3.293  -0.060  -1.381  0.00  0.00    +0.002 C 
ATOM     10  C   UNL     1      -3.499  -0.933   0.980  0.00  0.00    +0.002 C 
ATOM     11  C   UNL     1      -4.230  -0.644  -0.328  0.00  0.00    +0.000 C 
ENDBRANCH   2   6
BRANCH   3  13
ATOM     12  O   UNL     1       2.327  -2.495  -0.249  0.00  0.00    -0.078 OA
ATOM     13  N   UNL     1       1.335  -1.780  -0.073  0.00  0.00    +0.054 NA
ENDBRANCH   3  13
BRANCH   3  14
ATOM     14  C   UNL     1       2.964   0.091  -0.588  0.00  0.00    +0.134 C 
BRANCH  14  16
ATOM     15 CL   UNL     1       5.464   0.867   0.185  0.00  0.00    -0.112 Cl
ATOM     16  C   UNL     1       3.819   0.357   0.640  0.00  0.00    +0.118 C 
ENDBRANCH  14  16
ENDBRANCH   3  14
TORSDOF 4
