REMARK  Name = 62296
REMARK  6 active torsions:
REMARK  status: ('A' for Active; 'I' for Inactive)
REMARK    1  A    between atoms: N_1  and  C_20
REMARK    2  A    between atoms: C_2  and  N_10
REMARK    3  A    between atoms: N_10  and  C_12
REMARK    4  A    between atoms: C_11  and  C_18
REMARK    5  A    between atoms: C_20  and  C_21
REMARK    6  A    between atoms: C_21  and  C_23
REMARK                            x       y       z     vdW  Elec       q    Type
REMARK                         _______ _______ _______ _____ _____    ______ ____
ROOT
ATOM      1  N   UNL     1       1.627  -0.140  -0.414  0.00  0.00    +0.387 N 
ATOM      2  C   UNL     1      -1.149  -1.008  -0.015  0.00  0.00    +0.076 C 
ATOM      3  C   UNL     1      -0.620  -0.580  -1.400  0.00  0.00    -0.002 C 
ATOM      4  C   UNL     1      -0.304  -0.375   1.096  0.00  0.00    -0.003 C 
ATOM      5  C   UNL     1       0.901  -0.815  -1.498  0.00  0.00    -0.076 C 
ATOM      6  C   UNL     1       1.187  -0.633   0.896  0.00  0.00    -0.076 C 
ATOM      7  C   UNL     1      -1.321  -1.327  -2.540  0.00  0.00    -0.000 C 
ATOM      8  H   UNL     1       1.420   0.857  -0.465  0.00  0.00    -0.080 HD
ENDROOT
BRANCH   2  10
ATOM      9  O   UNL     1      -3.400  -2.837   0.503  0.00  0.00    -0.275 OA
ATOM     10  N   UNL     1      -2.538  -0.653   0.172  0.00  0.00    -0.260 N 
ATOM     11  C   UNL     1      -3.562  -1.617   0.419  0.00  0.00    +0.229 C 
BRANCH  10  12
ATOM     12  C   UNL     1      -2.911   0.758   0.104  0.00  0.00    +0.054 C 
ATOM     13  C   UNL     1      -2.886   1.474   1.263  0.00  0.00    +0.015 C 
ATOM     14  C   UNL     1      -3.261   1.260  -1.114  0.00  0.00    +0.015 C 
ATOM     15  C   UNL     1      -3.244   2.821   1.198  0.00  0.00    +0.001 C 
ATOM     16  C   UNL     1      -3.619   2.607  -1.179  0.00  0.00    +0.001 C 
ATOM     17  C   UNL     1      -3.610   3.387  -0.023  0.00  0.00    +0.000 C 
ENDBRANCH  10  12
BRANCH  11  18
ATOM     18  C   UNL     1      -4.971  -1.042   0.540  0.00  0.00    +0.086 C 
ATOM     19  C   UNL     1      -6.020  -2.107   0.818  0.00  0.00    +0.010 C 
ENDBRANCH  11  18
ENDBRANCH   2  10
BRANCH   1  20
ATOM     20  C   UNL     1       3.070  -0.326  -0.571  0.00  0.00    -0.072 C 
BRANCH  20  21
ATOM     21  C   UNL     1       3.844   0.472   0.480  0.00  0.00    +0.010 C 
BRANCH  21  23
ATOM     22  S   UNL     1       6.237  -0.308   1.612  0.00  0.00    -0.091 S 
ATOM     23  C   UNL     1       5.334   0.304   0.311  0.00  0.00    +0.005 C 
ATOM     24  C   UNL     1       6.079   0.589  -0.790  0.00  0.00    +0.003 C 
ATOM     25  C   UNL     1       7.455   0.297  -0.567  0.00  0.00    +0.007 C 
ATOM     26  C   UNL     1       7.681  -0.198   0.699  0.00  0.00    +0.035 C 
ENDBRANCH  21  23
ENDBRANCH  20  21
ENDBRANCH   1  20
TORSDOF 6
