REMARK  Name = 17753789
REMARK  10 active torsions:
REMARK  status: ('A' for Active; 'I' for Inactive)
REMARK    1  A    between atoms: N_1  and  C_29
REMARK    2  A    between atoms: C_3  and  C_8
REMARK    3  A    between atoms: C_4  and  C_17
REMARK    4  A    between atoms: C_5  and  O_6
REMARK    5  A    between atoms: C_8  and  N_9
REMARK    6  A    between atoms: C_8  and  C_13
REMARK    7  A    between atoms: C_13  and  O_15
REMARK    8  A    between atoms: C_17  and  C_20
REMARK    9  A    between atoms: C_29  and  C_31
REMARK   10  A    between atoms: C_31  and  O_32
REMARK                            x       y       z     vdW  Elec       q    Type
REMARK                         _______ _______ _______ _____ _____    ______ ____
ROOT
ATOM      1  N   UNL     1      -2.284  -0.849   0.561  0.00  0.00    -0.251 N 
ATOM      2  N   UNL     1      -0.653   0.547   1.130  0.00  0.00    -0.398 NA
ATOM      3  C   UNL     1      -1.883   0.453   0.676  0.00  0.00    +0.143 C 
ATOM      4  C   UNL     1      -0.249  -0.752   1.314  0.00  0.00    +0.139 C 
ATOM      5  C   UNL     1      -1.244  -1.636   0.968  0.00  0.00    +0.241 C 
ENDROOT
BRANCH   5   6
ATOM      6  O   UNL     1      -1.314  -2.958   0.976  0.00  0.00    -0.362 OA
ATOM      7  H   UNL     1      -2.099  -3.387   0.696  0.00  0.00    +0.213 HD
ENDBRANCH   5   6
BRANCH   3   8
ATOM      8  C   UNL     1      -2.764   1.584   0.320  0.00  0.00    +0.031 C 
BRANCH   8   9
ATOM      9  N   UNL     1      -3.634   1.983   1.455  0.00  0.00    +0.389 N 
ATOM     10  H   UNL     1      -4.135   1.166   1.803  0.00  0.00    -0.088 HD
ATOM     11  H   UNL     1      -4.304   2.684   1.139  0.00  0.00    -0.088 HD
ATOM     12  H   UNL     1      -3.060   2.375   2.202  0.00  0.00    -0.088 HD
ENDBRANCH   8   9
BRANCH   8  13
ATOM     13  C   UNL     1      -1.990   2.833  -0.223  0.00  0.00    +0.099 C 
ATOM     14  C   UNL     1      -2.872   3.990  -0.688  0.00  0.00    +0.030 C 
BRANCH  13  15
ATOM     15  O   UNL     1      -1.223   2.397  -1.349  0.00  0.00    -0.386 OA
ATOM     16  H   UNL     1      -0.651   1.660  -1.085  0.00  0.00    +0.210 HD
ENDBRANCH  13  15
ENDBRANCH   8  13
ENDBRANCH   3   8
BRANCH   4  17
ATOM     17  C   UNL     1       1.137  -1.056   1.836  0.00  0.00    +0.086 C 
BRANCH  17  20
ATOM     18  F   UNL     1       2.321   1.823   1.364  0.00  0.00    -0.204 F 
ATOM     19  N   UNL     1       3.448  -2.109  -0.787  0.00  0.00    -0.312 N 
ATOM     20  C   UNL     1       2.146  -1.208   0.768  0.00  0.00    +0.003 C 
ATOM     21  C   UNL     1       2.952  -0.176   0.210  0.00  0.00    +0.039 C 
ATOM     22  C   UNL     1       3.760  -0.769  -0.763  0.00  0.00    +0.050 C 
ATOM     23  C   UNL     1       2.474  -2.385   0.135  0.00  0.00    +0.058 C 
ATOM     24  C   UNL     1       3.072   1.208   0.441  0.00  0.00    +0.141 C 
ATOM     25  C   UNL     1       4.686  -0.042  -1.520  0.00  0.00    +0.015 C 
ATOM     26  C   UNL     1       3.995   1.948  -0.309  0.00  0.00    +0.030 C 
ATOM     27  C   UNL     1       4.788   1.330  -1.274  0.00  0.00    +0.004 C 
ATOM     28  H   UNL     1       3.865  -2.774  -1.382  0.00  0.00    +0.152 HD
ENDBRANCH  17  20
ENDBRANCH   4  17
BRANCH   1  29
ATOM     29  C   UNL     1      -3.572  -1.312   0.095  0.00  0.00    +0.205 C 
BRANCH  29  31
ATOM     30  O   UNL     1      -2.669  -1.353  -2.167  0.00  0.00    -0.248 OA
ATOM     31  C   UNL     1      -3.598  -1.530  -1.393  0.00  0.00    +0.334 C 
BRANCH  31  32
ATOM     32  O   UNL     1      -4.827  -1.960  -1.776  0.00  0.00    -0.479 OA
ATOM     33  H   UNL     1      -5.502  -2.078  -1.137  0.00  0.00    +0.295 HD
ENDBRANCH  31  32
ENDBRANCH  29  31
ENDBRANCH   1  29
TORSDOF 10
