REMARK  Name = 17925
REMARK  1 active torsions:
REMARK  status: ('A' for Active; 'I' for Inactive)
REMARK    1  A    between atoms: C_6  and  C_16
REMARK                            x       y       z     vdW  Elec       q    Type
REMARK                         _______ _______ _______ _____ _____    ______ ____
ROOT
ATOM      1 CL   UNL     1      -0.937  -4.437   0.288  0.00  0.00    -0.082 Cl
ATOM      2  O   UNL     1      -2.487   3.482  -0.099  0.00  0.00    -0.273 OA
ATOM      3  N   UNL     1      -2.477   1.233  -0.533  0.00  0.00    -0.282 N 
ATOM      4  N   UNL     1      -0.015   1.748   1.139  0.00  0.00    -0.260 NA
ATOM      5  C   UNL     1      -0.804  -0.426   0.273  0.00  0.00    +0.032 C 
ATOM      6  C   UNL     1       0.231   0.599   0.607  0.00  0.00    +0.079 C 
ATOM      7  C   UNL     1      -2.020  -0.087  -0.343  0.00  0.00    +0.052 C 
ATOM      8  C   UNL     1      -0.487  -1.779   0.483  0.00  0.00    +0.014 C 
ATOM      9  C   UNL     1      -1.379   2.083   1.486  0.00  0.00    +0.210 C 
ATOM     10  C   UNL     1      -2.847  -1.110  -0.832  0.00  0.00    +0.016 C 
ATOM     11  C   UNL     1      -2.135   2.342   0.210  0.00  0.00    +0.251 C 
ATOM     12  C   UNL     1      -1.343  -2.784   0.035  0.00  0.00    +0.058 C 
ATOM     13  C   UNL     1      -2.513  -2.451  -0.638  0.00  0.00    +0.013 C 
ATOM     14  H   UNL     1      -3.107   1.378  -1.275  0.00  0.00    +0.155 HD
ENDROOT
BRANCH   6  16
ATOM     15 CL   UNL     1       1.280   1.457  -2.168  0.00  0.00    -0.082 Cl
ATOM     16  C   UNL     1       1.657   0.310   0.279  0.00  0.00    +0.028 C 
ATOM     17  C   UNL     1       2.209   0.663  -0.948  0.00  0.00    +0.059 C 
ATOM     18  C   UNL     1       2.428  -0.329   1.244  0.00  0.00    +0.002 C 
ATOM     19  C   UNL     1       3.547   0.373  -1.213  0.00  0.00    +0.011 C 
ATOM     20  C   UNL     1       3.766  -0.619   0.979  0.00  0.00    +0.000 C 
ATOM     21  C   UNL     1       4.326  -0.268  -0.249  0.00  0.00    +0.001 C 
ENDBRANCH   6  16
TORSDOF 1
