REMARK  Name = 5288643
REMARK  5 active torsions:
REMARK  status: ('A' for Active; 'I' for Inactive)
REMARK    1  A    between atoms: C_1  and  C_4
REMARK    2  A    between atoms: C_1  and  N_8
REMARK    3  A    between atoms: C_1  and  C_12
REMARK    4  A    between atoms: N_3  and  O_6
REMARK    5  A    between atoms: C_12  and  C_14
REMARK                            x       y       z     vdW  Elec       q    Type
REMARK                         _______ _______ _______ _____ _____    ______ ____
ROOT
ATOM      1  C   UNL     1       1.824   0.980  -0.402  0.00  0.00    +0.019 C 
ENDROOT
BRANCH   1   4
ATOM      2  O   UNL     1       2.936  -0.516   1.144  0.00  0.00    -0.275 OA
ATOM      3  N   UNL     1       2.270  -1.337  -0.909  0.00  0.00    -0.199 N 
ATOM      4  C   UNL     1       2.415  -0.355   0.041  0.00  0.00    +0.224 C 
ATOM      5  H   UNL     1       1.845  -1.162  -1.780  0.00  0.00    +0.182 HD
BRANCH   3   6
ATOM      6  O   UNL     1       2.764  -2.601  -0.563  0.00  0.00    -0.295 OA
ATOM      7  H   UNL     1       2.614  -3.219  -1.296  0.00  0.00    +0.241 HD
ENDBRANCH   3   6
ENDBRANCH   1   4
BRANCH   1   8
ATOM      8  N   UNL     1       2.924   1.943  -0.465  0.00  0.00    +0.388 N 
ATOM      9  H   UNL     1       2.564   2.851  -0.759  0.00  0.00    -0.089 HD
ATOM     10  H   UNL     1       3.621   1.620  -1.136  0.00  0.00    -0.089 HD
ATOM     11  H   UNL     1       3.354   2.030   0.456  0.00  0.00    -0.089 HD
ENDBRANCH   1   8
BRANCH   1  12
ATOM     12  C   UNL     1       0.764   1.468   0.596  0.00  0.00    +0.013 C 
BRANCH  12  14
ATOM     13  I   UNL     1      -4.937  -1.177  -0.372  0.00  0.00    -0.043 I 
ATOM     14  C   UNL     1      -0.591   0.840   0.365  0.00  0.00    -0.024 C 
ATOM     15  C   UNL     1      -1.489   1.459  -0.488  0.00  0.00    -0.004 C 
ATOM     16  C   UNL     1      -0.907  -0.344   1.012  0.00  0.00    -0.004 C 
ATOM     17  C   UNL     1      -2.740   0.878  -0.701  0.00  0.00    +0.005 C 
ATOM     18  C   UNL     1      -2.158  -0.924   0.799  0.00  0.00    +0.005 C 
ATOM     19  C   UNL     1      -3.074  -0.313  -0.057  0.00  0.00    +0.030 C 
ENDBRANCH  12  14
ENDBRANCH   1  12
TORSDOF 5
