REMARK  Name = 5282054
REMARK  7 active torsions:
REMARK  status: ('A' for Active; 'I' for Inactive)
REMARK    1  A    between atoms: C_2  and  C_4
REMARK    2  A    between atoms: C_2  and  C_11
REMARK    3  A    between atoms: C_5  and  C_8
REMARK    4  A    between atoms: C_11  and  C_12
REMARK    5  A    between atoms: C_12  and  C_13
REMARK    6  A    between atoms: C_14  and  C_15
REMARK    7  A    between atoms: C_15  and  C_16
REMARK                            x       y       z     vdW  Elec       q    Type
REMARK                         _______ _______ _______ _____ _____    ______ ____
ROOT
ATOM      1  O   UNL     1       1.309   0.328  -1.725  0.00  0.00    -0.293 OA
ATOM      2  C   UNL     1       2.043   0.377  -0.747  0.00  0.00    +0.181 C 
ENDROOT
BRANCH   2   4
ATOM      3  O   UNL     1       2.553  -1.042   1.148  0.00  0.00    -0.336 OA
ATOM      4  C   UNL     1       2.712  -0.864  -0.256  0.00  0.00    +0.208 C 
ATOM      5  C   UNL     1       1.878  -1.970   0.289  0.00  0.00    +0.225 C 
BRANCH   5   8
ATOM      6  O   UNL     1      -0.145  -1.288   1.247  0.00  0.00    -0.273 OA
ATOM      7  N   UNL     1      -0.221  -2.390  -0.779  0.00  0.00    -0.327 N 
ATOM      8  C   UNL     1       0.416  -1.844   0.310  0.00  0.00    +0.250 C 
ATOM      9  H   UNL     1      -1.202  -2.350  -0.846  0.00  0.00    +0.145 HD
ATOM     10  H   UNL     1       0.304  -2.821  -1.491  0.00  0.00    +0.145 HD
ENDBRANCH   5   8
ENDBRANCH   2   4
BRANCH   2  11
ATOM     11  C   UNL     1       2.370   1.639   0.026  0.00  0.00    +0.072 C 
BRANCH  11  12
ATOM     12  C   UNL     1       1.265   2.693  -0.032  0.00  0.00    +0.034 C 
BRANCH  12  13
ATOM     13  C   UNL     1      -0.017   2.208   0.585  0.00  0.00    -0.030 C 
ATOM     14  C   UNL     1      -1.192   2.181  -0.061  0.00  0.00    -0.026 C 
BRANCH  14  15
ATOM     15  C   UNL     1      -2.472   1.699   0.555  0.00  0.00    +0.051 C 
BRANCH  15  16
ATOM     16  C   UNL     1      -3.091   0.595  -0.252  0.00  0.00    -0.026 C 
ATOM     17  C   UNL     1      -3.393  -0.613   0.246  0.00  0.00    -0.030 C 
ATOM     18  C   UNL     1      -4.013  -1.710  -0.554  0.00  0.00    +0.030 C 
ENDBRANCH  15  16
ENDBRANCH  14  15
ENDBRANCH  12  13
ENDBRANCH  11  12
ENDBRANCH   2  11
TORSDOF 7
