REMARK  Name = 1030
REMARK  3 active torsions:
REMARK  status: ('A' for Active; 'I' for Inactive)
REMARK    1  A    between atoms: C_1  and  O_3
REMARK    2  A    between atoms: C_1  and  C_5
REMARK    3  A    between atoms: C_5  and  O_6
REMARK                            x       y       z     vdW  Elec       q    Type
REMARK                         _______ _______ _______ _____ _____    ______ ____
ROOT
ATOM      1  C   UNL     1      -0.454  -0.017   0.343  0.00  0.00    +0.140 C 
ATOM      2  C   UNL     1      -1.757   0.668  -0.038  0.00  0.00    +0.034 C 
ENDROOT
BRANCH   1   3
ATOM      3  O   UNL     1      -0.472  -1.354  -0.156  0.00  0.00    -0.382 OA
ATOM      4  H   UNL     1       0.356  -1.799   0.082  0.00  0.00    +0.210 HD
ENDBRANCH   1   3
BRANCH   1   5
ATOM      5  C   UNL     1       0.749   0.701  -0.257  0.00  0.00    +0.166 C 
BRANCH   5   6
ATOM      6  O   UNL     1       1.934   0.001   0.108  0.00  0.00    -0.379 OA
ATOM      7  H   UNL     1       2.705   0.452  -0.271  0.00  0.00    +0.211 HD
ENDBRANCH   5   6
ENDBRANCH   1   5
TORSDOF 3
