REMARK  Name = 10313
REMARK  2 active torsions:
REMARK  status: ('A' for Active; 'I' for Inactive)
REMARK    1  A    between atoms: C_1  and  C_9
REMARK    2  A    between atoms: N_8  and  O_11
REMARK                            x       y       z     vdW  Elec       q    Type
REMARK                         _______ _______ _______ _____ _____    ______ ____
ROOT
ATOM      1  C   UNL     1      -0.094   0.122  -0.036  0.00  0.00    +0.055 C 
ATOM      2  C   UNL     1      -0.939   1.208   0.192  0.00  0.00    +0.005 C 
ATOM      3  C   UNL     1      -0.630  -1.152  -0.221  0.00  0.00    +0.005 C 
ATOM      4  C   UNL     1      -2.321   1.019   0.237  0.00  0.00    +0.000 C 
ATOM      5  C   UNL     1      -2.011  -1.341  -0.177  0.00  0.00    +0.000 C 
ATOM      6  C   UNL     1      -2.857  -0.255   0.052  0.00  0.00    +0.000 C 
ENDROOT
BRANCH   1   9
ATOM      7  O   UNL     1       1.828   1.413  -0.429  0.00  0.00    -0.268 OA
ATOM      8  N   UNL     1       2.144  -0.763   0.262  0.00  0.00    -0.193 N 
ATOM      9  C   UNL     1       1.346   0.319  -0.082  0.00  0.00    +0.268 C 
ATOM     10  H   UNL     1       1.755  -1.625   0.535  0.00  0.00    +0.183 HD
BRANCH   8  11
ATOM     11  O   UNL     1       3.532  -0.571   0.202  0.00  0.00    -0.295 OA
ATOM     12  H   UNL     1       3.984  -1.389   0.462  0.00  0.00    +0.241 HD
ENDBRANCH   8  11
ENDBRANCH   1   9
TORSDOF 2
