REMARK  Name = 5311447
REMARK  11 active torsions:
REMARK  status: ('A' for Active; 'I' for Inactive)
REMARK    1  A    between atoms: N_1  and  C_4
REMARK    2  A    between atoms: N_1  and  C_21
REMARK    3  A    between atoms: C_4  and  C_14
REMARK    4  A    between atoms: C_12  and  C_18
REMARK    5  A    between atoms: C_18  and  O_19
REMARK    6  A    between atoms: C_21  and  C_23
REMARK    7  A    between atoms: C_21  and  C_27
REMARK    8  A    between atoms: C_23  and  O_24
REMARK    9  A    between atoms: O_24  and  C_25
REMARK   10  A    between atoms: C_27  and  C_28
REMARK   11  A    between atoms: C_28  and  C_29
REMARK                            x       y       z     vdW  Elec       q    Type
REMARK                         _______ _______ _______ _____ _____    ______ ____
ROOT
ATOM      1  N   UNK A   1      -1.001  -0.446  -1.646  0.00  0.00    +0.399 N 
ATOM      2  H   UNK A   1      -1.303  -0.984  -2.458  0.00  0.00    -0.083 HD
ATOM      3  H   UNK A   1      -1.403   0.491  -1.668  0.00  0.00    -0.083 HD
ENDROOT
BRANCH   1   4
ATOM      4  C   UNK A   1       0.447  -0.328  -1.665  0.00  0.00    +0.018 C 
ATOM      5  C   UNK A   1       0.955  -0.086  -3.072  0.00  0.00    -0.014 C 
BRANCH   4  14
ATOM      6  S   UNK A   1       5.416   0.890  -0.433  0.00  0.00    -0.129 S 
ATOM      7  S   UNK A   1       4.958  -1.410   1.410  0.00  0.00    -0.129 S 
ATOM      8  O   UNK A   1       0.035   1.799  -0.679  0.00  0.00    -0.277 OA
ATOM      9  N   UNK A   1       2.024   0.748  -0.127  0.00  0.00    -0.271 N 
ATOM     10  C   UNK A   1       4.172   0.034   0.619  0.00  0.00    +0.098 C 
ATOM     11  C   UNK A   1       3.559   0.985   1.662  0.00  0.00    +0.053 C 
ATOM     12  C   UNK A   1       2.420   1.685   0.916  0.00  0.00    +0.176 C 
ATOM     13  C   UNK A   1       2.960  -0.376  -0.223  0.00  0.00    +0.114 C 
ATOM     14  C   UNK A   1       0.803   0.840  -0.780  0.00  0.00    +0.206 C 
ATOM     15  C   UNK A   1       6.852  -0.104   0.046  0.00  0.00    +0.070 C 
ATOM     16  C   UNK A   1       6.375  -1.519   0.292  0.00  0.00    +0.070 C 
BRANCH  12  18
ATOM     17  O   UNK A   1       2.889   3.188  -0.920  0.00  0.00    -0.248 OA
ATOM     18  C   UNK A   1       2.866   2.970   0.282  0.00  0.00    +0.332 C 
BRANCH  18  19
ATOM     19  O   UNK A   1       3.247   3.864   1.227  0.00  0.00    -0.479 OA
ATOM     20  H   UNK A   1       3.206   3.633   2.134  0.00  0.00    +0.295 HD
ENDBRANCH  18  19
ENDBRANCH  12  18
ENDBRANCH   4  14
ENDBRANCH   1   4
BRANCH   1  21
ATOM     21  C   UNK A   0      -1.457  -1.117  -0.434  0.00  0.00    +0.041 C 
BRANCH  21  23
ATOM     22  O   UNK A   0      -1.405  -3.195  -1.715  0.00  0.00    -0.252 OA
ATOM     23  C   UNK A   0      -1.284  -2.612  -0.646  0.00  0.00    +0.297 C 
BRANCH  23  24
ATOM     24  O   UNK A   0      -0.964  -3.199   0.547  0.00  0.00    -0.450 OA
BRANCH  24  25
ATOM     25  C   UNK A   0      -0.760  -4.615   0.504  0.00  0.00    +0.208 C 
ATOM     26  C   UNK A   0      -0.415  -5.106   1.893  0.00  0.00    +0.051 C 
ENDBRANCH  24  25
ENDBRANCH  23  24
ENDBRANCH  21  23
BRANCH  21  27
ATOM     27  C   UNK A   0      -2.932  -0.806  -0.133  0.00  0.00    -0.006 C 
BRANCH  27  28
ATOM     28  C   UNK A   0      -3.263   0.682   0.056  0.00  0.00    +0.025 C 
BRANCH  28  29
ATOM     29  C   UNK A   0      -4.728   0.954   0.288  0.00  0.00    -0.022 C 
ATOM     30  C   UNK A   0      -5.574   1.193  -0.795  0.00  0.00    -0.004 C 
ATOM     31  C   UNK A   0      -5.237   0.967   1.587  0.00  0.00    -0.004 C 
ATOM     32  C   UNK A   0      -6.928   1.445  -0.580  0.00  0.00    -0.000 C 
ATOM     33  C   UNK A   0      -6.592   1.218   1.802  0.00  0.00    -0.000 C 
ATOM     34  C   UNK A   0      -7.438   1.457   0.719  0.00  0.00    -0.000 C 
ENDBRANCH  28  29
ENDBRANCH  27  28
ENDBRANCH  21  27
ENDBRANCH   1  21
TORSDOF 11
