REMARK  Name = 2585
REMARK  11 active torsions:
REMARK  status: ('A' for Active; 'I' for Inactive)
REMARK    1  A    between atoms: C_1  and  O_2
REMARK    2  A    between atoms: C_1  and  C_4
REMARK    3  A    between atoms: C_1  and  C_20
REMARK    4  A    between atoms: C_4  and  O_5
REMARK    5  A    between atoms: O_5  and  C_11
REMARK    6  A    between atoms: C_20  and  N_21
REMARK    7  A    between atoms: N_21  and  C_24
REMARK    8  A    between atoms: C_24  and  C_25
REMARK    9  A    between atoms: C_25  and  O_26
REMARK   10  A    between atoms: O_26  and  C_27
REMARK   11  A    between atoms: C_28  and  O_33
REMARK                            x       y       z     vdW  Elec       q    Type
REMARK                         _______ _______ _______ _____ _____    ______ ____
ROOT
ATOM      1  C   UNL     1      -1.219   3.775   0.336  0.00  0.00    +0.133 C 
ENDROOT
BRANCH   1   2
ATOM      2  O   UNL     1      -2.364   4.475  -0.160  0.00  0.00    -0.383 OA
ATOM      3  H   UNL     1      -2.973   4.658   0.572  0.00  0.00    +0.210 HD
ENDBRANCH   1   2
BRANCH   1   4
ATOM      4  C   UNL     1      -1.693   2.505   1.040  0.00  0.00    +0.232 C 
BRANCH   4   5
ATOM      5  O   UNL     1      -2.420   1.709   0.111  0.00  0.00    -0.473 OA
BRANCH   5  11
ATOM      6  N   UNL     1      -2.543  -2.935  -0.204  0.00  0.00    -0.353 N 
ATOM      7  C   UNL     1      -2.528  -0.715  -0.002  0.00  0.00    +0.051 A 
ATOM      8  C   UNL     1      -1.656  -1.084  -1.075  0.00  0.00    +0.020 A 
ATOM      9  C   UNL     1      -3.066  -1.891   0.521  0.00  0.00    +0.060 A 
ATOM     10  C   UNL     1      -1.686  -2.475  -1.176  0.00  0.00    +0.057 A 
ATOM     11  C   UNL     1      -2.910   0.516   0.573  0.00  0.00    +0.140 C 
ATOM     12  C   UNL     1      -3.968  -1.900   1.591  0.00  0.00    +0.017 C 
ATOM     13  C   UNL     1      -0.841  -0.360  -1.971  0.00  0.00    +0.002 C 
ATOM     14  C   UNL     1      -3.811   0.522   1.644  0.00  0.00    +0.037 C 
ATOM     15  C   UNL     1      -0.943  -3.181  -2.129  0.00  0.00    +0.017 C 
ATOM     16  C   UNL     1      -4.331  -0.669   2.143  0.00  0.00    +0.005 C 
ATOM     17  C   UNL     1      -0.092  -1.052  -2.929  0.00  0.00    +0.000 C 
ATOM     18  C   UNL     1      -0.144  -2.442  -3.006  0.00  0.00    +0.001 C 
ATOM     19  H   UNL     1      -2.754  -3.884  -0.049  0.00  0.00    +0.166 HD
ENDBRANCH   5  11
ENDBRANCH   4   5
ENDBRANCH   1   4
BRANCH   1  20
ATOM     20  C   UNL     1      -0.280   3.501  -0.841  0.00  0.00    -0.048 C 
BRANCH  20  21
ATOM     21  N   UNL     1       0.903   2.754  -0.435  0.00  0.00    +0.388 N 
ATOM     22  H   UNL     1       0.653   1.772  -0.316  0.00  0.00    -0.084 HD
ATOM     23  H   UNL     1       1.249   3.143   0.442  0.00  0.00    -0.084 HD
BRANCH  21  24
ATOM     24  C   UNL     1       1.955   2.859  -1.438  0.00  0.00    -0.033 C 
BRANCH  24  25
ATOM     25  C   UNL     1       3.170   2.042  -1.028  0.00  0.00    +0.182 C 
BRANCH  25  26
ATOM     26  O   UNL     1       2.778   0.683  -0.881  0.00  0.00    -0.475 OA
BRANCH  26  27
ATOM     27  C   UNL     1       3.483  -0.069   0.022  0.00  0.00    +0.172 C 
ATOM     28  C   UNL     1       2.839  -0.661   1.108  0.00  0.00    +0.172 C 
ATOM     29  C   UNL     1       4.856  -0.241  -0.153  0.00  0.00    +0.040 C 
ATOM     30  C   UNL     1       3.568  -1.424   2.020  0.00  0.00    +0.040 C 
ATOM     31  C   UNL     1       5.586  -1.004   0.759  0.00  0.00    +0.003 C 
ATOM     32  C   UNL     1       4.942  -1.595   1.845  0.00  0.00    +0.003 C 
BRANCH  28  33
ATOM     33  O   UNL     1       1.498  -0.502   1.289  0.00  0.00    -0.468 OA
ATOM     34  C   UNL     1       0.917  -1.139   2.425  0.00  0.00    +0.253 C 
ENDBRANCH  28  33
ENDBRANCH  26  27
ENDBRANCH  25  26
ENDBRANCH  24  25
ENDBRANCH  21  24
ENDBRANCH  20  21
ENDBRANCH   1  20
TORSDOF 11
