REMARK  Name = 39042
REMARK  8 active torsions:
REMARK  status: ('A' for Active; 'I' for Inactive)
REMARK    1  A    between atoms: C_1  and  C_15
REMARK    2  A    between atoms: C_2  and  O_7
REMARK    3  A    between atoms: O_7  and  C_8
REMARK    4  A    between atoms: C_8  and  C_12
REMARK    5  A    between atoms: C_12  and  O_13
REMARK    6  A    between atoms: C_15  and  C_16
REMARK    7  A    between atoms: C_16  and  N_18
REMARK    8  A    between atoms: C_19  and  C_22
REMARK                            x       y       z     vdW  Elec       q    Type
REMARK                         _______ _______ _______ _____ _____    ______ ____
ROOT
ATOM      1  C   UNL     1      -0.543   2.521   0.284  0.00  0.00    -0.020 C 
ATOM      2  C   UNL     1      -2.753   0.846   0.522  0.00  0.00    +0.139 C 
ATOM      3  C   UNL     1      -1.713   2.804  -0.422  0.00  0.00    -0.001 C 
ATOM      4  C   UNL     1      -0.482   1.398   1.109  0.00  0.00    -0.001 C 
ATOM      5  C   UNL     1      -2.820   1.964  -0.303  0.00  0.00    +0.037 C 
ATOM      6  C   UNL     1      -1.590   0.558   1.228  0.00  0.00    +0.037 C 
ENDROOT
BRANCH   2   7
ATOM      7  O   UNL     1      -3.840   0.023   0.639  0.00  0.00    -0.472 OA
BRANCH   7   8
ATOM      8  C   UNL     1      -3.924  -1.060  -0.288  0.00  0.00    +0.221 C 
ATOM      9  C   UNL     1      -3.991  -0.473  -1.695  0.00  0.00    +0.055 C 
ATOM     10  C   UNL     1      -2.701  -1.949  -0.089  0.00  0.00    +0.055 C 
BRANCH   8  12
ATOM     11  O   UNL     1      -5.994  -1.449   0.933  0.00  0.00    -0.246 OA
ATOM     12  C   UNL     1      -5.208  -1.800   0.062  0.00  0.00    +0.350 C 
BRANCH  12  13
ATOM     13  O   UNL     1      -5.411  -2.912  -0.691  0.00  0.00    -0.478 OA
ATOM     14  H   UNL     1      -4.789  -3.152  -1.349  0.00  0.00    +0.295 HD
ENDBRANCH  12  13
ENDBRANCH   8  12
ENDBRANCH   7   8
ENDBRANCH   2   7
BRANCH   1  15
ATOM     15  C   UNL     1       0.641   3.418   0.156  0.00  0.00    +0.048 C 
BRANCH  15  16
ATOM     16  C   UNL     1       1.593   3.018  -0.978  0.00  0.00    +0.094 C 
BRANCH  16  18
ATOM     17  O   UNL     1       3.986   2.264   0.417  0.00  0.00    -0.270 OA
ATOM     18  N   UNL     1       2.108   1.685  -0.815  0.00  0.00    -0.301 N 
ATOM     19  C   UNL     1       3.280   1.414  -0.119  0.00  0.00    +0.246 C 
ATOM     20  H   UNL     1       1.610   0.934  -1.211  0.00  0.00    +0.150 HD
BRANCH  19  22
ATOM     21 CL   UNL     1       4.934  -4.312   0.108  0.00  0.00    -0.082 Cl
ATOM     22  C   UNL     1       3.692  -0.012  -0.063  0.00  0.00    +0.053 C 
ATOM     23  C   UNL     1       5.030  -0.314   0.081  0.00  0.00    +0.005 C 
ATOM     24  C   UNL     1       2.723  -0.990  -0.155  0.00  0.00    +0.005 C 
ATOM     25  C   UNL     1       5.417  -1.653   0.135  0.00  0.00    +0.012 C 
ATOM     26  C   UNL     1       3.110  -2.329  -0.101  0.00  0.00    +0.012 C 
ATOM     27  C   UNL     1       4.457  -2.660   0.044  0.00  0.00    +0.058 C 
ENDBRANCH  19  22
ENDBRANCH  16  18
ENDBRANCH  15  16
ENDBRANCH   1  15
TORSDOF 8
