REMARK  Name = 3003157
REMARK  4 active torsions:
REMARK  status: ('A' for Active; 'I' for Inactive)
REMARK    1  A    between atoms: C_2  and  C_16
REMARK    2  A    between atoms: C_3  and  C_6
REMARK    3  A    between atoms: C_7  and  C_15
REMARK    4  A    between atoms: C_16  and  C_22
REMARK                            x       y       z     vdW  Elec       q    Type
REMARK                         _______ _______ _______ _____ _____    ______ ____
ROOT
ATOM      1  O   UNL     1       0.001  -0.533  -0.414  0.00  0.00    -0.458 OA
ATOM      2  C   UNL     1      -0.970  -1.294   0.119  0.00  0.00    +0.124 C 
ATOM      3  C   UNL     1       0.791  -0.175   0.632  0.00  0.00    +0.145 C 
ATOM      4  C   UNL     1      -0.846  -1.445   1.457  0.00  0.00    +0.036 C 
ATOM      5  C   UNL     1       0.313  -0.711   1.805  0.00  0.00    +0.040 C 
ENDROOT
BRANCH   3   6
ATOM      6  C   UNL     1       1.915   0.655   0.299  0.00  0.00    +0.038 C 
ATOM      7  C   UNL     1       3.154   0.103  -0.043  0.00  0.00    +0.074 C 
ATOM      8  C   UNL     1       1.766   2.047   0.317  0.00  0.00    +0.003 C 
ATOM      9  C   UNL     1       4.230   0.931  -0.363  0.00  0.00    +0.004 C 
ATOM     10  C   UNL     1       2.841   2.875  -0.003  0.00  0.00    +0.000 C 
ATOM     11  C   UNL     1       4.074   2.317  -0.343  0.00  0.00    -0.000 C 
BRANCH   7  15
ATOM     12  F   UNL     1       4.626  -1.743  -0.430  0.00  0.00    -0.166 F 
ATOM     13  F   UNL     1       3.133  -1.985   1.124  0.00  0.00    -0.166 F 
ATOM     14  F   UNL     1       2.534  -1.999  -0.966  0.00  0.00    -0.166 F 
ATOM     15  C   UNL     1       3.360  -1.378  -0.076  0.00  0.00    +0.419 C 
ENDBRANCH   7  15
ENDBRANCH   3   6
BRANCH   2  16
ATOM     16  C   UNL     1      -1.981  -1.814  -0.866  0.00  0.00    +0.083 C 
BRANCH  16  22
ATOM     17  S   UNL     1      -3.018   2.962   1.441  0.00  0.00    -0.018 S 
ATOM     18  O   UNL     1      -2.236   0.501  -2.786  0.00  0.00    -0.274 OA
ATOM     19  O   UNL     1      -4.535  -1.701   0.739  0.00  0.00    -0.274 OA
ATOM     20  N   UNL     1      -2.608   1.529  -0.768  0.00  0.00    -0.267 N 
ATOM     21  N   UNL     1      -3.744   0.441   0.974  0.00  0.00    -0.267 N 
ATOM     22  C   UNL     1      -3.154  -0.848  -1.027  0.00  0.00    +0.161 C 
ATOM     23  C   UNL     1      -2.637   0.443  -1.623  0.00  0.00    +0.236 C 
ATOM     24  C   UNL     1      -3.887  -0.754   0.292  0.00  0.00    +0.236 C 
ATOM     25  C   UNL     1      -3.120   1.577   0.509  0.00  0.00    +0.143 C 
ATOM     26  H   UNL     1      -2.178   2.348  -1.106  0.00  0.00    +0.157 HD
ATOM     27  H   UNL     1      -4.126   0.483   1.880  0.00  0.00    +0.157 HD
ENDBRANCH  16  22
ENDBRANCH   2  16
TORSDOF 4
