REMARK  Name = 6291
REMARK  3 active torsions:
REMARK  status: ('A' for Active; 'I' for Inactive)
REMARK    1  A    between atoms: C_4  and  O_19
REMARK    2  A    between atoms: C_4  and  C_23
REMARK    3  A    between atoms: C_18  and  O_21
REMARK                            x       y       z     vdW  Elec       q    Type
REMARK                         _______ _______ _______ _____ _____    ______ ____
ROOT
ATOM      1  C   UNL     1      -2.533   0.432  -0.589  0.00  0.00    +0.033 C 
ATOM      2  C   UNL     1      -1.906  -0.771   0.152  0.00  0.00    +0.004 C 
ATOM      3  C   UNL     1      -0.406  -0.912  -0.121  0.00  0.00    +0.004 C 
ATOM      4  C   UNL     1      -4.034   0.240  -0.218  0.00  0.00    +0.142 C 
ATOM      5  C   UNL     1       0.320   0.375   0.374  0.00  0.00    +0.022 C 
ATOM      6  C   UNL     1      -1.844   1.714  -0.088  0.00  0.00    +0.004 C 
ATOM      7  C   UNL     1      -2.830  -1.932  -0.208  0.00  0.00    +0.004 C 
ATOM      8  C   UNL     1      -0.312   1.649  -0.246  0.00  0.00    +0.004 C 
ATOM      9  C   UNL     1      -4.228  -1.294  -0.339  0.00  0.00    +0.039 C 
ATOM     10  C   UNL     1       0.204  -2.128   0.579  0.00  0.00    +0.005 C 
ATOM     11  C   UNL     1      -2.371   0.366  -2.137  0.00  0.00    +0.003 C 
ATOM     12  C   UNL     1       1.833   0.256   0.206  0.00  0.00    -0.026 C 
ATOM     13  C   UNL     1       1.658  -2.297   0.149  0.00  0.00    +0.026 C 
ATOM     14  C   UNL     1       2.450  -1.012   0.143  0.00  0.00    -0.023 C 
ATOM     15  C   UNL     1       2.656   1.397   0.200  0.00  0.00    -0.001 C 
ATOM     16  C   UNL     1       3.848  -1.106   0.022  0.00  0.00    +0.032 C 
ATOM     17  C   UNL     1       4.044   1.289   0.089  0.00  0.00    +0.037 C 
ATOM     18  C   UNL     1       4.640   0.038  -0.005  0.00  0.00    +0.138 C 
ENDROOT
BRANCH   4  19
ATOM     19  O   UNL     1      -4.906   0.901  -1.125  0.00  0.00    -0.375 OA
ATOM     20  H   UNL     1      -4.699   0.625  -2.032  0.00  0.00    +0.211 HD
ENDBRANCH   4  19
BRANCH  18  21
ATOM     21  O   UNL     1       5.991  -0.068  -0.118  0.00  0.00    -0.471 OA
ATOM     22  C   UNL     1       6.740   1.146  -0.133  0.00  0.00    +0.252 C 
ENDBRANCH  18  21
BRANCH   4  23
ATOM     23  C   UNL     1      -4.371   0.679   1.151  0.00  0.00    -0.053 C 
ATOM     24  C   UNL     1      -4.644   1.036   2.264  0.00  0.00    -0.012 C 
ENDBRANCH   4  23
TORSDOF 3
