REMARK  Name = 2441
REMARK  1 active torsions:
REMARK  status: ('A' for Active; 'I' for Inactive)
REMARK    1  A    between atoms: C_7  and  C_16
REMARK                            x       y       z     vdW  Elec       q    Type
REMARK                         _______ _______ _______ _____ _____    ______ ____
ROOT
ATOM      1 BR   UNL     1      -0.757  -4.457   0.821  0.00  0.00    -0.049 Br
ATOM      2  O   UNL     1      -2.440   3.494  -0.580  0.00  0.00    -0.273 OA
ATOM      3  N   UNL     1      -2.420   1.208  -0.720  0.00  0.00    -0.282 N 
ATOM      4  N   UNL     1       0.086   1.950   0.794  0.00  0.00    -0.259 NA
ATOM      5  C   UNL     1      -0.706  -0.323   0.240  0.00  0.00    +0.033 C 
ATOM      6  C   UNL     1      -1.944  -0.074  -0.375  0.00  0.00    +0.052 C 
ATOM      7  C   UNL     1       0.328   0.744   0.407  0.00  0.00    +0.095 C 
ATOM      8  C   UNL     1      -0.370  -1.635   0.613  0.00  0.00    +0.009 C 
ATOM      9  C   UNL     1      -1.270   2.318   1.137  0.00  0.00    +0.210 C 
ATOM     10  C   UNL     1      -2.775  -1.156  -0.703  0.00  0.00    +0.015 C 
ATOM     11  C   UNL     1      -2.067   2.406  -0.137  0.00  0.00    +0.251 C 
ATOM     12  C   UNL     1      -1.228  -2.695   0.325  0.00  0.00    +0.035 C 
ATOM     13  C   UNL     1      -2.422  -2.458  -0.348  0.00  0.00    +0.008 C 
ATOM     14  H   UNL     1      -3.073   1.252  -1.455  0.00  0.00    +0.155 HD
ENDROOT
BRANCH   7  16
ATOM     15  N   UNL     1       1.912  -0.502  -0.890  0.00  0.00    -0.242 NA
ATOM     16  C   UNL     1       1.746   0.423   0.074  0.00  0.00    +0.099 C 
ATOM     17  C   UNL     1       2.768   1.062   0.743  0.00  0.00    +0.021 C 
ATOM     18  C   UNL     1       4.071   0.725   0.395  0.00  0.00    +0.003 C 
ATOM     19  C   UNL     1       3.193  -0.804  -1.202  0.00  0.00    +0.099 C 
ATOM     20  C   UNL     1       4.296  -0.225  -0.596  0.00  0.00    +0.021 C 
ENDBRANCH   7  16
TORSDOF 1
