REMARK  Name = 93485622
REMARK  8 active torsions:
REMARK  status: ('A' for Active; 'I' for Inactive)
REMARK    1  A    between atoms: C_2  and  C_3
REMARK    2  A    between atoms: C_2  and  C_13
REMARK    3  A    between atoms: C_3  and  CA_4
REMARK    4  A    between atoms: CA_4  and  N_5
REMARK    5  A    between atoms: CA_4  and  C_10
REMARK    6  A    between atoms: C_10  and  O_11
REMARK    7  A    between atoms: C_13  and  C_14
REMARK    8  A    between atoms: C_14  and  N_15
REMARK                            x       y       z     vdW  Elec       q    Type
REMARK                         _______ _______ _______ _____ _____    ______ ____
ROOT
ATOM      1  F   UNL     1       0.112  -1.175  -1.322  0.00  0.00    -0.237 F 
ATOM      2  C   UNL     1       0.273  -0.784  -0.029  0.00  0.00    +0.161 C 
ENDROOT
BRANCH   2   3
ATOM      3  C   UNL     1       1.715  -1.076   0.403  0.00  0.00    +0.024 C 
BRANCH   3   4
ATOM      4  CA  UNL     1       2.808  -0.357  -0.400  0.00  0.00    +0.038 C 
BRANCH   4   5
ATOM      5  N   UNL     1       4.099  -1.001  -0.133  0.00  0.00    +0.389 N 
ATOM      6  H1  UNL     1       4.051  -1.984  -0.401  0.00  0.00    -0.088 HD
ATOM      7  H2  UNL     1       4.315  -0.930   0.862  0.00  0.00    -0.088 HD
ATOM      8  H3  UNL     1       4.829  -0.536  -0.673  0.00  0.00    -0.088 HD
ENDBRANCH   4   5
BRANCH   4  10
ATOM      9  OXT UNL     1       3.627   1.490   0.960  0.00  0.00    -0.253 OA
ATOM     10  C   UNL     1       2.946   1.096   0.020  0.00  0.00    +0.293 C 
BRANCH  10  11
ATOM     11  O   UNL     1       2.206   1.933  -0.751  0.00  0.00    -0.482 OA
ATOM     12  H   UNL     1       1.699   1.591  -1.461  0.00  0.00    +0.295 HD
ENDBRANCH  10  11
ENDBRANCH   4  10
ENDBRANCH   3   4
ENDBRANCH   2   3
BRANCH   2  13
ATOM     13  C   UNL     1      -0.787  -1.463   0.841  0.00  0.00    +0.056 C 
BRANCH  13  14
ATOM     14  C   UNL     1      -2.209  -1.161   0.376  0.00  0.00    +0.091 C 
BRANCH  14  15
ATOM     15  N   UNL     1      -2.453   0.281   0.407  0.00  0.00    -0.323 N 
ATOM     16  N   UNL     1      -4.127   1.955  -0.025  0.00  0.00    -0.390 N 
ATOM     17  C   UNL     1      -3.623   0.677   0.035  0.00  0.00    +0.075 C 
ATOM     18  C   UNL     1      -4.587  -0.414  -0.384  0.00  0.00    +0.066 C 
ATOM     19  H   UNL     1      -1.760   0.917   0.697  0.00  0.00    +0.148 HD
ATOM     20  H   UNL     1      -3.563   2.719   0.232  0.00  0.00    +0.157 HD
ATOM     21  H   UNL     1      -5.053   2.105  -0.324  0.00  0.00    +0.157 HD
ENDBRANCH  14  15
ENDBRANCH  13  14
ENDBRANCH   2  13
TORSDOF 8
