REMARK  Name = 2754
REMARK  7 active torsions:
REMARK  status: ('A' for Active; 'I' for Inactive)
REMARK    1  A    between atoms: C_1  and  C_2
REMARK    2  A    between atoms: C_1  and  C_15
REMARK    3  A    between atoms: C_2  and  C_3
REMARK    4  A    between atoms: C_3  and  C_8
REMARK    5  A    between atoms: N_4  and  C_9
REMARK    6  A    between atoms: C_15  and  O_16
REMARK    7  A    between atoms: O_16  and  C_23
REMARK                            x       y       z     vdW  Elec       q    Type
REMARK                         _______ _______ _______ _____ _____    ______ ____
ROOT
ATOM      1  C   UNL     1      -2.066  -3.510  -0.472  0.00  0.00    +0.048 C 
ENDROOT
BRANCH   1   2
ATOM      2  C   UNL     1      -2.970  -2.307  -0.737  0.00  0.00    +0.012 C 
BRANCH   2   3
ATOM      3  C   UNL     1      -3.326  -1.583   0.564  0.00  0.00    +0.068 C 
BRANCH   3   8
ATOM      4  N   UNL     1      -3.673   0.840   0.078  0.00  0.00    -0.219 N 
ATOM      5  N   UNL     1      -4.681   1.701  -0.118  0.00  0.00    -0.043 NA
ATOM      6  N   UNL     1      -5.480  -0.344   0.267  0.00  0.00    -0.113 NA
ATOM      7  N   UNL     1      -5.784   0.972  -0.002  0.00  0.00    -0.023 NA
ATOM      8  C   UNL     1      -4.190  -0.374   0.305  0.00  0.00    +0.161 A 
BRANCH   4   9
ATOM      9  C   UNL     1      -2.275   1.285   0.024  0.00  0.00    +0.108 C 
ATOM     10  C   UNL     1      -1.728   1.660   1.412  0.00  0.00    +0.024 C 
ATOM     11  C   UNL     1      -2.063   2.420  -0.993  0.00  0.00    +0.024 C 
ATOM     12  C   UNL     1      -0.264   2.090   1.335  0.00  0.00    +0.002 C 
ATOM     13  C   UNL     1      -0.597   2.844  -1.054  0.00  0.00    +0.002 C 
ATOM     14  C   UNL     1      -0.060   3.217   0.326  0.00  0.00    +0.000 C 
ENDBRANCH   4   9
ENDBRANCH   3   8
ENDBRANCH   2   3
ENDBRANCH   1   2
BRANCH   1  15
ATOM     15  C   UNL     1      -0.743  -3.091   0.152  0.00  0.00    +0.205 C 
BRANCH  15  16
ATOM     16  O   UNL     1      -0.079  -2.192  -0.734  0.00  0.00    -0.475 OA
BRANCH  16  23
ATOM     17  O   UNL     1       6.672   1.135   0.584  0.00  0.00    -0.275 OA
ATOM     18  N   UNL     1       4.859  -0.239   0.897  0.00  0.00    -0.284 N 
ATOM     19  C   UNL     1       3.070  -0.319  -0.748  0.00  0.00    -0.005 C 
ATOM     20  C   UNL     1       3.881   0.569  -1.647  0.00  0.00    +0.037 C 
ATOM     21  C   UNL     1       3.606  -0.725   0.481  0.00  0.00    +0.046 C 
ATOM     22  C   UNL     1       4.773   1.495  -0.834  0.00  0.00    +0.090 C 
ATOM     23  C   UNL     1       1.138  -1.723  -0.343  0.00  0.00    +0.138 C 
ATOM     24  C   UNL     1       1.834  -0.829  -1.158  0.00  0.00    +0.034 C 
ATOM     25  C   UNL     1       5.545   0.771   0.251  0.00  0.00    +0.226 C 
ATOM     26  C   UNL     1       2.920  -1.635   1.288  0.00  0.00    +0.017 C 
ATOM     27  C   UNL     1       1.681  -2.127   0.876  0.00  0.00    +0.038 C 
ATOM     28  H   UNL     1       5.271  -0.643   1.695  0.00  0.00    +0.155 HD
ENDBRANCH  16  23
ENDBRANCH  15  16
ENDBRANCH   1  15
TORSDOF 7
