REMARK  Name = 4485
REMARK  6 active torsions:
REMARK  status: ('A' for Active; 'I' for Inactive)
REMARK    1  A    between atoms: C_2  and  C_10
REMARK    2  A    between atoms: C_3  and  C_20
REMARK    3  A    between atoms: C_4  and  C_24
REMARK    4  A    between atoms: C_11  and  N_18
REMARK    5  A    between atoms: C_20  and  O_21
REMARK    6  A    between atoms: C_24  and  O_25
REMARK                            x       y       z     vdW  Elec       q    Type
REMARK                         _______ _______ _______ _____ _____    ______ ____
ROOT
ATOM      1  N   UNL     1       1.688  -2.391   0.855  0.00  0.00    -0.334 N 
ATOM      2  C   UNL     1       0.349  -0.194  -0.325  0.00  0.00    +0.013 C 
ATOM      3  C   UNL     1       1.850  -0.194  -0.010  0.00  0.00    +0.071 C 
ATOM      4  C   UNL     1      -0.311  -1.557  -0.095  0.00  0.00    +0.085 C 
ATOM      5  C   UNL     1       2.442  -1.263   0.570  0.00  0.00    +0.098 C 
ATOM      6  C   UNL     1       0.361  -2.568   0.498  0.00  0.00    +0.028 C 
ATOM      7  C   UNL     1       3.893  -1.355   0.959  0.00  0.00    +0.026 C 
ATOM      8  C   UNL     1      -0.207  -3.925   0.818  0.00  0.00    +0.047 C 
ATOM      9  H   UNL     1       2.129  -3.121   1.347  0.00  0.00    +0.147 HD
ENDROOT
BRANCH   2  10
ATOM     10  C   UNL     1      -0.346   0.857   0.493  0.00  0.00    +0.023 C 
ATOM     11  C   UNL     1      -1.457   1.533   0.000  0.00  0.00    +0.143 C 
ATOM     12  C   UNL     1       0.148   1.141   1.763  0.00  0.00    +0.002 C 
ATOM     13  C   UNL     1      -2.081   2.504   0.784  0.00  0.00    +0.024 C 
ATOM     14  C   UNL     1      -0.475   2.112   2.547  0.00  0.00    +0.000 C 
ATOM     15  C   UNL     1      -1.590   2.793   2.058  0.00  0.00    +0.002 C 
BRANCH  11  18
ATOM     16  O   UNL     1      -2.977   1.893  -1.697  0.00  0.00    -0.126 OA
ATOM     17  O   UNL     1      -1.411   0.383  -1.998  0.00  0.00    -0.126 OA
ATOM     18  N   UNL     1      -1.974   1.256  -1.295  0.00  0.00    +0.058 N 
ENDBRANCH  11  18
ENDBRANCH   2  10
BRANCH   3  20
ATOM     19  O   UNL     1       2.807   1.952   0.302  0.00  0.00    -0.245 OA
ATOM     20  C   UNL     1       2.610   0.996  -0.425  0.00  0.00    +0.339 C 
BRANCH  20  21
ATOM     21  O   UNL     1       3.019   0.817  -1.704  0.00  0.00    -0.442 OA
ATOM     22  C   UNL     1       3.778   1.899  -2.256  0.00  0.00    +0.256 C 
ENDBRANCH  20  21
ENDBRANCH   3  20
BRANCH   4  24
ATOM     23  O   UNL     1      -1.951  -2.078  -1.725  0.00  0.00    -0.245 OA
ATOM     24  C   UNL     1      -1.687  -1.715  -0.594  0.00  0.00    +0.342 C 
BRANCH  24  25
ATOM     25  O   UNL     1      -2.544  -1.395   0.406  0.00  0.00    -0.441 OA
ATOM     26  C   UNL     1      -3.932  -1.502   0.073  0.00  0.00    +0.256 C 
ENDBRANCH  24  25
ENDBRANCH   4  24
TORSDOF 6
