REMARK  Name = 115237
REMARK  5 active torsions:
REMARK  status: ('A' for Active; 'I' for Inactive)
REMARK    1  A    between atoms: N_1  and  C_18
REMARK    2  A    between atoms: C_2  and  C_11
REMARK    3  A    between atoms: C_18  and  C_19
REMARK    4  A    between atoms: C_19  and  C_23
REMARK    5  A    between atoms: C_25  and  O_32
REMARK                            x       y       z     vdW  Elec       q    Type
REMARK                         _______ _______ _______ _____ _____    ______ ____
ROOT
ATOM      1  N   UNL     1      -0.210   0.587  -0.272  0.00  0.00    +0.387 N 
ATOM      2  C   UNL     1      -3.109   0.145  -0.204  0.00  0.00    +0.039 C 
ATOM      3  C   UNL     1      -2.238   0.104   1.062  0.00  0.00    -0.017 C 
ATOM      4  C   UNL     1      -2.431   1.015  -1.276  0.00  0.00    -0.017 C 
ATOM      5  C   UNL     1      -0.801  -0.307   0.734  0.00  0.00    -0.077 C 
ATOM      6  C   UNL     1      -0.987   0.571  -1.519  0.00  0.00    -0.077 C 
ATOM      7  H   UNL     1      -0.232   1.537   0.100  0.00  0.00    -0.080 HD
ENDROOT
BRANCH   2  11
ATOM      8  F   UNL     1      -9.685  -1.262  -0.205  0.00  0.00    -0.204 F 
ATOM      9  O   UNL     1      -6.142   1.858   0.716  0.00  0.00    -0.354 OA
ATOM     10  N   UNL     1      -4.762   1.785   0.573  0.00  0.00    -0.081 NA
ATOM     11  C   UNL     1      -4.532   0.570   0.079  0.00  0.00    +0.100 A 
ATOM     12  C   UNL     1      -5.704  -0.175  -0.115  0.00  0.00    +0.054 A 
ATOM     13  C   UNL     1      -6.702   0.687   0.305  0.00  0.00    +0.179 A 
ATOM     14  C   UNL     1      -6.057  -1.450  -0.583  0.00  0.00    +0.007 C 
ATOM     15  C   UNL     1      -8.059   0.378   0.299  0.00  0.00    +0.070 C 
ATOM     16  C   UNL     1      -7.416  -1.794  -0.604  0.00  0.00    +0.030 C 
ATOM     17  C   UNL     1      -8.396  -0.895  -0.170  0.00  0.00    +0.143 C 
ENDBRANCH   2  11
BRANCH   1  18
ATOM     18  C   UNL     1       1.181   0.216  -0.531  0.00  0.00    -0.076 C 
BRANCH  18  19
ATOM     19  C   UNL     1       1.986   0.291   0.759  0.00  0.00    -0.007 C 
BRANCH  19  23
ATOM     20  O   UNL     1       3.901   2.169   0.016  0.00  0.00    -0.274 OA
ATOM     21  N   UNL     1       5.688   0.674   0.038  0.00  0.00    -0.235 N 
ATOM     22  N   UNL     1       5.267  -1.624   0.414  0.00  0.00    -0.397 NA
ATOM     23  C   UNL     1       3.418  -0.091   0.519  0.00  0.00    +0.123 C 
ATOM     24  C   UNL     1       6.620   1.739  -0.340  0.00  0.00    +0.100 C 
ATOM     25  C   UNL     1       7.558  -0.994  -0.008  0.00  0.00    +0.177 C 
ATOM     26  C   UNL     1       8.078   1.423  -0.067  0.00  0.00    +0.025 C 
ATOM     27  C   UNL     1       8.402   0.075  -0.674  0.00  0.00    +0.040 C 
ATOM     28  C   UNL     1       6.079  -0.651   0.139  0.00  0.00    +0.192 C 
ATOM     29  C   UNL     1       4.344   1.032   0.174  0.00  0.00    +0.237 C 
ATOM     30  C   UNL     1       3.939  -1.331   0.602  0.00  0.00    +0.097 C 
ATOM     31  C   UNL     1       3.107  -2.551   0.896  0.00  0.00    +0.062 C 
BRANCH  25  32
ATOM     32  O   UNL     1       7.665  -2.195  -0.759  0.00  0.00    -0.376 OA
ATOM     33  H   UNL     1       8.600  -2.429  -0.863  0.00  0.00    +0.211 HD
ENDBRANCH  25  32
ENDBRANCH  19  23
ENDBRANCH  18  19
ENDBRANCH   1  18
TORSDOF 5
