REMARK  Name = 5904
REMARK  5 active torsions:
REMARK  status: ('A' for Active; 'I' for Inactive)
REMARK    1  A    between atoms: CA_6  and  C_23
REMARK    2  A    between atoms: CA_7  and  N_12
REMARK    3  A    between atoms: C_13  and  C_15
REMARK    4  A    between atoms: C_15  and  C_16
REMARK    5  A    between atoms: C_23  and  O_24
REMARK                            x       y       z     vdW  Elec       q    Type
REMARK                         _______ _______ _______ _____ _____    ______ ____
ROOT
ATOM      1  S   UNL     1      -0.802   1.231   0.517  0.00  0.00    -0.118 S 
ATOM      2  O   UNL     1      -2.284  -2.545  -1.203  0.00  0.00    -0.273 OA
ATOM      3  N   UNL     1      -2.478  -0.737   0.302  0.00  0.00    -0.260 N 
ATOM      4  C   UNL     1      -1.310  -0.418   1.128  0.00  0.00    +0.151 C 
ATOM      5  C   UNL     1      -2.567   1.668   0.113  0.00  0.00    +0.068 C 
ATOM      6  CA  UNL     1      -3.167   0.336  -0.386  0.00  0.00    +0.184 C 
ATOM      7  CA  UNL     1      -0.614  -1.633   0.499  0.00  0.00    +0.178 C 
ATOM      8  C   UNL     1      -1.918  -1.826  -0.301  0.00  0.00    +0.247 C 
ATOM      9  C   UNL     1      -3.219   2.222   1.387  0.00  0.00    +0.013 C 
ATOM     10  C   UNL     1      -2.577   2.731  -0.986  0.00  0.00    +0.013 C 
ENDROOT
BRANCH   7  12
ATOM     11  O   UNL     1       2.160  -2.041   1.217  0.00  0.00    -0.275 OA
ATOM     12  N   UNL     1       0.568  -1.381  -0.338  0.00  0.00    -0.296 N 
ATOM     13  C   UNL     1       1.873  -1.611   0.102  0.00  0.00    +0.227 C 
ATOM     14  H   UNL     1       0.433  -1.034  -1.249  0.00  0.00    +0.150 HD
BRANCH  13  15
ATOM     15  C   UNL     1       2.902  -1.266  -0.956  0.00  0.00    +0.111 C 
BRANCH  15  16
ATOM     16  C   UNL     1       3.868  -0.195  -0.522  0.00  0.00    -0.013 C 
ATOM     17  C   UNL     1       3.567   1.137  -0.769  0.00  0.00    -0.004 C 
ATOM     18  C   UNL     1       5.046  -0.556   0.117  0.00  0.00    -0.004 C 
ATOM     19  C   UNL     1       4.462   2.129  -0.367  0.00  0.00    -0.000 C 
ATOM     20  C   UNL     1       5.941   0.436   0.519  0.00  0.00    -0.000 C 
ATOM     21  C   UNL     1       5.649   1.779   0.277  0.00  0.00    -0.000 C 
ENDBRANCH  15  16
ENDBRANCH  13  15
ENDBRANCH   7  12
BRANCH   6  23
ATOM     22  OXT UNL     1      -5.116  -0.697   0.596  0.00  0.00    -0.248 OA
ATOM     23  C   UNL     1      -4.630   0.158  -0.130  0.00  0.00    +0.333 C 
BRANCH  23  24
ATOM     24  O   UNL     1      -5.352   1.076  -0.817  0.00  0.00    -0.479 OA
ATOM     25  H   UNL     1      -4.916   1.705  -1.357  0.00  0.00    +0.295 HD
ENDBRANCH  23  24
ENDBRANCH   6  23
TORSDOF 5
