REMARK  Name = 62279
REMARK  7 active torsions:
REMARK  status: ('A' for Active; 'I' for Inactive)
REMARK    1  A    between atoms: N_1  and  C_20
REMARK    2  A    between atoms: C_2  and  N_10
REMARK    3  A    between atoms: N_10  and  C_12
REMARK    4  A    between atoms: C_11  and  C_18
REMARK    5  A    between atoms: C_20  and  C_21
REMARK    6  A    between atoms: C_21  and  C_22
REMARK    7  A    between atoms: C_21  and  O_28
REMARK                            x       y       z     vdW  Elec       q    Type
REMARK                         _______ _______ _______ _____ _____    ______ ____
ROOT
ATOM      1  N   UNL     1       1.020   2.378   0.400  0.00  0.00    +0.389 N 
ATOM      2  C   UNL     1      -1.760   1.343   0.417  0.00  0.00    +0.076 C 
ATOM      3  C   UNL     1      -1.102   1.856  -0.879  0.00  0.00    -0.002 C 
ATOM      4  C   UNL     1      -0.700   0.848   1.405  0.00  0.00    -0.003 C 
ATOM      5  C   UNL     1       0.015   2.867  -0.553  0.00  0.00    -0.076 C 
ATOM      6  C   UNL     1       0.390   1.896   1.633  0.00  0.00    -0.076 C 
ATOM      7  C   UNL     1      -2.129   2.506  -1.813  0.00  0.00    -0.000 C 
ATOM      8  H   UNL     1       1.610   3.172   0.651  0.00  0.00    -0.080 HD
ENDROOT
BRANCH   2  10
ATOM      9  O   UNL     1      -4.629   1.642  -0.177  0.00  0.00    -0.275 OA
ATOM     10  N   UNL     1      -2.711   0.288   0.152  0.00  0.00    -0.260 N 
ATOM     11  C   UNL     1      -4.089   0.534  -0.127  0.00  0.00    +0.229 C 
BRANCH  10  12
ATOM     12  C   UNL     1      -2.240  -1.095   0.171  0.00  0.00    +0.054 C 
ATOM     13  C   UNL     1      -1.785  -1.624  -1.000  0.00  0.00    +0.015 C 
ATOM     14  C   UNL     1      -2.289  -1.762   1.359  0.00  0.00    +0.015 C 
ATOM     15  C   UNL     1      -1.337  -2.945  -0.982  0.00  0.00    +0.001 C 
ATOM     16  C   UNL     1      -1.841  -3.083   1.377  0.00  0.00    +0.001 C 
ATOM     17  C   UNL     1      -1.365  -3.674   0.207  0.00  0.00    +0.000 C 
ENDBRANCH  10  12
BRANCH  11  18
ATOM     18  C   UNL     1      -4.937  -0.718  -0.332  0.00  0.00    +0.086 C 
ATOM     19  C   UNL     1      -6.393  -0.400  -0.640  0.00  0.00    +0.010 C 
ENDBRANCH  11  18
ENDBRANCH   2  10
BRANCH   1  20
ATOM     20  C   UNL     1       1.915   1.388  -0.193  0.00  0.00    -0.043 C 
BRANCH  20  21
ATOM     21  C   UNL     1       3.059   1.042   0.768  0.00  0.00    +0.112 C 
BRANCH  21  22
ATOM     22  C   UNL     1       3.996   0.017   0.168  0.00  0.00    +0.002 C 
ATOM     23  C   UNL     1       3.748  -1.329   0.376  0.00  0.00    -0.002 C 
ATOM     24  C   UNL     1       5.082   0.446  -0.576  0.00  0.00    -0.002 C 
ATOM     25  C   UNL     1       4.611  -2.274  -0.177  0.00  0.00    -0.000 C 
ATOM     26  C   UNL     1       5.945  -0.499  -1.129  0.00  0.00    -0.000 C 
ATOM     27  C   UNL     1       5.710  -1.859  -0.929  0.00  0.00    -0.000 C 
ENDBRANCH  21  22
BRANCH  21  28
ATOM     28  O   UNL     1       3.817   2.212   1.076  0.00  0.00    -0.382 OA
ATOM     29  H   UNL     1       3.233   2.883   1.462  0.00  0.00    +0.211 HD
ENDBRANCH  21  28
ENDBRANCH  20  21
ENDBRANCH   1  20
TORSDOF 7
