REMARK  Name = 3519
REMARK  4 active torsions:
REMARK  status: ('A' for Active; 'I' for Inactive)
REMARK    1  A    between atoms: C_2  and  N_3
REMARK    2  A    between atoms: C_2  and  C_11
REMARK    3  A    between atoms: N_3  and  C_6
REMARK    4  A    between atoms: C_11  and  C_14
REMARK                            x       y       z     vdW  Elec       q    Type
REMARK                         _______ _______ _______ _____ _____    ______ ____
ROOT
ATOM      1  O   UNL     1      -0.833   0.563   1.611  0.00  0.00    -0.273 OA
ATOM      2  C   UNL     1      -1.250   0.614   0.456  0.00  0.00    +0.252 C 
ENDROOT
BRANCH   2   3
ATOM      3  N   UNL     1      -2.538   0.942   0.089  0.00  0.00    -0.147 NA
BRANCH   3   6
ATOM      4  N   UNL     1      -4.733   0.105  -0.435  0.00  0.00    -0.372 N 
ATOM      5  N   UNL     1      -3.052  -1.330   0.132  0.00  0.00    -0.372 N 
ATOM      6  C   UNL     1      -3.410  -0.018  -0.074  0.00  0.00    +0.184 C 
ATOM      7  H   UNL     1      -5.114   0.996  -0.611  0.00  0.00    +0.159 HD
ATOM      8  H   UNL     1      -5.298  -0.697  -0.518  0.00  0.00    +0.159 HD
ATOM      9  H   UNL     1      -2.130  -1.553   0.395  0.00  0.00    +0.159 HD
ATOM     10  H   UNL     1      -3.718  -2.046   0.015  0.00  0.00    +0.159 HD
ENDBRANCH   3   6
ENDBRANCH   2   3
BRANCH   2  11
ATOM     11  C   UNL     1      -0.356   0.380  -0.747  0.00  0.00    +0.115 C 
BRANCH  11  14
ATOM     12 CL   UNL     1       0.327  -2.568  -0.348  0.00  0.00    -0.083 Cl
ATOM     13 CL   UNL     1       1.558   2.742  -0.469  0.00  0.00    -0.083 Cl
ATOM     14  C   UNL     1       1.068   0.059  -0.377  0.00  0.00    +0.008 C 
ATOM     15  C   UNL     1       1.448  -1.265  -0.181  0.00  0.00    +0.055 C 
ATOM     16  C   UNL     1       1.993   1.088  -0.234  0.00  0.00    +0.055 C 
ATOM     17  C   UNL     1       2.767  -1.563   0.161  0.00  0.00    +0.011 C 
ATOM     18  C   UNL     1       3.312   0.790   0.109  0.00  0.00    +0.011 C 
ATOM     19  C   UNL     1       3.699  -0.536   0.306  0.00  0.00    +0.002 C 
ENDBRANCH  11  14
ENDBRANCH   2  11
TORSDOF 4
