REMARK  Name = 146570
REMARK  6 active torsions:
REMARK  status: ('A' for Active; 'I' for Inactive)
REMARK    1  A    between atoms: C_2  and  C_11
REMARK    2  A    between atoms: C_2  and  C_19
REMARK    3  A    between atoms: C_9  and  C_18
REMARK    4  A    between atoms: C_19  and  C_20
REMARK    5  A    between atoms: C_20  and  C_21
REMARK    6  A    between atoms: C_21  and  N_22
REMARK                            x       y       z     vdW  Elec       q    Type
REMARK                         _______ _______ _______ _____ _____    ______ ____
ROOT
ATOM      1  O   UNL     1      -0.114  -0.606   1.632  0.00  0.00    -0.346 OA
ATOM      2  C   UNL     1      -0.069  -0.235   0.217  0.00  0.00    +0.130 C 
ATOM      3  C   UNL     1       1.387  -0.336  -0.135  0.00  0.00    +0.004 C 
ATOM      4  C   UNL     1       2.097  -0.828   0.951  0.00  0.00    +0.006 C 
ATOM      5  C   UNL     1       1.173  -1.095   2.076  0.00  0.00    +0.169 C 
ATOM      6  C   UNL     1       2.030  -0.028  -1.325  0.00  0.00    -0.001 C 
ATOM      7  C   UNL     1       3.466  -1.024   0.888  0.00  0.00    +0.008 C 
ATOM      8  C   UNL     1       3.411  -0.216  -1.403  0.00  0.00    +0.010 C 
ATOM      9  C   UNL     1       4.125  -0.712  -0.302  0.00  0.00    +0.068 C 
ENDROOT
BRANCH   2  11
ATOM     10  F   UNL     1      -2.058   5.007  -0.168  0.00  0.00    -0.204 F 
ATOM     11  C   UNL     1      -0.597   1.157   0.114  0.00  0.00    +0.006 C 
ATOM     12  C   UNL     1      -1.137   1.610  -1.089  0.00  0.00    +0.001 C 
ATOM     13  C   UNL     1      -0.549   2.002   1.222  0.00  0.00    +0.001 C 
ATOM     14  C   UNL     1      -1.630   2.912  -1.184  0.00  0.00    +0.029 C 
ATOM     15  C   UNL     1      -1.043   3.304   1.126  0.00  0.00    +0.029 C 
ATOM     16  C   UNL     1      -1.583   3.758  -0.077  0.00  0.00    +0.140 C 
ENDBRANCH   2  11
BRANCH   9  18
ATOM     17  N   UNL     1       6.687  -1.054  -0.482  0.00  0.00    -0.191 NA
ATOM     18  C   UNL     1       5.538  -0.900  -0.401  0.00  0.00    +0.100 C 
ENDBRANCH   9  18
BRANCH   2  19
ATOM     19  C   UNL     1      -0.938  -1.212  -0.566  0.00  0.00    +0.034 C 
BRANCH  19  20
ATOM     20  C   UNL     1      -2.364  -1.250  -0.020  0.00  0.00    -0.020 C 
BRANCH  20  21
ATOM     21  C   UNL     1      -3.238  -2.204  -0.832  0.00  0.00    -0.077 C 
BRANCH  21  22
ATOM     22  N   UNL     1      -4.589  -2.244  -0.285  0.00  0.00    +0.384 N 
ATOM     23  C   UNL     1      -4.566  -2.671   1.115  0.00  0.00    -0.101 C 
ATOM     24  C   UNL     1      -5.439  -3.137  -1.074  0.00  0.00    -0.101 C 
ATOM     25  H   UNL     1      -4.979  -1.302  -0.330  0.00  0.00    -0.080 HD
ENDBRANCH  21  22
ENDBRANCH  20  21
ENDBRANCH  19  20
ENDBRANCH   2  19
TORSDOF 6
