6613
  -OEChem-11271916563D

 32 31  0     1  0  0  0  0  0999 V2000
   -2.7529   -1.6944    0.3338 O   0  0  0  0  0  0  0  0  0  0  0  0
   -1.1073    2.8794   -0.1963 O   0  0  0  0  0  0  0  0  0  0  0  0
   -0.4849   -2.1185   -1.0750 O   0  0  0  0  0  0  0  0  0  0  0  0
    3.0808    1.6130   -0.8793 O   0  0  0  0  0  0  0  0  0  0  0  0
    3.1511    0.7907    1.2359 O   0  0  0  0  0  0  0  0  0  0  0  0
    0.7332   -1.2229    0.6850 N   0  0  0  0  0  0  0  0  0  0  0  0
   -1.9812    0.6018    0.0455 C   0  0  0  0  0  0  0  0  0  0  0  0
   -1.6583   -0.8196    0.5944 C   0  0  2  0  0  0  0  0  0  0  0  0
   -0.8103    1.5810    0.3060 C   0  0  0  0  0  0  0  0  0  0  0  0
   -3.2442    1.1325    0.7652 C   0  0  0  0  0  0  0  0  0  0  0  0
   -2.2943    0.5540   -1.4634 C   0  0  0  0  0  0  0  0  0  0  0  0
   -0.4266   -1.4698   -0.0320 C   0  0  0  0  0  0  0  0  0  0  0  0
    2.0300   -1.7115    0.2765 C   0  0  0  0  0  0  0  0  0  0  0  0
    2.7534   -0.7251   -0.6309 C   0  0  0  0  0  0  0  0  0  0  0  0
    3.0116    0.6094    0.0344 C   0  0  0  0  0  0  0  0  0  0  0  0
   -1.5327   -0.7829    1.6829 H   0  0  0  0  0  0  0  0  0  0  0  0
    0.1113    1.2509   -0.1806 H   0  0  0  0  0  0  0  0  0  0  0  0
   -0.6120    1.6730    1.3791 H   0  0  0  0  0  0  0  0  0  0  0  0
   -4.1100    0.4836    0.5926 H   0  0  0  0  0  0  0  0  0  0  0  0
   -3.5178    2.1340    0.4149 H   0  0  0  0  0  0  0  0  0  0  0  0
   -3.0818    1.1920    1.8473 H   0  0  0  0  0  0  0  0  0  0  0  0
   -2.5998    1.5361   -1.8421 H   0  0  0  0  0  0  0  0  0  0  0  0
   -3.1191   -0.1275   -1.6946 H   0  0  0  0  0  0  0  0  0  0  0  0
   -1.4210    0.2403   -2.0445 H   0  0  0  0  0  0  0  0  0  0  0  0
    0.6858   -0.6646    1.5322 H   0  0  0  0  0  0  0  0  0  0  0  0
   -2.7892   -1.8752   -0.6200 H   0  0  0  0  0  0  0  0  0  0  0  0
    2.6061   -1.8916    1.1903 H   0  0  0  0  0  0  0  0  0  0  0  0
    1.9057   -2.6688   -0.2410 H   0  0  0  0  0  0  0  0  0  0  0  0
   -0.9919    2.8577   -1.1611 H   0  0  0  0  0  0  0  0  0  0  0  0
    2.1476   -0.5520   -1.5284 H   0  0  0  0  0  0  0  0  0  0  0  0
    3.7194   -1.1368   -0.9412 H   0  0  0  0  0  0  0  0  0  0  0  0
    3.2493    2.4816   -0.4557 H   0  0  0  0  0  0  0  0  0  0  0  0
  1  8  1  0  0  0  0
  1 26  1  0  0  0  0
  2  9  1  0  0  0  0
  2 29  1  0  0  0  0
  3 12  2  0  0  0  0
  4 15  1  0  0  0  0
  4 32  1  0  0  0  0
  5 15  2  0  0  0  0
  6 12  1  0  0  0  0
  6 13  1  0  0  0  0
  6 25  1  0  0  0  0
  7  8  1  0  0  0  0
  7  9  1  0  0  0  0
  7 10  1  0  0  0  0
  7 11  1  0  0  0  0
  8 12  1  0  0  0  0
  8 16  1  0  0  0  0
  9 17  1  0  0  0  0
  9 18  1  0  0  0  0
 10 19  1  0  0  0  0
 10 20  1  0  0  0  0
 10 21  1  0  0  0  0
 11 22  1  0  0  0  0
 11 23  1  0  0  0  0
 11 24  1  0  0  0  0
 13 14  1  0  0  0  0
 13 27  1  0  0  0  0
 13 28  1  0  0  0  0
 14 15  1  0  0  0  0
 14 30  1  0  0  0  0
 14 31  1  0  0  0  0
M  END
> <DATABASE_ID>
DB01783

> <DATABASE_NAME>
drugbank

> <ORIGINAL_SOURCE>
PUBCHEM

> <ORIGINAL_SOURCE_URL>
https://pubchem.ncbi.nlm.nih.gov/rest/pug/compound/inchikey/GHOKWGTUZJEAQD-ZETCQYMHSA-N/SDF?record_type=3d

> <SMILES>
CC(C)(CO)[C@@H](O)C(=O)NCCC(O)=O

> <INCHI_IDENTIFIER>
InChI=1S/C9H17NO5/c1-9(2,5-11)7(14)8(15)10-4-3-6(12)13/h7,11,14H,3-5H2,1-2H3,(H,10,15)(H,12,13)/t7-/m0/s1

> <INCHI_KEY>
GHOKWGTUZJEAQD-ZETCQYMHSA-N

> <FORMULA>
C9H17NO5

> <MOLECULAR_WEIGHT>
219.235

> <EXACT_MASS>
219.110672659

> <JCHEM_ACCEPTOR_COUNT>
5

> <JCHEM_ATOM_COUNT>
32

> <JCHEM_AVERAGE_POLARIZABILITY>
21.987799216909416

> <JCHEM_BIOAVAILABILITY>
1

> <JCHEM_DONOR_COUNT>
4

> <JCHEM_FORMAL_CHARGE>
0

> <JCHEM_GHOSE_FILTER>
0

> <JCHEM_IUPAC>
3-[(2R)-2,4-dihydroxy-3,3-dimethylbutanamido]propanoic acid

> <ALOGPS_LOGP>
-1.12

> <JCHEM_LOGP>
-1.3553751066666662

> <ALOGPS_LOGS>
-0.56

> <JCHEM_MDDR_LIKE_RULE>
0

> <JCHEM_NUMBER_OF_RINGS>
0

> <JCHEM_PHYSIOLOGICAL_CHARGE>
-1

> <JCHEM_PKA>
12.685728183953428

> <JCHEM_PKA_STRONGEST_ACIDIC>
4.3547414254714205

> <JCHEM_PKA_STRONGEST_BASIC>
-2.7860052632571373

> <JCHEM_POLAR_SURFACE_AREA>
106.86000000000001

> <JCHEM_REFRACTIVITY>
51.511100000000006

> <JCHEM_ROTATABLE_BOND_COUNT>
6

> <JCHEM_RULE_OF_FIVE>
1

> <ALOGPS_SOLUBILITY>
6.05e+01 g/l

> <JCHEM_TRADITIONAL_IUPAC>
racemiccalcium pantothenate

> <JCHEM_VEBER_RULE>
0

> <DRUGBANK_ID>
DB01783

> <SECONDARY_ACCESSION_NUMBERS>
EXPT02501

> <DRUG_GROUPS>
approved; nutraceutical; vet_approved

> <GENERIC_NAME>
Pantothenic acid

> <SYNONYMS>
(+)-Pantothenic acid; D-pantothenic acid; Pantothenate; Vitamin B5

> <PRODUCTS>
24 Multivitamins + Minerals; 50 Plus; 50 Plus Multiple Vitamins & Minerals; Acti Pantothenic Acid 1000 Timed Caplet; Acti-pantothenic Acid 300 Caplet 300mg; Adrenergy Tablets; Adrenogist Tab; Adult Formula 50+; Advanced 2000 Capsules; Advanced B & T Formula; Alkadrenergy Tablets; Allbee C 800 Tab; Allbee With C 550 Cap; Allbee With Vitamin C Cap; American Eagle Energizer Plus Vitamin Supplement Drink; American Plus Energy & Vitamin Drink; Amerix Multivitamin; Anaplex Tab; Armax; B 50 Capsules; B C Antistress Cap; B Complex 25mg Vitamin Supplement; B Complex 50 Vitamin Cap; B Complex 50+ Caplet; B Complex 500 Tab; B Complex Plus C 300mg Tab; B Complex Tablets; B Complex W C Forte Cap; B Complex W Vit C W Non-med Yeast&liver Tab; B Complex W Vitamin C Fortis Cap; B Complex With C 300mg; B Complex With C 300mg Tab; B Complex With C 550mg; B Compound 50mg Tab; B Plus C 300 mg; B Plus C 300mg Timed Release; B Stress C + Iron & Vite; B Totum 500; B Virol; B With C 500 Cap; B-100 Caps; B-100 Complex Tablets; B-100 Hi Potency B Vitamins Tab; B-100 Vitamin Supplement; B-50 Complex; B-50 Complex Tab; B-50 Hi Potency B Vitamins Tab; B-complex; B-complex 100; B-complex 50; B-complex Tab; B-complex Tablets; B-complex With Vitamin C, Biotin, Folic Acid; B-complex-50 Tab; B-plex; B-plus - Tab; B50 B Complex Tab; B50 Complex; Bacmin; Balanced B 125 Srt; Balanced B-100 B-complex Vitamins Tab; Balanced B-100 Timed Release; Balanced B-50 B-complex Vitamins Tab; Balanced B-50 B-complex Vitamins, Timed Rele; Balanced B-50 Complex; Balanced B-complex Vit + Vit C&e Tab; Balanced B100; Balanced B50 Complex; Bear Essentials; Beminal With C Fortis Cap; Bev 29 Tab; Bev B-150; Bio-fen; Biosculpt; Body Rox; C-B Complex; C-apnto-B6 Vitamins W Magnesium Tab; C. Vit-min Formula; C.R.T. X Multivitamin & Mineral Powder Mix; Calcium Pantothenate Tab 250mg; Calpan Tab 100mg; Calpan Tab 250mg; Carbassist Tablets; Cavan Heme OB; Cc II; Cda-21 Vitamins With Non-medicinal Probiotic Complex; Cedevita Plus Vitamin Supplement; Cedevita Sugar-free Vitamin Supplement; Central-vite 18 Essential; Centratex; Century Complete; Chela Iron Plus C,b Complex; Children Choice Multivit Chewable Tab; Children Choice Multivitamin W Iron Chew Tab; Children's Chew Multi & Min Tab; Children's Chewable Multi-vitamin Complete With Minerals; Children's Chewable Multivitamin and Multimineral; Children's Chewable Tab; Children's Chewable Vit and Min Tab; Childrens Chewab Vitamin W Chel Minerals; Childrens Chewable Vitamin Tab; Childrens Chewable Vitamins W Iron; Childrens Multiple Vit and Min Chew Tab; Classic Swiss One 10 Multivitamin and Mineral Tab; Complete Mega B; Complete Multivitamins and Minerals Tablets Timed Release; Complete Multivitamins and Minerals for Children; Complex 5 - Pwr; Complex-75; Complexe B 75mg; Complexe B Compose 75; Complexe B-75; Concept DHA; Concept OB; Corvita; Corvite; Corvite Free; D Pantothenic 500mg With 100mg C; D Pantothenic Acid Tab 100mg; D'pantothenic Acid Srt 1000mg; D'pantothenic Acid-B1-B2 Tab; D-pantothenic Acid 250mg; D-pantothenic Acid 250mg Cap; Daily Balance Tab; Daily Energy Brand B-complex; Dalivit; Derma-force; Dexifol; Dia-vite; Dialyvite; Dialyvite 3000; Dialyvite 5000; Dialyvite Supreme D; Dialyvite with Zinc; Diaplex; Doctor's Choice Brand for Men; Dothelle DHA; Dp 2000; Dr Angio; Earthpals Children's Chewables Multi-vitamin & Mineral Tablets; Efferlife Multivitamins and Minerals; Elite OB Prenatal Multivitamin; Energy 80 Prolonged Release Tab; Enrich Core Pack - Children Vitamin and Mineral Supplement; Envirocomplex; Enviroflex - Tab; Envive; Escavite; Escavite D; Essential B Tablets; Essential Vitamins and Minerals; Extra Once A Day; Extra P.N. Vitamin-mineral Drink Mix; Fem - Pmt; Fem Time Tab; Floriva Plus; Folika-T; Folivane-OB; Folivane-Plus with Ascorbic Acid Precursors; For-2; Formula 9 Tab; Formula Adr-vitamin B2,b6 W Calpan Tab; Formula Cm; Formula D.S.; Formula F L W; Formula F.E.S. Vitamins Tab; Formula Gly; Formula Gm; Formula Hh; Formula Im-vitamins and Minerals Tab; Formula Js; Formula L.G.I.; Formula Lf; Formula Statin Support; Fortamines 10 Capsules; Fortamines-10 Comprimes; Fortistress Tab; Forty Plus Vitamin Supplement; Fusion Activator Formula Tab; Genicin Vita-S; Glyco Lite Ect; Glyco Plus Ect; Glyco-aide Tab; Grand Master Formula Tab; Great Day/am Formula Tab; Gtf Support Caplet; Harvest Of Values All B Complex Tab; Hemarexin Tab; HemeNatal OB; HemeNatal OB plus DHA; Hemocyte Plus; Hi Potency B Complex W Chelated Minerals; Hi Potency B52 B Complex Tab; Hi Potency Balanced B-100 Complex - Tab; Hi Potency Multi Tab; Hi Potency Stress B Tension With C; High Potency Multivitamins & Minerals Caplets; High Potency Vitamin B Complex + C Tab; Hill.vite; Hsn Formula; Hylavite; Hypo Vites Tab; Hyporyl - Tab; Iberet 500; Inner Health Vitamin Supplement Capsules; Innersource Tab; Insur-all Vitamin Supplement; Integra Plus; Iron 25mg With Vit B-cmplx, Vit C, Cu & Mo; Iron, Vit & Min Supp; Irospan 24/6; Isotonix Multitech Vitamin Mineral Supplemen; K.L. Vitamin-mineral; Kanga Sport Vitamins B & C Plus Minerals; Kanga-B Vitamin B Group + C; Kanga-V Multivitamins & Minerals; Kanga-kid Multi-vitamin & Mineral; Kc Vitamin and Mineral Supplement; Kenwood Liquid Supplement; Kindervites; L.C. Supplement; Leritone Junior; Lipo-B-C Tab; Lipovitan; Liqui B Complex; Liqui B Complex Plus; Liqui Infant Vitamins; Liqui Vita; Liquid B Complex 50; Livron Plus Tab; Lorid; Low Potency B Complex Tab; Luna Vitamin and Mineral Bar for Women; M.V.I. Paediatric; MYNEPHROCAPS DIALYSIS/STRESS Vitamin Supplement; Maintain Multiple Vitamin & Minerals; Master Key Multi Vitamin Multi Mineral Formula 2; Materna; Materna - Tab; Materna-tab; Maxi 10 Tab; Maximum Once A Day; Maxine Vitamin and Mineral Supplement; Mega 13 Multivitamin Formula; Mega Balance; Mega Capsules; Mega Plex III - Pck; Mega Plex IV - Pck; Mega Vitaminerals; Mega-vim 75 With Beta-carotene - Tablets; Megavite Rx; Men's; Men's 50+; Men's Biomultiple Vitamin and Mineral Supplement; Men's Multi Master Formula; Meplex T 750; Milltrium Senior Vitamin and Mineral Supplement; Mini-B Tab; Mor-vites Tab; Mr. Tumee Multi-vitamin; Multi #2; Multi - N.T.O.x Formula - Tab; Multi B; Multi II IV Vi Tab; Multi Nt-OX; Multi Plex I - Tab; Multi Plex II - Tab; Multi Tabs; Multi Vitamin & Minerals; Multi Vitamin - Mineral; Multi Vitamin and Mineral vitamin; Multi Vitamin-mineral Formula; Multi Vitamines - Liq; Multi Vitamins & Minerals; Multi-actin; Multi-force for Women Tab; Multi-kid; Multi-phyto Capsules; Multi-vitamin Dietary Supplement; Multi-vitamines Enfants Comprime; Multi-vitamins With Minerals; Multicaps; Multipack II; Multiple Vitamin Plus Minerals Tab; Multiple Vitamins & Minerals Tablets; Multiple Vitamins - Tablet; Multiple Vitamins Childrens Chewable; Multiple Vitamins Plus Iron for Women; Multiple Vitamins W Minerals Tab; Multiple Vitamins With Iron Tablets; Multiple Vitamins With Minerals Tablets; Multiple Vitamins and Minerals; Multiple Vitamins and Minerals Capsules; Multiple Vitamins and Minerals Tab; Multisol; Multitabs; Multivit-liq; Multivitamin & Minerals (iron Free); Multivitamin & Multimineral; Multivitamines Et Mineraux; Multivitamines Et Mineraux Junior Regulier; Multivitamines Et Mineraux Reguliers / Regular Multivitamins and Minerals; Multivitamins W Minerals Extra Strength; Multivitamins and Minerals - Complete; Multivitamins and Minerals Tablets; Multivitamins and Minerals With Betacarotene Tablets; Multivitamins and Minerals for Men; Multivitamins and Minerals for Women; Multivitamins and Minerals for Young Men; Multivitamins and Minerals for Young Women; Multivitamins and Multiminerals Formula Regular Tablet; Multra Plex; Multra With Iron; Myhephron Dialysis and Stress Supplement; Nata Komplete; Natal-V RX Multi-vitamin/Multi-mineral; Natural Source Spectrum With Beta Carotene; NephPlex Rx; Nephrocaps; Nephrocaps-QT; Nephron FA; New Chapter's D'adamo 4 Your Type Multiple for Type O; Nioxin Recharging Complex; Numark Multivitamins; Nutra Boost; Nutrilite Double X; Nutrol-B-complex; OB Complete Prenatal; Ob-X; Olympian Multi Vit Plus Minerals Tab; Omega-3 Rx Complete; Onccor; Oncovite; One A Day Advance Adults; One A Day Advance Adults 50+; One A Day Advance Fem; One A Day Multiple Vit W Minerals; One A Day Tab; One Daily Vitamin and Mineral Dietary Supplement; One Per Day Vitamin and Mineral Dietary Supplement; One Tablet Daily Mens Formula; One-A-day Advance Fem - Tablets; One-A-day Advance Men's; Only One - Tablet; Original Bioscal Forte Multi-vitamin Supplement Capsules; Orti B; Osteo-force; P.N. Vitamin-mineral Drink; P.N.P. Vitamin Drink; PM Caps; PNV Ferrous Fumarate Docusate Folic Acid; PNV Tabs 29-1; PNV-Select; Paire OB Plus DHA; Palm Springs Multvit and Min Tab; Pantacid Tab 250mg; Pantothenic Acid; Pantothenic Acid 100 Mg Tablets; Pantothenic Acid 100mg; Pantothenic Acid 250mg; Pantothenic Acid 500 Caplet 500mg; Pantothenic Acid 500 mg; Pantothenic Acid 500mg; Pantothenic Acid Cap 250mg; Pantothenic Acid Caps 100mg; Pantothenic Acid Caps 250mg; Pantothenic Acid Ctr Srt 500mg; Pantothenic Acid Tab 100mg; Pantothenic Acid Tab 100mg Nu Life; Pantothenic Acid Tab 200mg; Pantothenic Acid Tab 250mg; Pantothenic Acid Tab 500mg; Pantothenic Acid Tablets 300mg; Pantothenic Acid-S Tab 100mg; Paramettes Adults; Phosthenine Vitamines Et Fer (ampoules Buvable); Phytopure; Phytovim Cap; Pnv-VP-U; Polymine Avec Zinc Et Cuivre; Potassium Plus Vit B Complex; PreNatal 19; Prefera OB plus DHA; PreferaOB; PreferaOB ONE; PreferaOB One; PreferaOB plus DHA; Pregvit; Pregvit Folic 4; Pregvit Folic 5; Premium Prenatal; Premium Prenatal - Tablets; Prena1; Prena1 Plus; Prenatal Formula Tab; Prenatal Mega Antioxidant; Prenatal Supplement - Tab; Prenatal Vi-min; Prenatal Vitamin and Mineral Supplement; Prenatal Vitamin and Mineral Supplement -tab; Prenatal Vitamin and Mineral Supplement Tab; Prenatal Vitamins and Minerals Tablets; Prenatal and Post Partum Supplement; Prenate Elite; Prenate Star; Pro Hers Vanilla; PureFe OB Plus; PureFe Plus; PureVit DualFe Plus; Q.T. Vitamin and Mineral Drink Mix; Quflora FE; Quflora FE Pediatric Drops; R.E.S. Complex; RE FAC-x; RE Nata OB; Red American Eagle Vitamin Supplement Drink; Red Bull; Renal Caps Dialysis/Stress Vitamin Supplement; Reno Caps; Replavite; Revit Multi-vitamins and Minerals; Revit Plus Cap; Revitalize Multi-vitamin and Mineral Complex; Revival 1 Tab; Right Choice A.M. Multi Formula - Caplet; Se-Natal 19; Se-Natal 19 Chewable; Se-Natal One; Se-Tan PLUS; Senior Multi One; Shen Min Vitamin Supplement; Shen Min Vitamin and Mineral Supplement; Sibergin B - Cap; Snh Formula; Somavit Brand Vitamins and Minerals Complex; Sopalamine 3b Plus; Sopalamine/3b Plus C; Spectra 301 Vitamin and Mineral Supp; Spectrum 2 Cap; Spectrum Performa Multivitamins and Minerals Tablets; Stress B & C Caplet; Stress B Capsules With Vitamin C; Stress B Complex With C and E Tab; Stress B Complex With C, E & Iron; Stress B Complex With C, E and Iron Tab; Stress B Complex With C,e, Zinc and Copper; Stress B With 1000 Mg Vitamin C; Stress B&c Tab; Stress B-complex Plus Iron With Vitamins C&e; Stress Complex 600 Avec Vit E Cuivre Zinc; Stress Ctr Srt; Stress Formula; Stress Formula + Iron; Stress Formula B-comp + 500mg Vit C Tab; Stress Formula Multi-B Comp + 500mg Vit C Cap; Stress Formula Multivitamin Tablets USP; Stress Formula Tab; Stress Formula Vit B With C Complex; Stress Forte Plus Lipotropic Factors; Stress Tab; Stress Tab With Iron and Vitamin E; Stress Tab With Zinc, Copper and Vitamin E; Stress Tablets; Stress Vitamin B With C Complex Tablets; Stressmates; Stresstabs + Zinc-copper; Strovite Forte Caplet; Strovite One Caplets; Sun-rype Vitaburst; Super B Compound W 500mg Vit C; Super Charged Energy; Super Daily No 2; Super Kids Chewable Multivitamin Multimineral (chewable Tablets); Super Multi; Super Pantoplex; Super Stress Capsules; Super Stress Mega B Plus 1000mg Vit C Tab; Super Vita Vim Multivitamins and Minerals; Super Vita-vim With Beta-carotene - Tab; Super-cell; Super-pote Vitamin Supplement; Supplement De Multivitamines Infusion Arome Fruits Rouges; Supravite Bouteille 250ml; Supravite Stress Avec Vit E; Supravite Stress Avec Vit E Cuivre Et Zinc; Supravite Stress Avec Vit E Et Fer; Surbex 500 Filmtab; Surbex-500 With Iron; Surbex-500 With Zinc; Swical-energy 3e Age; Swical-energy-2; Swiss One; Swiss One Multi Vit & Chel Min Tab; Swiss One Multivitamin and Mineral Caplet; Swiss One Timed Release Tab; Swiss Total One; T.R.I. B-plex Src; T.S. Formula; TL-Fluorivite; TL-Folate; TRONVite; Tandem OB; Tandem Plus; Tar-end; Taron-C DHA; Thrivite 19; Thrivite Rx; Time Release B 100 Compound - Tablet; Timed Release B Complex 100 Srt; Timed Release B-complex 100; Timed Release B-complex 50; Timed Release Vita-vim Srt; Toni Com Liq; Total Living Concepts Formula One - Tab; Totalvit Plus; Tri Adrenopan; Tricare Prenatal 2-part Daily Prenatal Vitamin System; Tricare Prenatal Quick Dissolve; Trinatal GT; Trinatal Rx 1; TriphroCaps; Twin Ultra Liquid Fruit Punch Flavor; Twin Ultra Liquid Grape Flavor; Twin Ultra Liquid Lemon-lime Flavor; Twin Ultra Liquid Orange Flavor; Ultra Enerforce; Ultra Hr; Usana Megavitamin Tablets - Tab; V & M Vitamin and Mineral Supplement; VIL-Rx; VP-HEME One; VP-Vite Rx; Vasodyn Tab; Vc II; Vege 1 Daily Tab; Vege Swiss One Multivitamin W Chel Mins Tab; Vinate AZ; Virt Vite GT; Virt-C DHA; Virt-Caps; Virt-PN; Virt-Pn; Virt-Vite Plus; Vit B Complex Ctr; Vit B Complex Plus Vit C 550mg; Vit-HA Multi Vitamin and Zinc Supplement; Vita B + C 500 Tab; Vita B Complex Tab; Vita Plex Tab; Vita Vim Multivitamins and Minerals Tab; Vita Vim With Beta Carotene-caplet; Vita-B; Vita-B-75 Cap; Vita-Rx Diabetic Vitamin; Vita-tenic Cap 300mg; Vita-vim - Tab; Vita-vim With Beta-carotene - Tab; Vita-worth B-complex Tablets; VitaPhil Aide; Vitabanks Vitamin Tab; Vitaday Junior Tab; Vitaflex Dietary Suplement; Vital Be-100; Vital-D Rx; Vitalife - Capsule; Vitamin & Mineral Formula 1 Dietary Supplement; Vitamin B + C Cap; Vitamin B Complex + C 300mg Cap; Vitamin B Complex + C 600mg Tab; Vitamin B Complex 100 Tab; Vitamin B Complex 50; Vitamin B Complex Plus 300mg Vitamin C; Vitamin B Complex Plus C 300mg Timed Release; Vitamin B Complex Suppl; Vitamin B Complex Tab; Vitamin B Complex W C 300mg Tab; Vitamin B Complex W C Tab; Vitamin B Compound Tab; Vitamin B Compound W C Tab 500mg; Vitamin B Compound W Vit C 250mg Tab; Vitamin B Compound With Vitamin C Fortis Capsule Dtc; Vitamin B Cpd W Vit C Tab; Vitamin B Tablets; Vitamin B5 (pantothenic Acid) Tab 250mg; Vitamin B5 Tab 50mg USP Chewable; Vitamine 110 Liq; Vitamines Et Mineraux; Vitamines Et Mineraux Comprimes; Vitamines Et Mineraux Enfants 970; Vitaphil 90 DHA; Vitaphil DHA; Vitaplex; Vitasure; Vitogen B Stress C Vit E Zinc & Cop; Vitogen B Stress C600; Viva Kids - Tab; Vol-Care Rx; Vol-Tab Rx; Vp-heme Ob; Vp-heme Ob DHA; Vtb Vitamin and Mineral Supplement; Vyo Cylate - Pwr; Vyqua; Wellness Formula; Women's Biomultiple Vitamin and Mineral Supplement; Women's Change Formula; Women's Formula; Xvite; Z Bec Tab; Zatean-Pn; ahoSAN; bioJET; healthy mamaBE WELL ROUNDED BE WELL ROUNDED; vitaMedMD One Rx; vitaMedMD Rx Plus

> <SALTS>
Calcium pantothenate

$$$$
