REMARK  Name = 154575
REMARK  5 active torsions:
REMARK  status: ('A' for Active; 'I' for Inactive)
REMARK    1  A    between atoms: C_1  and  O_21
REMARK    2  A    between atoms: C_2  and  O_19
REMARK    3  A    between atoms: C_4  and  C_9
REMARK    4  A    between atoms: N_8  and  C_14
REMARK    5  A    between atoms: O_21  and  C_22
REMARK                            x       y       z     vdW  Elec       q    Type
REMARK                         _______ _______ _______ _____ _____    ______ ____
ROOT
ATOM      1  C   UNL     1      -2.255  -0.549  -0.161  0.00  0.00    +0.172 C 
ATOM      2  C   UNL     1      -2.822  -1.798   0.069  0.00  0.00    +0.172 C 
ATOM      3  C   UNL     1      -0.875  -0.408  -0.269  0.00  0.00    +0.045 C 
ATOM      4  C   UNL     1      -0.053  -1.528  -0.145  0.00  0.00    +0.057 C 
ATOM      5  C   UNL     1      -2.000  -2.919   0.193  0.00  0.00    +0.040 C 
ATOM      6  C   UNL     1      -0.616  -2.783   0.086  0.00  0.00    +0.008 C 
ENDROOT
BRANCH   4   9
ATOM      7  O   UNL     1       2.060  -2.349  -0.667  0.00  0.00    -0.270 OA
ATOM      8  N   UNL     1       1.912  -0.135   0.096  0.00  0.00    -0.279 N 
ATOM      9  C   UNL     1       1.390  -1.387  -0.257  0.00  0.00    +0.250 C 
ATOM     10  H   UNL     1       1.255   0.530   0.406  0.00  0.00    +0.155 HD
BRANCH   8  14
ATOM     11 CL   UNL     1       3.496  -0.598   2.640  0.00  0.00    -0.079 Cl
ATOM     12 CL   UNL     1       2.826   1.131  -2.505  0.00  0.00    -0.079 Cl
ATOM     13  N   UNL     1       5.905   1.150   0.008  0.00  0.00    -0.240 NA
ATOM     14  C   UNL     1       3.260   0.299   0.066  0.00  0.00    +0.075 C 
ATOM     15  C   UNL     1       4.057   0.127   1.183  0.00  0.00    +0.091 C 
ATOM     16  C   UNL     1       3.762   0.888  -1.079  0.00  0.00    +0.091 C 
ATOM     17  C   UNL     1       5.368   0.568   1.104  0.00  0.00    +0.112 C 
ATOM     18  C   UNL     1       5.086   1.295  -1.057  0.00  0.00    +0.112 C 
ENDBRANCH   8  14
ENDBRANCH   4   9
BRANCH   2  19
ATOM     19  O   UNL     1      -4.172  -1.943   0.176  0.00  0.00    -0.468 OA
ATOM     20  C   UNL     1      -4.893  -2.207  -1.026  0.00  0.00    +0.253 C 
ENDBRANCH   2  19
BRANCH   1  21
ATOM     21  O   UNL     1      -3.051   0.559  -0.285  0.00  0.00    -0.476 OA
BRANCH  21  22
ATOM     22  C   UNL     1      -2.842   1.606   0.654  0.00  0.00    +0.166 C 
ATOM     23  C   UNL     1      -4.144   1.903   1.381  0.00  0.00    +0.044 C 
ATOM     24  C   UNL     1      -2.547   2.913  -0.067  0.00  0.00    +0.044 C 
ATOM     25  C   UNL     1      -4.938   2.771   0.406  0.00  0.00    +0.004 C 
ATOM     26  C   UNL     1      -3.915   3.395  -0.543  0.00  0.00    +0.004 C 
ENDBRANCH  21  22
ENDBRANCH   1  21
TORSDOF 5
