REMARK  Name = 4761
REMARK  5 active torsions:
REMARK  status: ('A' for Active; 'I' for Inactive)
REMARK    1  A    between atoms: C_1  and  C_3
REMARK    2  A    between atoms: C_1  and  C_8
REMARK    3  A    between atoms: C_1  and  C_14
REMARK    4  A    between atoms: C_14  and  C_15
REMARK    5  A    between atoms: C_15  and  N_16
REMARK                            x       y       z     vdW  Elec       q    Type
REMARK                         _______ _______ _______ _____ _____    ______ ____
ROOT
ATOM      1  C   UNL     1       0.008   0.462  -0.069  0.00  0.00    +0.060 C 
ENDROOT
BRANCH   1   3
ATOM      2  N   UNL     1      -0.215  -1.676   1.047  0.00  0.00    -0.248 NA
ATOM      3  C   UNL     1      -0.531  -0.963  -0.041  0.00  0.00    +0.063 C 
ATOM      4  C   UNL     1      -1.279  -1.393  -1.106  0.00  0.00    +0.015 C 
ATOM      5  C   UNL     1      -1.756  -2.698  -1.049  0.00  0.00    +0.003 C 
ATOM      6  C   UNL     1      -0.696  -2.939   1.066  0.00  0.00    +0.098 C 
ATOM      7  C   UNL     1      -1.463  -3.493   0.054  0.00  0.00    +0.021 C 
ENDBRANCH   1   3
BRANCH   1   8
ATOM      8  C   UNL     1       1.533   0.475  -0.110  0.00  0.00    -0.017 C 
ATOM      9  C   UNL     1       2.166   0.272  -1.317  0.00  0.00    -0.004 C 
ATOM     10  C   UNL     1       2.226   0.689   1.062  0.00  0.00    -0.004 C 
ATOM     11  C   UNL     1       3.560   0.284  -1.354  0.00  0.00    -0.000 C 
ATOM     12  C   UNL     1       3.620   0.700   1.026  0.00  0.00    -0.000 C 
ATOM     13  C   UNL     1       4.287   0.498  -0.182  0.00  0.00    -0.000 C 
ENDBRANCH   1   8
BRANCH   1  14
ATOM     14  C   UNL     1      -0.580   1.372   1.041  0.00  0.00    -0.012 C 
BRANCH  14  15
ATOM     15  C   UNL     1      -2.112   1.406   1.023  0.00  0.00    -0.077 C 
BRANCH  15  16
ATOM     16  N   UNL     1      -2.590   1.898  -0.265  0.00  0.00    +0.384 N 
ATOM     17  C   UNL     1      -2.126   3.267  -0.497  0.00  0.00    -0.101 C 
ATOM     18  C   UNL     1      -4.051   1.839  -0.329  0.00  0.00    -0.101 C 
ATOM     19  H   UNL     1      -2.209   1.299  -0.997  0.00  0.00    -0.080 HD
ENDBRANCH  15  16
ENDBRANCH  14  15
ENDBRANCH   1  14
TORSDOF 5
