REMARK  Name = 4634
REMARK  11 active torsions:
REMARK  status: ('A' for Active; 'I' for Inactive)
REMARK    1  A    between atoms: C_1  and  C_2
REMARK    2  A    between atoms: C_1  and  C_8
REMARK    3  A    between atoms: C_1  and  O_14
REMARK    4  A    between atoms: C_1  and  C_17
REMARK    5  A    between atoms: C_17  and  O_18
REMARK    6  A    between atoms: O_18  and  C_19
REMARK    7  A    between atoms: C_19  and  C_20
REMARK    8  A    between atoms: C_21  and  C_22
REMARK    9  A    between atoms: C_22  and  N_23
REMARK   10  A    between atoms: N_23  and  C_25
REMARK   11  A    between atoms: N_23  and  C_27
REMARK                            x       y       z     vdW  Elec       q    Type
REMARK                         _______ _______ _______ _____ _____    ______ ____
ROOT
ATOM      1  C   UNL     1      -2.277  -0.031   0.618  0.00  0.00    +0.196 C 
ENDROOT
BRANCH   1   2
ATOM      2  C   UNL     1      -1.823  -1.298  -0.105  0.00  0.00    +0.039 C 
ATOM      3  C   UNL     1      -2.798  -1.656  -1.234  0.00  0.00    +0.003 C 
ATOM      4  C   UNL     1      -1.678  -2.463   0.883  0.00  0.00    +0.003 C 
ATOM      5  C   UNL     1      -2.394  -2.949  -1.939  0.00  0.00    +0.000 C 
ATOM      6  C   UNL     1      -1.276  -3.755   0.175  0.00  0.00    +0.000 C 
ATOM      7  C   UNL     1      -2.243  -4.104  -0.953  0.00  0.00    +0.000 C 
ENDBRANCH   1   2
BRANCH   1   8
ATOM      8  C   UNL     1      -2.426   1.224  -0.236  0.00  0.00    +0.012 C 
ATOM      9  C   UNL     1      -3.436   2.113   0.062  0.00  0.00    -0.002 C 
ATOM     10  C   UNL     1      -1.546   1.426  -1.277  0.00  0.00    -0.002 C 
ATOM     11  C   UNL     1      -3.572   3.261  -0.719  0.00  0.00    -0.000 C 
ATOM     12  C   UNL     1      -1.682   2.574  -2.058  0.00  0.00    -0.000 C 
ATOM     13  C   UNL     1      -2.695   3.491  -1.779  0.00  0.00    -0.000 C 
ENDBRANCH   1   8
BRANCH   1  14
ATOM     14  O   UNL     1      -3.573  -0.311   1.164  0.00  0.00    -0.373 OA
ATOM     15  H   UNL     1      -4.198  -0.481   0.442  0.00  0.00    +0.211 HD
ENDBRANCH   1  14
BRANCH   1  17
ATOM     16  O   UNL     1      -1.671   0.116   2.979  0.00  0.00    -0.247 OA
ATOM     17  C   UNL     1      -1.343   0.228   1.803  0.00  0.00    +0.346 C 
BRANCH  17  18
ATOM     18  O   UNL     1      -0.108   0.605   1.357  0.00  0.00    -0.432 OA
BRANCH  18  19
ATOM     19  C   UNL     1       0.858   0.885   2.375  0.00  0.00    +0.284 C 
BRANCH  19  20
ATOM     20  C   UNL     1       2.199   0.576   1.881  0.00  0.00    -0.046 C 
ATOM     21  C   UNL     1       3.301   0.323   1.476  0.00  0.00    -0.111 C 
BRANCH  21  22
ATOM     22  C   UNL     1       4.648   0.013   0.987  0.00  0.00    +0.002 C 
BRANCH  22  23
ATOM     23  N   UNL     1       4.728   0.179  -0.458  0.00  0.00    +0.395 N 
ATOM     24  H   UNL     1       4.480   1.144  -0.681  0.00  0.00    -0.078 HD
BRANCH  23  25
ATOM     25  C   UNL     1       3.782  -0.712  -1.133  0.00  0.00    -0.076 C 
ATOM     26  C   UNL     1       3.855  -0.549  -2.642  0.00  0.00    -0.025 C 
ENDBRANCH  23  25
BRANCH  23  27
ATOM     27  C   UNL     1       6.090  -0.073  -0.933  0.00  0.00    -0.076 C 
ATOM     28  C   UNL     1       7.080   0.886  -0.295  0.00  0.00    -0.025 C 
ENDBRANCH  23  27
ENDBRANCH  22  23
ENDBRANCH  21  22
ENDBRANCH  19  20
ENDBRANCH  18  19
ENDBRANCH  17  18
ENDBRANCH   1  17
TORSDOF 11
