REMARK  Name = 32938
REMARK  6 active torsions:
REMARK  status: ('A' for Active; 'I' for Inactive)
REMARK    1  A    between atoms: C_2  and  C_9
REMARK    2  A    between atoms: C_2  and  O_15
REMARK    3  A    between atoms: C_3  and  C_20
REMARK    4  A    between atoms: O_15  and  C_17
REMARK    5  A    between atoms: C_17  and  C_18
REMARK    6  A    between atoms: C_20  and  C_21
REMARK                            x       y       z     vdW  Elec       q    Type
REMARK                         _______ _______ _______ _____ _____    ______ ____
ROOT
ATOM      1  N   UNL     1      -2.708   1.342  -0.548  0.00  0.00    +0.386 N 
ATOM      2  C   UNL     1      -0.060   0.122  -0.006  0.00  0.00    +0.151 C 
ATOM      3  C   UNL     1      -1.365  -0.345   0.715  0.00  0.00    +0.024 C 
ATOM      4  C   UNL     1      -0.436   0.769  -1.360  0.00  0.00    +0.022 C 
ATOM      5  C   UNL     1      -2.388   0.813   0.784  0.00  0.00    -0.073 C 
ATOM      6  C   UNL     1      -1.506   1.860  -1.210  0.00  0.00    -0.074 C 
ATOM      7  C   UNL     1      -3.730   2.385  -0.454  0.00  0.00    -0.101 C 
ATOM      8  H   UNL     1      -3.077   0.577  -1.113  0.00  0.00    -0.080 HD
ENDROOT
BRANCH   2   9
ATOM      9  C   UNL     1       0.999  -0.977  -0.089  0.00  0.00    +0.013 C 
ATOM     10  C   UNL     1       1.546  -1.324  -1.323  0.00  0.00    -0.001 C 
ATOM     11  C   UNL     1       1.416  -1.630   1.069  0.00  0.00    -0.001 C 
ATOM     12  C   UNL     1       2.512  -2.328  -1.399  0.00  0.00    -0.000 C 
ATOM     13  C   UNL     1       2.382  -2.634   0.994  0.00  0.00    -0.000 C 
ATOM     14  C   UNL     1       2.930  -2.982  -0.240  0.00  0.00    -0.000 C 
ENDBRANCH   2   9
BRANCH   2  15
ATOM     15  O   UNL     1       0.545   1.186   0.758  0.00  0.00    -0.452 OA
BRANCH  15  17
ATOM     16  O   UNL     1       2.219   1.373  -0.819  0.00  0.00    -0.250 OA
ATOM     17  C   UNL     1       1.686   1.718   0.226  0.00  0.00    +0.317 C 
BRANCH  17  18
ATOM     18  C   UNL     1       2.188   2.811   1.140  0.00  0.00    +0.110 C 
ATOM     19  C   UNL     1       3.470   3.443   0.625  0.00  0.00    +0.012 C 
ENDBRANCH  17  18
ENDBRANCH  15  17
ENDBRANCH   2  15
BRANCH   3  20
ATOM     20  C   UNL     1      -2.005  -1.585   0.071  0.00  0.00    +0.028 C 
BRANCH  20  21
ATOM     21  C   UNL     1      -3.238  -1.990   0.810  0.00  0.00    -0.026 C 
ATOM     22  C   UNL     1      -4.456  -2.026   0.258  0.00  0.00    -0.005 C 
ENDBRANCH  20  21
ENDBRANCH   3  20
TORSDOF 6
