REMARK  Name = 6009
REMARK  2 active torsions:
REMARK  status: ('A' for Active; 'I' for Inactive)
REMARK    1  A    between atoms: N_3  and  C_9
REMARK    2  A    between atoms: C_5  and  N_15
REMARK                            x       y       z     vdW  Elec       q    Type
REMARK                         _______ _______ _______ _____ _____    ______ ____
ROOT
ATOM      1  O   UNL     1       0.635  -2.009   0.333  0.00  0.00    -0.264 OA
ATOM      2  N   UNL     1       0.325   1.432   0.041  0.00  0.00    -0.265 N 
ATOM      3  N   UNL     1      -0.284   0.180   0.214  0.00  0.00    -0.213 N 
ATOM      4  C   UNL     1       1.681   1.203  -0.179  0.00  0.00    +0.073 A 
ATOM      5  C   UNL     1       2.005  -0.095  -0.079  0.00  0.00    +0.120 A 
ATOM      6  C   UNL     1       0.717  -0.796   0.214  0.00  0.00    +0.293 A 
ATOM      7  C   UNL     1       2.622   2.331  -0.442  0.00  0.00    +0.053 C 
ATOM      8  C   UNL     1      -0.122   2.544   0.874  0.00  0.00    +0.152 C 
ENDROOT
BRANCH   3   9
ATOM      9  C   UNL     1      -1.677  -0.037   0.066  0.00  0.00    +0.084 C 
ATOM     10  C   UNL     1      -2.255  -1.231   0.510  0.00  0.00    +0.019 C 
ATOM     11  C   UNL     1      -2.484   0.941  -0.525  0.00  0.00    +0.019 C 
ATOM     12  C   UNL     1      -3.626  -1.444   0.364  0.00  0.00    +0.002 C 
ATOM     13  C   UNL     1      -3.855   0.727  -0.670  0.00  0.00    +0.002 C 
ATOM     14  C   UNL     1      -4.426  -0.466  -0.225  0.00  0.00    +0.000 C 
ENDBRANCH   3   9
BRANCH   5  15
ATOM     15  N   UNL     1       3.163  -0.779  -0.185  0.00  0.00    -0.299 N 
ATOM     16  C   UNL     1       4.302  -0.517   0.699  0.00  0.00    +0.112 C 
ATOM     17  C   UNL     1       3.279  -1.985  -1.010  0.00  0.00    +0.112 C 
ENDBRANCH   5  15
TORSDOF 2
