REMARK  Name = 449159
REMARK  6 active torsions:
REMARK  status: ('A' for Active; 'I' for Inactive)
REMARK    1  A    between atoms: C_2  and  C_19
REMARK    2  A    between atoms: C_13  and  O_15
REMARK    3  A    between atoms: C_14  and  O_17
REMARK    4  A    between atoms: C_19  and  C_20
REMARK    5  A    between atoms: C_20  and  C_22
REMARK    6  A    between atoms: C_22  and  O_23
REMARK                            x       y       z     vdW  Elec       q    Type
REMARK                         _______ _______ _______ _____ _____    ______ ____
ROOT
ATOM      1  O   UNL     1       0.038   2.149   0.258  0.00  0.00    -0.454 OA
ATOM      2  C   UNL     1       0.007  -0.331  -1.287  0.00  0.00    -0.019 C 
ATOM      3  C   UNL     1      -1.235   0.303  -0.707  0.00  0.00    +0.013 C 
ATOM      4  C   UNL     1       1.263   0.267  -0.699  0.00  0.00    +0.031 C 
ATOM      5  C   UNL     1      -1.150   1.503   0.008  0.00  0.00    +0.144 C 
ATOM      6  C   UNL     1       1.208   1.468   0.016  0.00  0.00    +0.148 C 
ATOM      7  C   UNL     1      -2.494  -0.289  -0.888  0.00  0.00    +0.058 C 
ATOM      8  C   UNL     1       2.504  -0.362  -0.872  0.00  0.00    +0.006 C 
ATOM      9  C   UNL     1      -2.302   2.112   0.513  0.00  0.00    +0.073 C 
ATOM     10  C   UNL     1       2.374   2.044   0.528  0.00  0.00    +0.074 C 
ATOM     11  C   UNL     1      -3.643   0.315  -0.377  0.00  0.00    +0.015 C 
ATOM     12  C   UNL     1       3.667   0.208  -0.353  0.00  0.00    +0.037 C 
ATOM     13  C   UNL     1      -3.547   1.517   0.321  0.00  0.00    +0.133 C 
ATOM     14  C   UNL     1       3.603   1.412   0.344  0.00  0.00    +0.137 C 
ENDROOT
BRANCH  13  15
ATOM     15  O   UNL     1      -4.668   2.108   0.817  0.00  0.00    -0.506 OA
ATOM     16  H   UNL     1      -4.604   2.916   1.286  0.00  0.00    +0.292 HD
ENDBRANCH  13  15
BRANCH  14  17
ATOM     17  O   UNL     1       4.738   1.970   0.846  0.00  0.00    -0.505 OA
ATOM     18  H   UNL     1       4.693   2.781   1.315  0.00  0.00    +0.292 HD
ENDBRANCH  14  17
BRANCH   2  19
ATOM     19  C   UNL     1      -0.017  -1.850  -1.071  0.00  0.00    +0.038 C 
BRANCH  19  20
ATOM     20  C   UNL     1      -0.060  -2.223   0.401  0.00  0.00    +0.114 C 
BRANCH  20  22
ATOM     21  O   UNL     1       0.019  -4.531  -0.306  0.00  0.00    -0.250 OA
ATOM     22  C   UNL     1      -0.088  -3.718   0.603  0.00  0.00    +0.314 C 
BRANCH  22  23
ATOM     23  O   UNL     1      -0.218  -4.072   1.905  0.00  0.00    -0.480 OA
ATOM     24  H   UNL     1      -0.297  -3.411   2.565  0.00  0.00    +0.295 HD
ENDBRANCH  22  23
ENDBRANCH  20  22
ENDBRANCH  19  20
ENDBRANCH   2  19
TORSDOF 6
