REMARK  Name = 5287438
REMARK  11 active torsions:
REMARK  status: ('A' for Active; 'I' for Inactive)
REMARK    1  A    between atoms: C_1  and  C_4
REMARK    2  A    between atoms: C_1  and  N_15
REMARK    3  A    between atoms: C_1  and  C_26
REMARK    4  A    between atoms: N_3  and  C_6
REMARK    5  A    between atoms: C_6  and  C_8
REMARK    6  A    between atoms: C_9  and  C_11
REMARK    7  A    between atoms: C_11  and  C_13
REMARK    8  A    between atoms: C_16  and  O_18
REMARK    9  A    between atoms: O_18  and  C_19
REMARK   10  A    between atoms: C_19  and  C_20
REMARK   11  A    between atoms: C_26  and  C_27
REMARK                            x       y       z     vdW  Elec       q    Type
REMARK                         _______ _______ _______ _____ _____    ______ ____
ROOT
ATOM      1  C   UNL     1      -0.321  -1.228  -0.626  0.00  0.00    +0.155 C 
ENDROOT
BRANCH   1   4
ATOM      2  O   UNL     1      -0.931   0.249  -2.449  0.00  0.00    -0.273 OA
ATOM      3  N   UNL     1      -2.585  -0.452  -0.977  0.00  0.00    -0.301 N 
ATOM      4  C   UNL     1      -1.282  -0.381  -1.453  0.00  0.00    +0.241 C 
ATOM      5  H   UNL     1      -2.758  -0.987  -0.168  0.00  0.00    +0.150 HD
BRANCH   3   6
ATOM      6  C   UNL     1      -3.698   0.216  -1.605  0.00  0.00    +0.094 C 
ATOM      7  C   UNL     1      -4.325  -0.666  -2.678  0.00  0.00    +0.026 C 
BRANCH   6   8
ATOM      8  C   UNL     1      -4.693   0.567  -0.535  0.00  0.00    -0.004 C 
ATOM      9  C   UNL     1      -5.020   1.828  -0.223  0.00  0.00    +0.043 C 
BRANCH   9  11
ATOM     10  O   UNL     1      -6.599   1.252   1.497  0.00  0.00    -0.283 OA
ATOM     11  C   UNL     1      -6.011   2.095   0.841  0.00  0.00    +0.237 C 
BRANCH  11  13
ATOM     12  O   UNL     1      -6.095   3.998   2.218  0.00  0.00    -0.280 OA
ATOM     13  C   UNL     1      -6.303   3.539   1.108  0.00  0.00    +0.276 C 
ENDBRANCH  11  13
ENDBRANCH   9  11
ENDBRANCH   6   8
ENDBRANCH   3   6
ENDBRANCH   1   4
BRANCH   1  15
ATOM     14  O   UNL     1       0.604   0.856   1.173  0.00  0.00    -0.226 OA
ATOM     15  N   UNL     1       0.954  -0.557  -0.634  0.00  0.00    -0.264 N 
ATOM     16  C   UNL     1       1.310   0.428   0.266  0.00  0.00    +0.402 C 
ATOM     17  H   UNL     1       1.610  -0.817  -1.321  0.00  0.00    +0.153 HD
BRANCH  16  18
ATOM     18  O   UNL     1       2.577   0.864  -0.003  0.00  0.00    -0.430 OA
BRANCH  18  19
ATOM     19  C   UNL     1       3.079   1.893   0.859  0.00  0.00    +0.237 C 
BRANCH  19  20
ATOM     20  C   UNL     1       4.471   2.254   0.430  0.00  0.00    +0.021 C 
ATOM     21  C   UNL     1       5.565   1.580   0.975  0.00  0.00    -0.001 C 
ATOM     22  C   UNL     1       4.672   3.262  -0.512  0.00  0.00    -0.001 C 
ATOM     23  C   UNL     1       6.859   1.916   0.577  0.00  0.00    -0.000 C 
ATOM     24  C   UNL     1       5.966   3.597  -0.910  0.00  0.00    -0.000 C 
ATOM     25  C   UNL     1       7.060   2.924  -0.365  0.00  0.00    -0.000 C 
ENDBRANCH  19  20
ENDBRANCH  18  19
ENDBRANCH  16  18
ENDBRANCH   1  15
BRANCH   1  26
ATOM     26  C   UNL     1      -0.233  -2.647  -1.200  0.00  0.00    +0.055 C 
BRANCH  26  27
ATOM     27  C   UNL     1       0.319  -3.644  -0.210  0.00  0.00    -0.020 C 
ATOM     28  C   UNL     1       1.693  -3.875  -0.146  0.00  0.00    -0.004 C 
ATOM     29  C   UNL     1      -0.544  -4.333   0.640  0.00  0.00    -0.004 C 
ATOM     30  C   UNL     1       2.204  -4.796   0.768  0.00  0.00    -0.000 C 
ATOM     31  C   UNL     1      -0.034  -5.254   1.555  0.00  0.00    -0.000 C 
ATOM     32  C   UNL     1       1.340  -5.485   1.619  0.00  0.00    -0.000 C 
ENDBRANCH  26  27
ENDBRANCH   1  26
TORSDOF 11
