REMARK  Name = 60700
REMARK  5 active torsions:
REMARK  status: ('A' for Active; 'I' for Inactive)
REMARK    1  A    between atoms: C_6  and  O_24
REMARK    2  A    between atoms: C_6  and  C_28
REMARK    3  A    between atoms: C_20  and  C_30
REMARK    4  A    between atoms: C_22  and  O_26
REMARK    5  A    between atoms: C_30  and  N_31
REMARK                            x       y       z     vdW  Elec       q    Type
REMARK                         _______ _______ _______ _____ _____    ______ ____
ROOT
ATOM      1  O   UNL     1      -5.899  -1.073   0.481  0.00  0.00    -0.442 OA
ATOM      2  O   UNL     1      -2.485  -3.381  -0.482  0.00  0.00    -0.270 OA
ATOM      3  O   UNL     1      -6.590   0.823   1.464  0.00  0.00    -0.247 OA
ATOM      4  N   UNL     1      -1.111  -1.531  -0.287  0.00  0.00    -0.249 N 
ATOM      5  N   UNL     1       1.007   1.365  -0.031  0.00  0.00    -0.405 NA
ATOM      6  C   UNL     1      -4.549   0.959   0.182  0.00  0.00    +0.196 C 
ATOM      7  C   UNL     1      -3.352   0.059   0.040  0.00  0.00    +0.017 C 
ATOM      8  C   UNL     1      -0.964  -0.164  -0.118  0.00  0.00    +0.084 C 
ATOM      9  C   UNL     1       0.201  -2.192  -0.442  0.00  0.00    +0.128 C 
ATOM     10  C   UNL     1      -3.524  -1.263  -0.138  0.00  0.00    +0.074 C 
ATOM     11  C   UNL     1       1.147  -1.040  -0.345  0.00  0.00    +0.029 C 
ATOM     12  C   UNL     1       0.458   0.149  -0.156  0.00  0.00    +0.142 C 
ATOM     13  C   UNL     1      -2.018   0.640   0.039  0.00  0.00    +0.016 C 
ATOM     14  C   UNL     1      -2.336  -2.173  -0.318  0.00  0.00    +0.252 C 
ATOM     15  C   UNL     1      -4.886  -1.866  -0.177  0.00  0.00    +0.239 C 
ATOM     16  C   UNL     1      -5.753   0.239   0.778  0.00  0.00    +0.346 C 
ATOM     17  C   UNL     1       2.519  -0.998  -0.415  0.00  0.00    +0.002 C 
ATOM     18  C   UNL     1       3.152   0.250  -0.290  0.00  0.00    +0.022 C 
ATOM     19  C   UNL     1       2.353   1.413  -0.099  0.00  0.00    +0.113 C 
ATOM     20  C   UNL     1       4.550   0.359  -0.352  0.00  0.00    -0.008 C 
ATOM     21  C   UNL     1       3.002   2.638   0.022  0.00  0.00    +0.088 C 
ATOM     22  C   UNL     1       5.168   1.600  -0.228  0.00  0.00    +0.124 C 
ATOM     23  C   UNL     1       4.394   2.739  -0.041  0.00  0.00    +0.018 C 
ENDROOT
BRANCH   6  24
ATOM     24  O   UNL     1      -4.259   2.004   1.114  0.00  0.00    -0.373 OA
ATOM     25  H   UNL     1      -3.495   2.514   0.801  0.00  0.00    +0.211 HD
ENDBRANCH   6  24
BRANCH  22  26
ATOM     26  O   UNL     1       6.524   1.721  -0.286  0.00  0.00    -0.506 OA
ATOM     27  H   UNL     1       7.057   0.961  -0.412  0.00  0.00    +0.292 HD
ENDBRANCH  22  26
BRANCH   6  28
ATOM     28  C   UNL     1      -4.947   1.585  -1.156  0.00  0.00    +0.042 C 
ATOM     29  C   UNL     1      -6.133   2.515  -0.997  0.00  0.00    +0.003 C 
ENDBRANCH   6  28
BRANCH  20  30
ATOM     30  C   UNL     1       5.420  -0.846  -0.553  0.00  0.00    -0.047 C 
BRANCH  30  31
ATOM     31  N   UNL     1       5.788  -1.426   0.717  0.00  0.00    +0.387 N 
ATOM     32  C   UNL     1       6.529  -0.465   1.544  0.00  0.00    -0.100 C 
ATOM     33  C   UNL     1       6.591  -2.642   0.531  0.00  0.00    -0.100 C 
ATOM     34  H   UNL     1       4.924  -1.675   1.198  0.00  0.00    -0.079 HD
ENDBRANCH  30  31
ENDBRANCH  20  30
TORSDOF 5
