REMARK  Name = 2526
REMARK  8 active torsions:
REMARK  status: ('A' for Active; 'I' for Inactive)
REMARK    1  A    between atoms: O_1  and  P_2
REMARK    2  A    between atoms: O_1  and  C_8
REMARK    3  A    between atoms: P_2  and  O_4
REMARK    4  A    between atoms: P_2  and  O_6
REMARK    5  A    between atoms: C_8  and  C_9
REMARK    6  A    between atoms: C_8  and  C_12
REMARK    7  A    between atoms: C_9  and  O_10
REMARK    8  A    between atoms: C_12  and  O_13
REMARK                            x       y       z     vdW  Elec       q    Type
REMARK                         _______ _______ _______ _____ _____    ______ ____
ROOT
ATOM      1  O   UNL     1       0.250  -0.626  -0.386  0.00  0.00    -0.271 OA
ENDROOT
BRANCH   1   2
ATOM      2  P   UNL     1       1.668   0.055  -0.029  0.00  0.00    +0.473 P 
ATOM      3  O   UNL     1       1.808   1.492  -0.441  0.00  0.00    -0.227 OA
BRANCH   2   4
ATOM      4  O   UNL     1       2.755  -0.956  -0.669  0.00  0.00    -0.303 OA
ATOM      5  H   UNL     1       2.587  -1.856  -0.348  0.00  0.00    +0.222 HD
ENDBRANCH   2   4
BRANCH   2   6
ATOM      6  O   UNL     1       1.797  -0.216   1.560  0.00  0.00    -0.303 OA
ATOM      7  H   UNL     1       1.694  -1.164   1.735  0.00  0.00    +0.222 HD
ENDBRANCH   2   6
ENDBRANCH   1   2
BRANCH   1   8
ATOM      8  C   UNL     1      -0.933  -0.052   0.176  0.00  0.00    +0.184 C 
BRANCH   8   9
ATOM      9  C   UNL     1      -2.126  -0.868  -0.306  0.00  0.00    +0.170 C 
BRANCH   9  10
ATOM     10  O   UNL     1      -1.964  -2.217   0.117  0.00  0.00    -0.379 OA
ATOM     11  H   UNL     1      -2.720  -2.744  -0.187  0.00  0.00    +0.211 HD
ENDBRANCH   9  10
ENDBRANCH   8   9
BRANCH   8  12
ATOM     12  C   UNL     1      -1.033   1.401  -0.272  0.00  0.00    +0.170 C 
BRANCH  12  13
ATOM     13  O   UNL     1      -2.221   1.987   0.251  0.00  0.00    -0.379 OA
ATOM     14  H   UNL     1      -2.280   2.911  -0.038  0.00  0.00    +0.211 HD
ENDBRANCH  12  13
ENDBRANCH   8  12
ENDBRANCH   1   8
TORSDOF 8
