REMARK  Name = 9700
REMARK  7 active torsions:
REMARK  status: ('A' for Active; 'I' for Inactive)
REMARK    1  A    between atoms: C_2  and  O_16
REMARK    2  A    between atoms: C_3  and  C_18
REMARK    3  A    between atoms: C_5  and  N_8
REMARK    4  A    between atoms: C_18  and  O_19
REMARK    5  A    between atoms: O_19  and  P_20
REMARK    6  A    between atoms: P_20  and  O_22
REMARK    7  A    between atoms: P_20  and  O_24
REMARK                            x       y       z     vdW  Elec       q    Type
REMARK                         _______ _______ _______ _____ _____    ______ ____
ROOT
ATOM      1  O   UNL     1      -0.439   1.340   1.020  0.00  0.00    -0.335 OA
ATOM      2  C   UNL     1      -1.010   2.874  -0.695  0.00  0.00    +0.144 C 
ATOM      3  C   UNL     1      -1.570   1.866   0.299  0.00  0.00    +0.174 C 
ATOM      4  C   UNL     1       0.373   2.338  -0.983  0.00  0.00    +0.083 C 
ATOM      5  C   UNL     1       0.770   1.720   0.348  0.00  0.00    +0.202 C 
ENDROOT
BRANCH   5   8
ATOM      6  O   UNL     1       3.617   1.747   0.391  0.00  0.00    -0.252 OA
ATOM      7  O   UNL     1       3.838  -2.802  -0.245  0.00  0.00    -0.270 OA
ATOM      8  N   UNL     1       1.611   0.568   0.197  0.00  0.00    -0.219 N 
ATOM      9  N   UNL     1       3.713  -0.522   0.073  0.00  0.00    -0.236 N 
ATOM     10  C   UNL     1       1.011  -0.671   0.015  0.00  0.00    +0.071 C 
ATOM     11  C   UNL     1       3.018   0.682   0.232  0.00  0.00    +0.315 C 
ATOM     12  C   UNL     1       1.679  -1.821  -0.138  0.00  0.00    +0.047 C 
ATOM     13  C   UNL     1       3.166  -1.783  -0.112  0.00  0.00    +0.250 C 
ATOM     14  C   UNL     1       1.013  -3.145  -0.334  0.00  0.00    +0.037 C 
ATOM     15  H   UNL     1       4.696  -0.469   0.093  0.00  0.00    +0.159 HD
ENDBRANCH   5   8
BRANCH   2  16
ATOM     16  O   UNL     1      -0.910   4.157  -0.081  0.00  0.00    -0.382 OA
ATOM     17  H   UNL     1      -1.800   4.498   0.102  0.00  0.00    +0.210 HD
ENDBRANCH   2  16
BRANCH   3  18
ATOM     18  C   UNL     1      -2.280   0.699  -0.375  0.00  0.00    +0.186 C 
BRANCH  18  19
ATOM     19  O   UNL     1      -2.755  -0.187   0.625  0.00  0.00    -0.271 OA
BRANCH  19  20
ATOM     20  P   UNL     1      -3.551  -1.518   0.160  0.00  0.00    +0.473 P 
ATOM     21  O   UNL     1      -4.020  -2.400   1.280  0.00  0.00    -0.227 OA
BRANCH  20  22
ATOM     22  O   UNL     1      -2.547  -2.216  -0.898  0.00  0.00    -0.303 OA
ATOM     23  H   UNL     1      -2.300  -1.574  -1.581  0.00  0.00    +0.222 HD
ENDBRANCH  20  22
BRANCH  20  24
ATOM     24  O   UNL     1      -4.727  -0.924  -0.779  0.00  0.00    -0.303 OA
ATOM     25  H   UNL     1      -4.337  -0.368  -1.472  0.00  0.00    +0.222 HD
ENDBRANCH  20  24
ENDBRANCH  19  20
ENDBRANCH  18  19
ENDBRANCH   3  18
TORSDOF 7
