REMARK  Name = 5287580
REMARK  4 active torsions:
REMARK  status: ('A' for Active; 'I' for Inactive)
REMARK    1  A    between atoms: CA_1  and  N_2
REMARK    2  A    between atoms: CA_1  and  C_7
REMARK    3  A    between atoms: CA_1  and  C_10
REMARK    4  A    between atoms: C_7  and  O_8
REMARK                            x       y       z     vdW  Elec       q    Type
REMARK                         _______ _______ _______ _____ _____    ______ ____
ROOT
ATOM      1  CA  UNL     1       0.265   0.383   0.448  0.00  0.00    +0.059 C 
ENDROOT
BRANCH   1   2
ATOM      2  N   UNL     1       0.101   1.836   0.425  0.00  0.00    +0.391 N 
ATOM      3  H1  UNL     1       0.964   2.281   0.739  0.00  0.00    -0.088 HD
ATOM      4  H2  UNL     1      -0.664   2.102   1.045  0.00  0.00    -0.088 HD
ATOM      5  H3  UNL     1      -0.111   2.139  -0.526  0.00  0.00    -0.088 HD
ENDBRANCH   1   2
BRANCH   1   7
ATOM      6  OXT UNL     1      -1.795   0.251  -0.853  0.00  0.00    -0.252 OA
ATOM      7  C   UNL     1      -1.036  -0.237  -0.025  0.00  0.00    +0.297 C 
BRANCH   7   8
ATOM      8  O   UNL     1      -1.301  -1.412   0.607  0.00  0.00    -0.481 OA
ATOM      9  H   UNL     1      -0.695  -1.754   1.235  0.00  0.00    +0.295 HD
ENDBRANCH   7   8
ENDBRANCH   1   7
BRANCH   1  10
ATOM     10  C   UNL     1       1.344  -0.063  -0.493  0.00  0.00    -0.038 C 
ATOM     11  C   UNL     1       2.422  -0.758  -0.110  0.00  0.00    -0.007 C 
ENDBRANCH   1  10
TORSDOF 4
