REMARK  Name = 5351
REMARK  10 active torsions:
REMARK  status: ('A' for Active; 'I' for Inactive)
REMARK    1  A    between atoms: S_1  and  C_4
REMARK    2  A    between atoms: S_1  and  C_17
REMARK    3  A    between atoms: C_7  and  N_10
REMARK    4  A    between atoms: N_10  and  C_12
REMARK    5  A    between atoms: C_12  and  S_13
REMARK    6  A    between atoms: S_13  and  O_15
REMARK    7  A    between atoms: C_20  and  N_23
REMARK    8  A    between atoms: N_23  and  C_25
REMARK    9  A    between atoms: C_25  and  S_26
REMARK   10  A    between atoms: S_26  and  O_28
REMARK                            x       y       z     vdW  Elec       q    Type
REMARK                         _______ _______ _______ _____ _____    ______ ____
ROOT
ATOM      1  S   UNL     1      -0.001   2.746   0.001  0.00  0.00    +0.027 S 
ATOM      2  O   UNL     1      -0.173   3.478  -1.246  0.00  0.00    -0.164 OA
ATOM      3  O   UNL     1       0.211   3.476   1.244  0.00  0.00    -0.164 OA
ENDROOT
BRANCH   1   4
ATOM      4  C   UNL     1       1.426   1.710  -0.172  0.00  0.00    +0.110 C 
ATOM      5  C   UNL     1       2.112   1.317   0.962  0.00  0.00    +0.020 C 
ATOM      6  C   UNL     1       1.822   1.318  -1.437  0.00  0.00    +0.020 C 
ATOM      7  C   UNL     1       3.652   0.094  -0.442  0.00  0.00    +0.046 C 
ATOM      8  C   UNL     1       3.235   0.502   0.826  0.00  0.00    +0.016 C 
ATOM      9  C   UNL     1       2.945   0.503  -1.573  0.00  0.00    +0.016 C 
BRANCH   7  10
ATOM     10  N   UNL     1       4.787  -0.731  -0.579  0.00  0.00    -0.314 N 
ATOM     11  H   UNL     1       5.066  -1.009  -1.482  0.00  0.00    +0.148 HD
BRANCH  10  12
ATOM     12  C   UNL     1       5.549  -1.180   0.548  0.00  0.00    +0.235 C 
BRANCH  12  13
ATOM     13  S   UNL     1       6.865  -2.247  -0.112  0.00  0.00    -0.033 S 
ATOM     14  O   UNL     1       6.214  -3.391  -0.832  0.00  0.00    -0.079 OA
BRANCH  13  15
ATOM     15  O   UNL     1       7.288  -2.772   1.349  0.00  0.00    -0.277 OA
ATOM     16  H   UNL     1       8.023  -3.399   1.267  0.00  0.00    +0.242 HD
ENDBRANCH  13  15
ENDBRANCH  12  13
ENDBRANCH  10  12
ENDBRANCH   7  10
ENDBRANCH   1   4
BRANCH   1  17
ATOM     17  C   UNL     1      -1.408   1.727   0.171  0.00  0.00    +0.110 C 
ATOM     18  C   UNL     1      -2.115   1.320  -0.961  0.00  0.00    +0.020 C 
ATOM     19  C   UNL     1      -1.825   1.319   1.438  0.00  0.00    +0.020 C 
ATOM     20  C   UNL     1      -3.657   0.097   0.442  0.00  0.00    +0.046 C 
ATOM     21  C   UNL     1      -3.240   0.505  -0.825  0.00  0.00    +0.016 C 
ATOM     22  C   UNL     1      -2.950   0.504   1.573  0.00  0.00    +0.016 C 
BRANCH  20  23
ATOM     23  N   UNL     1      -4.793  -0.728   0.580  0.00  0.00    -0.314 N 
ATOM     24  H   UNL     1      -5.072  -1.005   1.482  0.00  0.00    +0.148 HD
BRANCH  23  25
ATOM     25  C   UNL     1      -5.555  -1.175  -0.548  0.00  0.00    +0.235 C 
BRANCH  25  26
ATOM     26  S   UNL     1      -6.872  -2.241   0.111  0.00  0.00    -0.033 S 
ATOM     27  O   UNL     1      -6.222  -3.386   0.830  0.00  0.00    -0.079 OA
BRANCH  26  28
ATOM     28  O   UNL     1      -7.295  -2.765  -1.350  0.00  0.00    -0.277 OA
ATOM     29  H   UNL     1      -8.031  -3.392  -1.268  0.00  0.00    +0.242 HD
ENDBRANCH  26  28
ENDBRANCH  25  26
ENDBRANCH  23  25
ENDBRANCH  20  23
ENDBRANCH   1  17
TORSDOF 10
