REMARK  Name = 43008
REMARK  6 active torsions:
REMARK  status: ('A' for Active; 'I' for Inactive)
REMARK    1  A    between atoms: N_2  and  C_17
REMARK    2  A    between atoms: C_3  and  C_8
REMARK    3  A    between atoms: C_9  and  O_15
REMARK    4  A    between atoms: C_17  and  C_19
REMARK    5  A    between atoms: N_18  and  C_24
REMARK    6  A    between atoms: C_24  and  C_25
REMARK                            x       y       z     vdW  Elec       q    Type
REMARK                         _______ _______ _______ _____ _____    ______ ____
ROOT
ATOM      1  O   UNL     1      -0.012  -1.982  -0.272  0.00  0.00    -0.270 OA
ATOM      2  N   UNL     1      -0.474  -0.048   0.925  0.00  0.00    -0.303 N 
ATOM      3  C   UNL     1       0.355  -0.917   0.219  0.00  0.00    +0.245 C 
ATOM      4  H   UNL     1      -0.088   0.784   1.283  0.00  0.00    +0.150 HD
ENDROOT
BRANCH   3   8
ATOM      5  N   UNL     1       5.176  -1.798  -0.221  0.00  0.00    -0.159 NA
ATOM      6  N   UNL     1       5.712   0.444  -0.261  0.00  0.00    -0.158 NA
ATOM      7  N   UNL     1       6.097  -0.834  -0.300  0.00  0.00    -0.196 N 
ATOM      8  C   UNL     1       1.778  -0.512   0.092  0.00  0.00    +0.067 C 
ATOM      9  C   UNL     1       2.083   0.863   0.070  0.00  0.00    +0.123 C 
ATOM     10  C   UNL     1       2.710  -1.546   0.004  0.00  0.00    +0.083 C 
ATOM     11  C   UNL     1       4.037  -1.094  -0.115  0.00  0.00    +0.100 A 
ATOM     12  C   UNL     1       3.400   1.342  -0.047  0.00  0.00    +0.112 C 
ATOM     13  C   UNL     1       4.379   0.336  -0.140  0.00  0.00    +0.103 A 
ATOM     14  H   UNL     1       7.051  -1.063  -0.387  0.00  0.00    +0.213 HD
BRANCH   9  15
ATOM     15  O   UNL     1       1.079   1.793   0.163  0.00  0.00    -0.475 OA
ATOM     16  C   UNL     1       1.470   3.160   0.133  0.00  0.00    +0.252 C 
ENDBRANCH   9  15
ENDBRANCH   3   8
BRANCH   2  17
ATOM     17  C   UNL     1      -1.863  -0.313   1.153  0.00  0.00    +0.069 C 
BRANCH  17  19
ATOM     18  N   UNL     1      -4.165   0.101   0.265  0.00  0.00    +0.392 N 
ATOM     19  C   UNL     1      -2.723   0.257   0.031  0.00  0.00    -0.038 C 
ATOM     20  C   UNL     1      -2.563   1.774  -0.092  0.00  0.00    -0.021 C 
ATOM     21  C   UNL     1      -3.928   2.288  -0.536  0.00  0.00    -0.025 C 
ATOM     22  C   UNL     1      -4.800   1.049  -0.654  0.00  0.00    -0.077 C 
ATOM     23  H   UNL     1      -4.395   0.288   1.241  0.00  0.00    -0.079 HD
BRANCH  18  24
ATOM     24  C   UNL     1      -4.642  -1.258   0.043  0.00  0.00    -0.050 C 
BRANCH  24  25
ATOM     25  C   UNL     1      -6.122  -1.364   0.246  0.00  0.00    -0.049 C 
ATOM     26  C   UNL     1      -6.984  -1.741  -0.706  0.00  0.00    -0.007 C 
ENDBRANCH  24  25
ENDBRANCH  18  24
ENDBRANCH  17  19
ENDBRANCH   2  17
TORSDOF 6
