REMARK  Name = 2801
REMARK  4 active torsions:
REMARK  status: ('A' for Active; 'I' for Inactive)
REMARK    1  A    between atoms: N_2  and  C_17
REMARK    2  A    between atoms: C_17  and  C_18
REMARK    3  A    between atoms: C_18  and  C_19
REMARK    4  A    between atoms: C_19  and  N_20
REMARK                            x       y       z     vdW  Elec       q    Type
REMARK                         _______ _______ _______ _____ _____    ______ ____
ROOT
ATOM      1 CL   UNL     1       4.838  -1.054  -1.436  0.00  0.00    -0.082 Cl
ATOM      2  N   UNL     1      -0.209  -0.263  -0.788  0.00  0.00    -0.287 N 
ATOM      3  C   UNL     1       0.994  -0.750  -0.206  0.00  0.00    +0.048 C 
ATOM      4  C   UNL     1      -1.537  -0.707  -0.558  0.00  0.00    +0.048 C 
ATOM      5  C   UNL     1      -0.071  -1.520   2.050  0.00  0.00    +0.032 C 
ATOM      6  C   UNL     1      -1.204  -0.513   1.933  0.00  0.00    +0.032 C 
ATOM      7  C   UNL     1       1.072  -1.358   1.071  0.00  0.00    -0.008 C 
ATOM      8  C   UNL     1      -2.056  -0.840   0.741  0.00  0.00    -0.008 C 
ATOM      9  C   UNL     1       2.203  -0.682  -0.949  0.00  0.00    +0.026 C 
ATOM     10  C   UNL     1      -2.388  -1.021  -1.640  0.00  0.00    +0.015 C 
ATOM     11  C   UNL     1       2.308  -1.883   1.524  0.00  0.00    -0.002 C 
ATOM     12  C   UNL     1      -3.381  -1.270   0.936  0.00  0.00    -0.003 C 
ATOM     13  C   UNL     1       3.417  -1.187  -0.475  0.00  0.00    +0.059 C 
ATOM     14  C   UNL     1      -3.702  -1.449  -1.439  0.00  0.00    +0.001 C 
ATOM     15  C   UNL     1       3.469  -1.795   0.764  0.00  0.00    +0.011 C 
ATOM     16  C   UNL     1      -4.199  -1.573  -0.149  0.00  0.00    -0.000 C 
ENDROOT
BRANCH   2  17
ATOM     17  C   UNL     1      -0.091   0.719  -1.879  0.00  0.00    +0.093 C 
BRANCH  17  18
ATOM     18  C   UNL     1       0.415   2.059  -1.347  0.00  0.00    -0.001 C 
BRANCH  18  19
ATOM     19  C   UNL     1      -0.455   2.679  -0.249  0.00  0.00    -0.076 C 
BRANCH  19  20
ATOM     20  N   UNL     1       0.053   3.975   0.182  0.00  0.00    +0.384 N 
ATOM     21  C   UNL     1       1.386   3.837   0.772  0.00  0.00    -0.101 C 
ATOM     22  C   UNL     1      -0.863   4.596   1.141  0.00  0.00    -0.101 C 
ATOM     23  H   UNL     1       0.122   4.578  -0.637  0.00  0.00    -0.080 HD
ENDBRANCH  19  20
ENDBRANCH  18  19
ENDBRANCH  17  18
ENDBRANCH   2  17
TORSDOF 4
