REMARK  Name = 3779
REMARK  7 active torsions:
REMARK  status: ('A' for Active; 'I' for Inactive)
REMARK    1  A    between atoms: C_1  and  C_2
REMARK    2  A    between atoms: C_1  and  O_12
REMARK    3  A    between atoms: C_1  and  C_14
REMARK    4  A    between atoms: C_5  and  O_8
REMARK    5  A    between atoms: C_7  and  O_10
REMARK    6  A    between atoms: C_14  and  N_15
REMARK    7  A    between atoms: N_15  and  C_18
REMARK                            x       y       z     vdW  Elec       q    Type
REMARK                         _______ _______ _______ _____ _____    ______ ____
ROOT
ATOM      1  C   UNL     1      -0.706   0.837  -0.554  0.00  0.00    +0.112 C 
ENDROOT
BRANCH   1   2
ATOM      2  C   UNL     1       0.689   0.301  -0.313  0.00  0.00    +0.005 C 
ATOM      3  C   UNL     1       1.662   1.151   0.185  0.00  0.00    +0.038 C 
ATOM      4  C   UNL     1       0.961  -1.026  -0.596  0.00  0.00    +0.001 C 
ATOM      5  C   UNL     1       2.947   0.657   0.407  0.00  0.00    +0.167 C 
ATOM      6  C   UNL     1       2.247  -1.519  -0.374  0.00  0.00    +0.040 C 
ATOM      7  C   UNL     1       3.240  -0.678   0.127  0.00  0.00    +0.167 C 
BRANCH   5   8
ATOM      8  O   UNL     1       3.909   1.488   0.898  0.00  0.00    -0.503 OA
ATOM      9  H   UNL     1       3.704   2.384   1.083  0.00  0.00    +0.292 HD
ENDBRANCH   5   8
BRANCH   7  10
ATOM     10  O   UNL     1       4.492  -1.171   0.341  0.00  0.00    -0.503 OA
ATOM     11  H   UNL     1       5.164  -0.613   0.678  0.00  0.00    +0.292 HD
ENDBRANCH   7  10
ENDBRANCH   1   2
BRANCH   1  12
ATOM     12  O   UNL     1      -0.978   0.759  -1.952  0.00  0.00    -0.382 OA
ATOM     13  H   UNL     1      -1.869   1.098  -2.128  0.00  0.00    +0.211 HD
ENDBRANCH   1  12
BRANCH   1  14
ATOM     14  C   UNL     1      -1.755   0.046   0.237  0.00  0.00    -0.047 C 
BRANCH  14  15
ATOM     15  N   UNL     1      -3.090   0.572  -0.005  0.00  0.00    +0.387 N 
ATOM     16  H   UNL     1      -3.300   0.506  -1.001  0.00  0.00    -0.084 HD
ATOM     17  H   UNL     1      -3.118   1.545   0.300  0.00  0.00    -0.084 HD
BRANCH  15  18
ATOM     18  C   UNL     1      -4.089  -0.185   0.748  0.00  0.00    -0.062 C 
ATOM     19  C   UNL     1      -4.059  -1.654   0.337  0.00  0.00    -0.023 C 
ATOM     20  C   UNL     1      -5.469   0.422   0.513  0.00  0.00    -0.023 C 
ENDBRANCH  15  18
ENDBRANCH  14  15
ENDBRANCH   1  14
TORSDOF 7
