REMARK  Name = 61122
REMARK  10 active torsions:
REMARK  status: ('A' for Active; 'I' for Inactive)
REMARK    1  A    between atoms: N_1  and  C_19
REMARK    2  A    between atoms: C_2  and  C_8
REMARK    3  A    between atoms: C_2  and  C_15
REMARK    4  A    between atoms: C_15  and  O_16
REMARK    5  A    between atoms: O_16  and  C_17
REMARK    6  A    between atoms: C_19  and  C_20
REMARK    7  A    between atoms: C_20  and  O_21
REMARK    8  A    between atoms: O_21  and  C_22
REMARK    9  A    between atoms: C_22  and  C_23
REMARK   10  A    between atoms: C_23  and  O_24
REMARK                            x       y       z     vdW  Elec       q    Type
REMARK                         _______ _______ _______ _____ _____    ______ ____
ROOT
ATOM      1  N   UNL     1      -1.558   0.318  -0.513  0.00  0.00    +0.389 N 
ATOM      2  C   UNL     1       1.422   0.456  -0.425  0.00  0.00    +0.104 C 
ATOM      3  C   UNL     1       0.585   0.419  -1.732  0.00  0.00    -0.008 C 
ATOM      4  C   UNL     1       0.495   1.039   0.675  0.00  0.00    -0.008 C 
ATOM      5  C   UNL     1      -0.746  -0.319  -1.556  0.00  0.00    -0.076 C 
ATOM      6  C   UNL     1      -0.857   0.322   0.776  0.00  0.00    -0.076 C 
ATOM      7  H   UNL     1      -1.716   1.287  -0.787  0.00  0.00    -0.080 HD
ENDROOT
BRANCH   2   8
ATOM      8  C   UNL     1       2.074  -0.898  -0.109  0.00  0.00    -0.013 C 
ATOM      9  C   UNL     1       1.796  -1.542   1.097  0.00  0.00    -0.004 C 
ATOM     10  C   UNL     1       2.945  -1.485  -1.027  0.00  0.00    -0.004 C 
ATOM     11  C   UNL     1       2.389  -2.772   1.384  0.00  0.00    -0.000 C 
ATOM     12  C   UNL     1       3.538  -2.714  -0.740  0.00  0.00    -0.000 C 
ATOM     13  C   UNL     1       3.260  -3.358   0.466  0.00  0.00    -0.000 C 
ENDBRANCH   2   8
BRANCH   2  15
ATOM     14  O   UNL     1       2.720   2.092  -1.649  0.00  0.00    -0.250 OA
ATOM     15  C   UNL     1       2.536   1.463  -0.617  0.00  0.00    +0.320 C 
BRANCH  15  16
ATOM     16  O   UNL     1       3.276   1.546   0.525  0.00  0.00    -0.448 OA
BRANCH  16  17
ATOM     17  C   UNL     1       4.370   2.468   0.483  0.00  0.00    +0.209 C 
ATOM     18  C   UNL     1       5.087   2.444   1.816  0.00  0.00    +0.051 C 
ENDBRANCH  16  17
ENDBRANCH  15  16
ENDBRANCH   2  15
BRANCH   1  19
ATOM     19  C   UNL     1      -2.854  -0.348  -0.392  0.00  0.00    -0.045 C 
BRANCH  19  20
ATOM     20  C   UNL     1      -3.896   0.604   0.173  0.00  0.00    +0.120 C 
BRANCH  20  21
ATOM     21  O   UNL     1      -5.141  -0.078   0.258  0.00  0.00    -0.353 OA
BRANCH  21  22
ATOM     22  C   UNL     1      -6.161   0.761   0.781  0.00  0.00    +0.174 C 
BRANCH  22  23
ATOM     23  C   UNL     1      -7.465  -0.013   0.824  0.00  0.00    +0.169 C 
BRANCH  23  24
ATOM     24  O   UNL     1      -7.815  -0.405  -0.498  0.00  0.00    -0.379 OA
ATOM     25  H   UNL     1      -8.648  -0.901  -0.478  0.00  0.00    +0.211 HD
ENDBRANCH  23  24
ENDBRANCH  22  23
ENDBRANCH  21  22
ENDBRANCH  20  21
ENDBRANCH  19  20
ENDBRANCH   1  19
TORSDOF 10
