REMARK  Name = 3366
REMARK  1 active torsions:
REMARK  status: ('A' for Active; 'I' for Inactive)
REMARK    1  A    between atoms: C_5  and  N_10
REMARK                            x       y       z     vdW  Elec       q    Type
REMARK                         _______ _______ _______ _____ _____    ______ ____
ROOT
ATOM      1  F   UNL     1       2.381   0.995   0.000  0.00  0.00    -0.204 F 
ATOM      2  O   UNL     1      -2.748  -0.493  -0.001  0.00  0.00    -0.206 OA
ATOM      3  N   UNL     1      -0.546  -1.080   0.001  0.00  0.00    -0.244 N 
ATOM      4  N   UNL     1      -1.220   1.210   0.000  0.00  0.00    -0.160 NA
ATOM      5  C   UNL     1       0.800  -0.773   0.000  0.00  0.00    +0.187 C 
ATOM      6  C   UNL     1       1.123   0.525   0.000  0.00  0.00    +0.171 C 
ATOM      7  C   UNL     1      -1.570  -0.131   0.000  0.00  0.00    +0.214 C 
ATOM      8  C   UNL     1       0.037   1.509   0.000  0.00  0.00    +0.140 C 
ATOM      9  H   UNL     1      -0.801  -2.031   0.001  0.00  0.00    +0.161 HD
ENDROOT
BRANCH   5  10
ATOM     10  N   UNL     1       1.742  -1.763  -0.001  0.00  0.00    -0.301 NA
ATOM     11  H   UNL     1       1.464  -2.707   0.000  0.00  0.00    +0.121 HD
ATOM     12  H   UNL     1       2.699  -1.531  -0.001  0.00  0.00    +0.121 HD
ENDBRANCH   5  10
TORSDOF 1
