REMARK  Name = 10836
REMARK  3 active torsions:
REMARK  status: ('A' for Active; 'I' for Inactive)
REMARK    1  A    between atoms: C_1  and  C_2
REMARK    2  A    between atoms: C_1  and  C_8
REMARK    3  A    between atoms: C_8  and  N_10
REMARK                            x       y       z     vdW  Elec       q    Type
REMARK                         _______ _______ _______ _____ _____    ______ ____
ROOT
ATOM      1  C   UNL     1      -0.948  -0.240   0.681  0.00  0.00    +0.005 C 
ENDROOT
BRANCH   1   2
ATOM      2  C   UNL     1       0.524  -0.176   0.351  0.00  0.00    -0.024 C 
ATOM      3  C   UNL     1       1.129  -1.258  -0.268  0.00  0.00    -0.004 C 
ATOM      4  C   UNL     1       1.244   0.963   0.675  0.00  0.00    -0.004 C 
ATOM      5  C   UNL     1       2.489  -1.200  -0.573  0.00  0.00    -0.000 C 
ATOM      6  C   UNL     1       2.604   1.022   0.370  0.00  0.00    -0.000 C 
ATOM      7  C   UNL     1       3.226  -0.060  -0.253  0.00  0.00    -0.000 C 
ENDBRANCH   1   2
BRANCH   1   8
ATOM      8  C   UNL     1      -1.855   0.286  -0.446  0.00  0.00    -0.058 C 
ATOM      9  C   UNL     1      -1.593   1.756  -0.773  0.00  0.00    -0.023 C 
BRANCH   8  10
ATOM     10  N   UNL     1      -3.259   0.145  -0.048  0.00  0.00    +0.384 N 
ATOM     11  C   UNL     1      -3.561  -1.237   0.284  0.00  0.00    -0.106 C 
ATOM     12  H   UNL     1      -3.857   0.443  -0.819  0.00  0.00    -0.085 HD
ATOM     13  H   UNL     1      -3.428   0.725   0.773  0.00  0.00    -0.085 HD
ENDBRANCH   8  10
ENDBRANCH   1   8
TORSDOF 3
