2968
  -OEChem-10051719323D

 56 55  0     0  0  0  0  0  0999 V2000
   -6.9484   -0.0231    0.0477 N   0  3  0  0  0  0  0  0  0  0  0  0
    6.9420    0.0073    0.0274 N   0  3  0  0  0  0  0  0  0  0  0  0
   -5.7026    0.7782   -0.0013 C   0  0  0  0  0  0  0  0  0  0  0  0
    5.6927   -0.7895    0.0171 C   0  0  0  0  0  0  0  0  0  0  0  0
   -4.4806   -0.1312   -0.0600 C   0  0  0  0  0  0  0  0  0  0  0  0
    4.4719    0.1223    0.0156 C   0  0  0  0  0  0  0  0  0  0  0  0
   -3.1545    0.6360   -0.0623 C   0  0  0  0  0  0  0  0  0  0  0  0
    3.1432   -0.6389   -0.0045 C   0  0  0  0  0  0  0  0  0  0  0  0
   -1.9270   -0.2798   -0.1322 C   0  0  0  0  0  0  0  0  0  0  0  0
    1.9529    0.3245   -0.0163 C   0  0  0  0  0  0  0  0  0  0  0  0
   -0.6011    0.4819   -0.0565 C   0  0  0  0  0  0  0  0  0  0  0  0
    0.6258   -0.4358   -0.0664 C   0  0  0  0  0  0  0  0  0  0  0  0
   -7.0683   -0.9246   -1.1897 C   0  0  0  0  0  0  0  0  0  0  0  0
   -6.9728   -0.9204    1.2937 C   0  0  0  0  0  0  0  0  0  0  0  0
   -8.1838    0.8879    0.0935 C   0  0  0  0  0  0  0  0  0  0  0  0
    7.0550    0.8648   -1.2416 C   0  0  0  0  0  0  0  0  0  0  0  0
    6.9814    0.9475    1.2412 C   0  0  0  0  0  0  0  0  0  0  0  0
    8.1741   -0.9069    0.0944 C   0  0  0  0  0  0  0  0  0  0  0  0
   -5.6714    1.4155    0.8907 H   0  0  0  0  0  0  0  0  0  0  0  0
   -5.7462    1.4269   -0.8847 H   0  0  0  0  0  0  0  0  0  0  0  0
    5.7030   -1.4324   -0.8713 H   0  0  0  0  0  0  0  0  0  0  0  0
    5.6909   -1.4329    0.9054 H   0  0  0  0  0  0  0  0  0  0  0  0
   -4.4463   -0.8114    0.7962 H   0  0  0  0  0  0  0  0  0  0  0  0
   -4.4914   -0.7454   -0.9661 H   0  0  0  0  0  0  0  0  0  0  0  0
    4.4538    0.7575    0.9070 H   0  0  0  0  0  0  0  0  0  0  0  0
    4.4746    0.7828   -0.8570 H   0  0  0  0  0  0  0  0  0  0  0  0
   -3.1363    1.3273   -0.9138 H   0  0  0  0  0  0  0  0  0  0  0  0
   -3.0954    1.2490    0.8457 H   0  0  0  0  0  0  0  0  0  0  0  0
    3.0817   -1.2928    0.8737 H   0  0  0  0  0  0  0  0  0  0  0  0
    3.1057   -1.2828   -0.8916 H   0  0  0  0  0  0  0  0  0  0  0  0
   -1.9600   -0.8597   -1.0626 H   0  0  0  0  0  0  0  0  0  0  0  0
   -1.9713   -1.0013    0.6931 H   0  0  0  0  0  0  0  0  0  0  0  0
    2.0234    0.9911   -0.8842 H   0  0  0  0  0  0  0  0  0  0  0  0
    1.9798    0.9554    0.8802 H   0  0  0  0  0  0  0  0  0  0  0  0
   -0.5848    1.0893    0.8569 H   0  0  0  0  0  0  0  0  0  0  0  0
   -0.5386    1.1785   -0.9016 H   0  0  0  0  0  0  0  0  0  0  0  0
    0.6000   -1.0577   -0.9698 H   0  0  0  0  0  0  0  0  0  0  0  0
    0.5671   -1.1190    0.7900 H   0  0  0  0  0  0  0  0  0  0  0  0
   -6.9180   -0.3088   -2.0812 H   0  0  0  0  0  0  0  0  0  0  0  0
   -6.3347   -1.7325   -1.1337 H   0  0  0  0  0  0  0  0  0  0  0  0
   -8.0729   -1.3596   -1.1965 H   0  0  0  0  0  0  0  0  0  0  0  0
   -6.7419   -0.3047    2.1677 H   0  0  0  0  0  0  0  0  0  0  0  0
   -7.9778   -1.3444    1.3866 H   0  0  0  0  0  0  0  0  0  0  0  0
   -6.2569   -1.7375    1.1794 H   0  0  0  0  0  0  0  0  0  0  0  0
   -8.1130    1.5105    0.9902 H   0  0  0  0  0  0  0  0  0  0  0  0
   -8.1815    1.5083   -0.8075 H   0  0  0  0  0  0  0  0  0  0  0  0
   -9.0815    0.2638    0.1283 H   0  0  0  0  0  0  0  0  0  0  0  0
    6.9020    0.2176   -2.1100 H   0  0  0  0  0  0  0  0  0  0  0  0
    6.3198    1.6721   -1.2126 H   0  0  0  0  0  0  0  0  0  0  0  0
    8.0588    1.3010   -1.2682 H   0  0  0  0  0  0  0  0  0  0  0  0
    6.7519    0.3644    2.1378 H   0  0  0  0  0  0  0  0  0  0  0  0
    7.9902    1.3666    1.3128 H   0  0  0  0  0  0  0  0  0  0  0  0
    6.2713    1.7662    1.1012 H   0  0  0  0  0  0  0  0  0  0  0  0
    8.1121   -1.4935    1.0156 H   0  0  0  0  0  0  0  0  0  0  0  0
    8.1580   -1.5621   -0.7814 H   0  0  0  0  0  0  0  0  0  0  0  0
    9.0748   -0.2861    0.0938 H   0  0  0  0  0  0  0  0  0  0  0  0
  1  3  1  0  0  0  0
  1 13  1  0  0  0  0
  1 14  1  0  0  0  0
  1 15  1  0  0  0  0
  2  4  1  0  0  0  0
  2 16  1  0  0  0  0
  2 17  1  0  0  0  0
  2 18  1  0  0  0  0
  3  5  1  0  0  0  0
  3 19  1  0  0  0  0
  3 20  1  0  0  0  0
  4  6  1  0  0  0  0
  4 21  1  0  0  0  0
  4 22  1  0  0  0  0
  5  7  1  0  0  0  0
  5 23  1  0  0  0  0
  5 24  1  0  0  0  0
  6  8  1  0  0  0  0
  6 25  1  0  0  0  0
  6 26  1  0  0  0  0
  7  9  1  0  0  0  0
  7 27  1  0  0  0  0
  7 28  1  0  0  0  0
  8 10  1  0  0  0  0
  8 29  1  0  0  0  0
  8 30  1  0  0  0  0
  9 11  1  0  0  0  0
  9 31  1  0  0  0  0
  9 32  1  0  0  0  0
 10 12  1  0  0  0  0
 10 33  1  0  0  0  0
 10 34  1  0  0  0  0
 11 12  1  0  0  0  0
 11 35  1  0  0  0  0
 11 36  1  0  0  0  0
 12 37  1  0  0  0  0
 12 38  1  0  0  0  0
 13 39  1  0  0  0  0
 13 40  1  0  0  0  0
 13 41  1  0  0  0  0
 14 42  1  0  0  0  0
 14 43  1  0  0  0  0
 14 44  1  0  0  0  0
 15 45  1  0  0  0  0
 15 46  1  0  0  0  0
 15 47  1  0  0  0  0
 16 48  1  0  0  0  0
 16 49  1  0  0  0  0
 16 50  1  0  0  0  0
 17 51  1  0  0  0  0
 17 52  1  0  0  0  0
 17 53  1  0  0  0  0
 18 54  1  0  0  0  0
 18 55  1  0  0  0  0
 18 56  1  0  0  0  0
M  CHG  2   1   1   2   1
M  END
> <DATABASE_ID>
DB01245

> <DATABASE_NAME>
drugbank

> <ORIGINAL_SOURCE>
PUBCHEM

> <ORIGINAL_SOURCE_URL>
https://pubchem.ncbi.nlm.nih.gov/rest/pug/compound/inchikey/MTCUAOILFDZKCO-UHFFFAOYSA-N/SDF?record_type=3d

> <SMILES>
C[N+](C)(C)CCCCCCCCCC[N+](C)(C)C

> <INCHI_IDENTIFIER>
InChI=1S/C16H38N2/c1-17(2,3)15-13-11-9-7-8-10-12-14-16-18(4,5)6/h7-16H2,1-6H3/q+2

> <INCHI_KEY>
MTCUAOILFDZKCO-UHFFFAOYSA-N

> <FORMULA>
C16H38N2

> <MOLECULAR_WEIGHT>
258.4863

> <EXACT_MASS>
258.303499226

> <JCHEM_ACCEPTOR_COUNT>
0

> <JCHEM_AVERAGE_POLARIZABILITY>
35.94104787229191

> <JCHEM_BIOAVAILABILITY>
1

> <JCHEM_DONOR_COUNT>
0

> <JCHEM_FORMAL_CHARGE>
2

> <JCHEM_GHOSE_FILTER>
0

> <JCHEM_IUPAC>
trimethyl[10-(trimethylazaniumyl)decyl]azanium

> <ALOGPS_LOGP>
-2.79

> <JCHEM_LOGP>
-4.87112484494349

> <ALOGPS_LOGS>
-7.67

> <JCHEM_MDDR_LIKE_RULE>
0

> <JCHEM_NUMBER_OF_RINGS>
0

> <JCHEM_PHYSIOLOGICAL_CHARGE>
2

> <JCHEM_POLAR_SURFACE_AREA>
0

> <JCHEM_REFRACTIVITY>
106.95039999999997

> <JCHEM_ROTATABLE_BOND_COUNT>
11

> <JCHEM_RULE_OF_FIVE>
1

> <ALOGPS_SOLUBILITY>
7.04e-06 g/l

> <JCHEM_TRADITIONAL_IUPAC>
decamethonium

> <JCHEM_VEBER_RULE>
0

> <DRUGBANK_ID>
DB01245

> <SECONDARY_ACCESSION_NUMBERS>
APRD00696

> <DRUG_GROUPS>
approved

> <GENERIC_NAME>
Decamethonium

> <SYNONYMS>
Decamethonium; Decamethonium cation; Decamethonium ion; Decamethonum; Decamethylenebis(trimethylammonium); N,N,N,N',N',N'-hexamethyl-1,10-decanediaminium

> <SALTS>
Decamethonium bromide

$$$$
