REMARK  Name = 27402
REMARK  6 active torsions:
REMARK  status: ('A' for Active; 'I' for Inactive)
REMARK    1  A    between atoms: C_1  and  C_13
REMARK    2  A    between atoms: C_2  and  C_11
REMARK    3  A    between atoms: C_3  and  O_7
REMARK    4  A    between atoms: C_5  and  O_9
REMARK    5  A    between atoms: C_13  and  C_14
REMARK    6  A    between atoms: C_14  and  N_16
REMARK                            x       y       z     vdW  Elec       q    Type
REMARK                         _______ _______ _______ _____ _____    ______ ____
ROOT
ATOM      1  C   UNL     1      -0.745  -0.266   0.500  0.00  0.00    +0.013 C 
ATOM      2  C   UNL     1       1.897   0.487   0.124  0.00  0.00    +0.015 C 
ATOM      3  C   UNL     1      -0.427   1.081   0.410  0.00  0.00    +0.134 C 
ATOM      4  C   UNL     1       0.234  -1.243   0.405  0.00  0.00    +0.035 C 
ATOM      5  C   UNL     1       1.563  -0.864   0.216  0.00  0.00    +0.135 C 
ATOM      6  C   UNL     1       0.901   1.460   0.221  0.00  0.00    +0.035 C 
ENDROOT
BRANCH   3   7
ATOM      7  O   UNL     1      -1.387   2.043   0.501  0.00  0.00    -0.472 OA
ATOM      8  C   UNL     1      -0.958   3.399   0.396  0.00  0.00    +0.252 C 
ENDBRANCH   3   7
BRANCH   5   9
ATOM      9  O   UNL     1       2.523  -1.826   0.124  0.00  0.00    -0.472 OA
ATOM     10  C   UNL     1       2.094  -3.182   0.229  0.00  0.00    +0.252 C 
ENDBRANCH   5   9
BRANCH   2  11
ATOM     11  C   UNL     1       3.314   0.911  -0.081  0.00  0.00    +0.030 C 
ATOM     12  C   UNL     1       3.677   1.024  -1.558  0.00  0.00    +0.005 C 
ENDBRANCH   2  11
BRANCH   1  13
ATOM     13  C   UNL     1      -2.179  -0.694   0.704  0.00  0.00    +0.008 C 
BRANCH  13  14
ATOM     14  C   UNL     1      -2.948  -0.919  -0.610  0.00  0.00    -0.061 C 
ATOM     15  C   UNL     1      -3.462   0.385  -1.219  0.00  0.00    -0.024 C 
BRANCH  14  16
ATOM     16  N   UNL     1      -4.096  -1.796  -0.360  0.00  0.00    +0.382 N 
ATOM     17  H   UNL     1      -3.772  -2.673   0.047  0.00  0.00    -0.089 HD
ATOM     18  H   UNL     1      -4.576  -1.986  -1.240  0.00  0.00    -0.089 HD
ATOM     19  H   UNL     1      -4.739  -1.338   0.286  0.00  0.00    -0.089 HD
ENDBRANCH  14  16
ENDBRANCH  13  14
ENDBRANCH   1  13
TORSDOF 6
