REMARK  Name = 12218309
REMARK  5 active torsions:
REMARK  status: ('A' for Active; 'I' for Inactive)
REMARK    1  A    between atoms: C_2  and  C_9
REMARK    2  A    between atoms: C_2  and  O_17
REMARK    3  A    between atoms: C_3  and  C_15
REMARK    4  A    between atoms: O_17  and  C_19
REMARK    5  A    between atoms: C_19  and  C_20
REMARK                            x       y       z     vdW  Elec       q    Type
REMARK                         _______ _______ _______ _____ _____    ______ ____
ROOT
ATOM      1  N   UNL     1      -3.182   0.220  -0.507  0.00  0.00    +0.386 N 
ATOM      2  C   UNL     1      -0.276  -0.070   0.008  0.00  0.00    +0.150 C 
ATOM      3  C   UNL     1      -1.351  -0.924   0.753  0.00  0.00    +0.020 C 
ATOM      4  C   UNL     1      -0.856   0.402  -1.346  0.00  0.00    +0.022 C 
ATOM      5  C   UNL     1      -2.694  -0.159   0.825  0.00  0.00    -0.074 C 
ATOM      6  C   UNL     1      -2.219   1.090  -1.191  0.00  0.00    -0.074 C 
ATOM      7  C   UNL     1      -4.485   0.877  -0.408  0.00  0.00    -0.101 C 
ATOM      8  H   UNL     1      -3.289  -0.631  -1.059  0.00  0.00    -0.080 HD
ENDROOT
BRANCH   2   9
ATOM      9  C   UNL     1       1.081  -0.768  -0.079  0.00  0.00    +0.013 C 
ATOM     10  C   UNL     1       1.698  -0.937  -1.318  0.00  0.00    -0.001 C 
ATOM     11  C   UNL     1       1.699  -1.235   1.080  0.00  0.00    -0.001 C 
ATOM     12  C   UNL     1       2.936  -1.574  -1.397  0.00  0.00    -0.000 C 
ATOM     13  C   UNL     1       2.938  -1.872   1.000  0.00  0.00    -0.000 C 
ATOM     14  C   UNL     1       3.556  -2.042  -0.239  0.00  0.00    -0.000 C 
ENDBRANCH   2   9
BRANCH   3  15
ATOM     15  C   UNL     1      -1.563  -2.314   0.130  0.00  0.00    +0.002 C 
ATOM     16  C   UNL     1      -2.557  -3.123   0.934  0.00  0.00    +0.000 C 
ENDBRANCH   3  15
BRANCH   2  17
ATOM     17  O   UNL     1      -0.040   1.143   0.753  0.00  0.00    -0.452 OA
BRANCH  17  19
ATOM     18  O   UNL     1       1.466   1.839  -0.850  0.00  0.00    -0.250 OA
ATOM     19  C   UNL     1       0.861   2.008   0.200  0.00  0.00    +0.317 C 
BRANCH  19  20
ATOM     20  C   UNL     1       0.993   3.217   1.096  0.00  0.00    +0.110 C 
ATOM     21  C   UNL     1       1.995   4.223   0.556  0.00  0.00    +0.012 C 
ENDBRANCH  19  20
ENDBRANCH  17  19
ENDBRANCH   2  17
TORSDOF 5
