REMARK  Name = 10413
REMARK  5 active torsions:
REMARK  status: ('A' for Active; 'I' for Inactive)
REMARK    1  A    between atoms: C_1  and  C_3
REMARK    2  A    between atoms: C_1  and  C_6
REMARK    3  A    between atoms: C_3  and  O_4
REMARK    4  A    between atoms: C_6  and  C_7
REMARK    5  A    between atoms: C_7  and  O_8
REMARK                            x       y       z     vdW  Elec       q    Type
REMARK                         _______ _______ _______ _____ _____    ______ ____
ROOT
ATOM      1  C   UNL     1      -0.332  -0.692   0.001  0.00  0.00    +0.112 C 
ENDROOT
BRANCH   1   3
ATOM      2  O   UNL     1      -1.722   1.308   0.011  0.00  0.00    -0.250 OA
ATOM      3  C   UNL     1      -1.627   0.088   0.001  0.00  0.00    +0.314 C 
BRANCH   3   4
ATOM      4  O   UNL     1      -2.704  -0.740  -0.009  0.00  0.00    -0.480 OA
ATOM      5  H   UNL     1      -2.582  -1.668  -0.017  0.00  0.00    +0.295 HD
ENDBRANCH   3   4
ENDBRANCH   1   3
BRANCH   1   6
ATOM      6  C   UNL     1       0.889   0.230  -0.016  0.00  0.00    +0.043 C 
BRANCH   6   7
ATOM      7  C   UNL     1       2.199  -0.547   0.023  0.00  0.00    +0.138 C 
BRANCH   7   8
ATOM      8  O   UNL     1       3.297   0.353  -0.012  0.00  0.00    -0.382 OA
ATOM      9  H   UNL     1       4.127  -0.149   0.013  0.00  0.00    +0.210 HD
ENDBRANCH   7   8
ENDBRANCH   6   7
ENDBRANCH   1   6
TORSDOF 5
