REMARK  Name = 2187
REMARK  6 active torsions:
REMARK  status: ('A' for Active; 'I' for Inactive)
REMARK    1  A    between atoms: C_1  and  C_7
REMARK    2  A    between atoms: C_2  and  C_12
REMARK    3  A    between atoms: C_4  and  C_17
REMARK    4  A    between atoms: C_7  and  C_11
REMARK    5  A    between atoms: C_12  and  C_16
REMARK    6  A    between atoms: C_17  and  N_18
REMARK                            x       y       z     vdW  Elec       q    Type
REMARK                         _______ _______ _______ _____ _____    ______ ____
ROOT
ATOM      1  C   UNL     1       1.046  -1.148  -0.019  0.00  0.00    -0.010 C 
ATOM      2  C   UNL     1       0.878   1.236  -0.370  0.00  0.00    -0.010 C 
ATOM      3  C   UNL     1       1.605   0.127   0.063  0.00  0.00    -0.007 C 
ATOM      4  C   UNL     1      -0.967  -0.205  -0.965  0.00  0.00    -0.001 C 
ATOM      5  C   UNL     1      -0.240  -1.314  -0.532  0.00  0.00    -0.006 C 
ATOM      6  C   UNL     1      -0.408   1.070  -0.884  0.00  0.00    -0.006 C 
ENDROOT
BRANCH   1   7
ATOM      7  C   UNL     1       1.822  -2.334   0.445  0.00  0.00    +0.098 C 
ATOM      8  C   UNL     1       1.092  -3.712   0.315  0.00  0.00    +0.020 C 
ATOM      9  C   UNL     1       2.196  -2.201   1.954  0.00  0.00    +0.020 C 
BRANCH   7  11
ATOM     10  N   UNL     1       4.087  -2.583  -0.933  0.00  0.00    -0.196 NA
ATOM     11  C   UNL     1       3.104  -2.488  -0.323  0.00  0.00    +0.075 C 
ENDBRANCH   7  11
ENDBRANCH   1   7
BRANCH   2  12
ATOM     12  C   UNL     1       1.476   2.600  -0.284  0.00  0.00    +0.098 C 
ATOM     13  C   UNL     1       0.574   3.767  -0.803  0.00  0.00    +0.020 C 
ATOM     14  C   UNL     1       2.792   2.685  -1.117  0.00  0.00    +0.020 C 
BRANCH  12  16
ATOM     15  N   UNL     1       2.072   3.216   2.238  0.00  0.00    -0.196 NA
ATOM     16  C   UNL     1       1.818   2.962   1.134  0.00  0.00    +0.075 C 
ENDBRANCH  12  16
ENDBRANCH   2  12
BRANCH   4  17
ATOM     17  C   UNL     1      -2.343  -0.383  -1.513  0.00  0.00    +0.144 C 
BRANCH  17  18
ATOM     18  N   UNL     1      -3.365  -0.299  -0.464  0.00  0.00    -0.186 N 
ATOM     19  N   UNL     1      -3.745  -1.397   0.179  0.00  0.00    -0.154 NA
ATOM     20  N   UNL     1      -4.841   0.471   0.912  0.00  0.00    -0.203 NA
ATOM     21  C   UNL     1      -4.003   0.806  -0.041  0.00  0.00    +0.186 C 
ATOM     22  C   UNL     1      -4.650  -0.877   1.010  0.00  0.00    +0.218 C 
ENDBRANCH  17  18
ENDBRANCH   4  17
TORSDOF 6
