REMARK  Name = 3899
REMARK  3 active torsions:
REMARK  status: ('A' for Active; 'I' for Inactive)
REMARK    1  A    between atoms: N_2  and  C_11
REMARK    2  A    between atoms: C_3  and  C_7
REMARK    3  A    between atoms: C_12  and  C_20
REMARK                            x       y       z     vdW  Elec       q    Type
REMARK                         _______ _______ _______ _____ _____    ______ ____
ROOT
ATOM      1  O   UNL     1       1.734   1.596  -0.013  0.00  0.00    -0.270 OA
ATOM      2  N   UNL     1       0.929  -0.598  -0.037  0.00  0.00    -0.280 N 
ATOM      3  C   UNL     1       1.935   0.385  -0.031  0.00  0.00    +0.254 C 
ATOM      4  H   UNL     1       1.242  -1.532  -0.052  0.00  0.00    +0.155 HD
ENDROOT
BRANCH   3   7
ATOM      5  O   UNL     1       5.500  -0.209   0.029  0.00  0.00    -0.358 OA
ATOM      6  N   UNL     1       5.062  -1.528   0.035  0.00  0.00    -0.076 NA
ATOM      7  C   UNL     1       3.312  -0.136  -0.005  0.00  0.00    +0.109 C 
ATOM      8  C   UNL     1       4.425   0.620   0.005  0.00  0.00    +0.159 C 
ATOM      9  C   UNL     1       3.728  -1.450   0.014  0.00  0.00    +0.148 C 
ATOM     10  C   UNL     1       4.715   2.060  -0.004  0.00  0.00    +0.076 C 
ENDBRANCH   3   7
BRANCH   2  11
ATOM     11  C   UNL     1      -0.455  -0.420  -0.025  0.00  0.00    +0.051 C 
ATOM     12  C   UNL     1      -3.221  -0.062   0.001  0.00  0.00    +0.072 C 
ATOM     13  C   UNL     1      -0.991   0.868  -0.004  0.00  0.00    +0.015 C 
ATOM     14  C   UNL     1      -1.301  -1.528  -0.033  0.00  0.00    +0.015 C 
ATOM     15  C   UNL     1      -2.375   1.046   0.009  0.00  0.00    +0.005 C 
ATOM     16  C   UNL     1      -2.684  -1.350  -0.021  0.00  0.00    +0.005 C 
BRANCH  12  20
ATOM     17  F   UNL     1      -5.048   1.440   0.033  0.00  0.00    -0.166 F 
ATOM     18  F   UNL     1      -5.304  -0.414  -1.073  0.00  0.00    -0.166 F 
ATOM     19  F   UNL     1      -5.260  -0.447   1.106  0.00  0.00    -0.166 F 
ATOM     20  C   UNL     1      -4.700   0.129   0.013  0.00  0.00    +0.419 C 
ENDBRANCH  12  20
ENDBRANCH   2  11
TORSDOF 3
