REMARK  Name = 3100
REMARK  6 active torsions:
REMARK  status: ('A' for Active; 'I' for Inactive)
REMARK    1  A    between atoms: C_1  and  C_2
REMARK    2  A    between atoms: C_1  and  C_8
REMARK    3  A    between atoms: C_1  and  O_14
REMARK    4  A    between atoms: O_14  and  C_15
REMARK    5  A    between atoms: C_15  and  C_16
REMARK    6  A    between atoms: C_16  and  N_17
REMARK                            x       y       z     vdW  Elec       q    Type
REMARK                         _______ _______ _______ _____ _____    ______ ____
ROOT
ATOM      1  C   UNL     1      -0.168  -0.076   0.544  0.00  0.00    +0.160 C 
ENDROOT
BRANCH   1   2
ATOM      2  C   UNL     1      -0.799   1.260   0.211  0.00  0.00    +0.009 C 
ATOM      3  C   UNL     1      -1.659   1.845   1.122  0.00  0.00    -0.002 C 
ATOM      4  C   UNL     1      -0.500   1.864  -0.997  0.00  0.00    -0.002 C 
ATOM      5  C   UNL     1      -2.240   3.075   0.816  0.00  0.00    -0.000 C 
ATOM      6  C   UNL     1      -1.081   3.095  -1.304  0.00  0.00    -0.000 C 
ATOM      7  C   UNL     1      -1.951   3.700  -0.397  0.00  0.00    -0.000 C 
ENDBRANCH   1   2
BRANCH   1   8
ATOM      8  C   UNL     1      -1.061  -1.253   0.202  0.00  0.00    +0.009 C 
ATOM      9  C   UNL     1      -2.011  -1.664   1.118  0.00  0.00    -0.002 C 
ATOM     10  C   UNL     1      -0.904  -1.885  -1.018  0.00  0.00    -0.002 C 
ATOM     11  C   UNL     1      -2.834  -2.746   0.804  0.00  0.00    -0.000 C 
ATOM     12  C   UNL     1      -1.727  -2.967  -1.333  0.00  0.00    -0.000 C 
ATOM     13  C   UNL     1      -2.691  -3.397  -0.422  0.00  0.00    -0.000 C 
ENDBRANCH   1   8
BRANCH   1  14
ATOM     14  O   UNL     1       1.106  -0.183  -0.078  0.00  0.00    -0.350 OA
BRANCH  14  15
ATOM     15  C   UNL     1       1.988   0.843   0.359  0.00  0.00    +0.120 C 
BRANCH  15  16
ATOM     16  C   UNL     1       3.325   0.669  -0.343  0.00  0.00    -0.045 C 
BRANCH  16  17
ATOM     17  N   UNL     1       3.917  -0.627  -0.013  0.00  0.00    +0.386 N 
ATOM     18  C   UNL     1       4.096  -0.754   1.433  0.00  0.00    -0.101 C 
ATOM     19  C   UNL     1       5.194  -0.797  -0.704  0.00  0.00    -0.101 C 
ATOM     20  H   UNL     1       3.281  -1.361  -0.325  0.00  0.00    -0.080 HD
ENDBRANCH  16  17
ENDBRANCH  15  16
ENDBRANCH  14  15
ENDBRANCH   1  14
TORSDOF 6
