REMARK  Name = 62751
REMARK  2 active torsions:
REMARK  status: ('A' for Active; 'I' for Inactive)
REMARK    1  A    between atoms: C_1  and  N_7
REMARK    2  A    between atoms: C_1  and  C_15
REMARK                            x       y       z     vdW  Elec       q    Type
REMARK                         _______ _______ _______ _____ _____    ______ ____
ROOT
ATOM      1  C   UNL     1      -0.210   0.728  -0.005  0.00  0.00    -0.017 C 
ATOM      2  C   UNL     1      -0.761   1.446  -1.270  0.00  0.00    -0.014 C 
ATOM      3  C   UNL     1      -0.759   1.471   1.247  0.00  0.00    -0.014 C 
ATOM      4  C   UNL     1      -2.282   1.625  -1.274  0.00  0.00    -0.002 C 
ATOM      5  C   UNL     1      -2.278   1.665   1.242  0.00  0.00    -0.002 C 
ATOM      6  C   UNL     1      -2.759   2.356  -0.026  0.00  0.00    -0.000 C 
ENDROOT
BRANCH   1   7
ATOM      7  N   UNL     1      -0.750  -0.631  -0.022  0.00  0.00    +0.392 N 
ATOM      8  C   UNL     1      -0.256  -1.365  -1.195  0.00  0.00    -0.077 C 
ATOM      9  C   UNL     1      -0.413  -1.333   1.225  0.00  0.00    -0.077 C 
ATOM     10  C   UNL     1      -0.849  -2.774  -1.254  0.00  0.00    -0.023 C 
ATOM     11  C   UNL     1      -1.012  -2.740   1.244  0.00  0.00    -0.023 C 
ATOM     12  C   UNL     1      -0.571  -3.548   0.029  0.00  0.00    -0.004 C 
ATOM     13  H   UNL     1      -1.766  -0.579  -0.089  0.00  0.00    -0.079 HD
ENDBRANCH   1   7
BRANCH   1  15
ATOM     14  S   UNL     1       2.217   0.615  -1.407  0.00  0.00    -0.093 S 
ATOM     15  C   UNL     1       1.329   0.670   0.052  0.00  0.00    -0.011 C 
ATOM     16  C   UNL     1       2.137   0.653   1.161  0.00  0.00    +0.001 C 
ATOM     17  C   UNL     1       3.517   0.594   0.809  0.00  0.00    +0.007 C 
ATOM     18  C   UNL     1       3.702   0.569  -0.556  0.00  0.00    +0.035 C 
ENDBRANCH   1  15
TORSDOF 2
