REMARK  Name = 656894
REMARK  7 active torsions:
REMARK  status: ('A' for Active; 'I' for Inactive)
REMARK    1  A    between atoms: C_2  and  O_7
REMARK    2  A    between atoms: C_3  and  O_9
REMARK    3  A    between atoms: C_4  and  O_11
REMARK    4  A    between atoms: C_5  and  C_17
REMARK    5  A    between atoms: C_6  and  S_13
REMARK    6  A    between atoms: S_13  and  C_14
REMARK    7  A    between atoms: C_17  and  O_18
REMARK                            x       y       z     vdW  Elec       q    Type
REMARK                         _______ _______ _______ _____ _____    ______ ____
ROOT
ATOM      1  O   UNL     1       0.167   0.702   0.250  0.00  0.00    -0.340 OA
ATOM      2  C   UNL     1      -2.062  -0.936  -0.501  0.00  0.00    +0.170 C 
ATOM      3  C   UNL     1      -2.227   0.532  -0.107  0.00  0.00    +0.169 C 
ATOM      4  C   UNL     1      -0.801  -1.542   0.124  0.00  0.00    +0.177 C 
ATOM      5  C   UNL     1      -0.943   1.302  -0.429  0.00  0.00    +0.175 C 
ATOM      6  C   UNL     1       0.413  -0.645  -0.156  0.00  0.00    +0.192 C 
ENDROOT
BRANCH   2   7
ATOM      7  O   UNL     1      -3.199  -1.686  -0.081  0.00  0.00    -0.379 OA
ATOM      8  H   UNL     1      -4.000  -1.306  -0.475  0.00  0.00    +0.211 HD
ENDBRANCH   2   7
BRANCH   3   9
ATOM      9  O   UNL     1      -2.487   0.625   1.296  0.00  0.00    -0.379 OA
ATOM     10  H   UNL     1      -3.299   0.139   1.507  0.00  0.00    +0.211 HD
ENDBRANCH   3   9
BRANCH   4  11
ATOM     11  O   UNL     1      -0.585  -2.830  -0.452  0.00  0.00    -0.379 OA
ATOM     12  H   UNL     1      -1.352  -3.396  -0.275  0.00  0.00    +0.211 HD
ENDBRANCH   4  11
BRANCH   6  13
ATOM     13  S   UNL     1       1.885  -1.292   0.718  0.00  0.00    -0.110 S 
BRANCH  13  14
ATOM     14  C   UNL     1       3.066  -0.038   0.178  0.00  0.00    +0.050 C 
ATOM     15  C   UNL     1       4.428  -0.312   0.802  0.00  0.00    +0.012 C 
ATOM     16  C   UNL     1       3.143  -0.027  -1.344  0.00  0.00    +0.012 C 
ENDBRANCH  13  14
ENDBRANCH   6  13
BRANCH   5  17
ATOM     17  C   UNL     1      -1.013   2.759   0.014  0.00  0.00    +0.169 C 
BRANCH  17  18
ATOM     18  O   UNL     1       0.213   3.389  -0.311  0.00  0.00    -0.379 OA
ATOM     19  H   UNL     1       0.182   4.319  -0.034  0.00  0.00    +0.211 HD
ENDBRANCH  17  18
ENDBRANCH   5  17
TORSDOF 7
