REMARK  Name = 448580
REMARK  6 active torsions:
REMARK  status: ('A' for Active; 'I' for Inactive)
REMARK    1  A    between atoms: CA_1  and  N_3
REMARK    2  A    between atoms: CA_1  and  C_8
REMARK    3  A    between atoms: CA_1  and  CB_11
REMARK    4  A    between atoms: C_8  and  O_9
REMARK    5  A    between atoms: CB_11  and  CG_12
REMARK    6  A    between atoms: CG_12  and  SD_13
REMARK                            x       y       z     vdW  Elec       q    Type
REMARK                         _______ _______ _______ _____ _____    ______ ____
ROOT
ATOM      1  CA  MET A   1      -0.502   0.585   0.525  0.00  0.00    +0.172 C 
ENDROOT
BRANCH   1   3
ATOM      2  O   UNK A   0      -2.621  -1.289   1.180  0.00  0.00    -0.275 OA
ATOM      3  N   MET A   1      -1.287  -0.202  -0.390  0.00  0.00    -0.297 N 
ATOM      4  C   UNK A   0      -2.284  -1.076   0.018  0.00  0.00    +0.223 C 
ATOM      5  C   UNK A   0      -2.965  -1.752  -1.143  0.00  0.00    +0.095 C 
ATOM      6  H   MET A   1      -1.107  -0.116  -1.354  0.00  0.00    +0.150 HD
ENDBRANCH   1   3
BRANCH   1   8
ATOM      7  OXT MET A   1       0.426   2.820   0.606  0.00  0.00    -0.248 OA
ATOM      8  C   MET A   1      -0.153   1.953  -0.041  0.00  0.00    +0.332 C 
BRANCH   8   9
ATOM      9  O   MET A   1      -0.583   2.163  -1.308  0.00  0.00    -0.479 OA
ATOM     10  H   MET A   1      -1.021   1.478  -1.773  0.00  0.00    +0.295 HD
ENDBRANCH   8   9
ENDBRANCH   1   8
BRANCH   1  11
ATOM     11  CB  MET A   1       0.741  -0.177   1.004  0.00  0.00    +0.043 C 
BRANCH  11  12
ATOM     12  CG  MET A   1       1.789  -0.392  -0.091  0.00  0.00    +0.060 C 
BRANCH  12  13
ATOM     13  SD  MET A   1       3.214  -1.306   0.568  0.00  0.00    -0.139 S 
ATOM     14  CE  MET A   1       4.225  -1.327  -0.930  0.00  0.00    +0.069 C 
ENDBRANCH  12  13
ENDBRANCH  11  12
ENDBRANCH   1  11
TORSDOF 6
