REMARK  Name = 1779
REMARK  2 active torsions:
REMARK  status: ('A' for Active; 'I' for Inactive)
REMARK    1  A    between atoms: CA_8  and  C_16
REMARK    2  A    between atoms: C_16  and  O_17
REMARK                            x       y       z     vdW  Elec       q    Type
REMARK                         _______ _______ _______ _____ _____    ______ ____
ROOT
ATOM      1 CL   UNL     1       2.594   2.649  -0.004  0.00  0.00    -0.082 Cl
ATOM      2 CL   UNL     1       3.923  -2.513  -0.002  0.00  0.00    -0.082 Cl
ATOM      3  O   UNL     1      -0.198   2.857   0.003  0.00  0.00    -0.286 OA
ATOM      4  N   UNL     1      -1.019  -1.105   0.003  0.00  0.00    -0.307 N 
ATOM      5  C   UNL     1       0.332  -0.738   0.001  0.00  0.00    +0.053 C 
ATOM      6  C   UNL     1       0.687   0.624   0.001  0.00  0.00    +0.063 C 
ATOM      7  C   UNL     1      -0.392   1.649   0.001  0.00  0.00    +0.199 C 
ATOM      8  CA  UNL     1      -2.009  -0.159   0.002  0.00  0.00    +0.128 C 
ATOM      9  C   UNL     1       1.344  -1.703   0.001  0.00  0.00    +0.026 C 
ATOM     10  C   UNL     1       2.029   1.013   0.000  0.00  0.00    +0.063 C 
ATOM     11  C   UNL     1      -1.800   1.165   0.001  0.00  0.00    +0.063 C 
ATOM     12  C   UNL     1       2.685  -1.315   0.000  0.00  0.00    +0.060 C 
ATOM     13  C   UNL     1       3.026   0.038   0.000  0.00  0.00    +0.023 C 
ATOM     14  H   UNL     1      -1.262  -2.059   0.004  0.00  0.00    +0.152 HD
ENDROOT
BRANCH   8  16
ATOM     15  OXT UNL     1      -4.369   0.121  -0.005  0.00  0.00    -0.244 OA
ATOM     16  C   UNL     1      -3.401  -0.617  -0.002  0.00  0.00    +0.352 C 
BRANCH  16  17
ATOM     17  O   UNL     1      -3.433  -1.966   0.000  0.00  0.00    -0.476 OA
ATOM     18  H   UNL     1      -2.634  -2.454   0.003  0.00  0.00    +0.295 HD
ENDBRANCH  16  17
ENDBRANCH   8  16
TORSDOF 2
