REMARK  Name = 16630
REMARK  1 active torsions:
REMARK  status: ('A' for Active; 'I' for Inactive)
REMARK    1  A    between atoms: C_4  and  C_9
REMARK                            x       y       z     vdW  Elec       q    Type
REMARK                         _______ _______ _______ _____ _____    ______ ____
ROOT
ATOM      1  O   UNL     1       1.498  -0.514   0.703  0.00  0.00    -0.447 OA
ATOM      2  N   UNL     1       2.701   0.757  -0.762  0.00  0.00    -0.220 NA
ATOM      3  N   UNL     1       3.661  -1.142   0.330  0.00  0.00    -0.313 N 
ATOM      4  C   UNL     1       0.676   0.624   0.457  0.00  0.00    +0.215 C 
ATOM      5  C   UNL     1       1.335   1.292  -0.737  0.00  0.00    +0.178 C 
ATOM      6  C   UNL     1       2.663  -0.261   0.041  0.00  0.00    +0.277 C 
ATOM      7  H   UNL     1       3.500  -1.878   0.963  0.00  0.00    +0.147 HD
ATOM      8  H   UNL     1       4.544  -1.043  -0.094  0.00  0.00    +0.147 HD
ENDROOT
BRANCH   4   9
ATOM      9  C   UNL     1      -0.760   0.235   0.217  0.00  0.00    +0.019 C 
ATOM     10  C   UNL     1      -1.785   1.134   0.511  0.00  0.00    -0.001 C 
ATOM     11  C   UNL     1      -1.064  -1.025  -0.299  0.00  0.00    -0.001 C 
ATOM     12  C   UNL     1      -3.114   0.773   0.289  0.00  0.00    -0.000 C 
ATOM     13  C   UNL     1      -2.393  -1.385  -0.521  0.00  0.00    -0.000 C 
ATOM     14  C   UNL     1      -3.418  -0.486  -0.227  0.00  0.00    -0.000 C 
ENDBRANCH   4   9
TORSDOF 1
