REMARK  Name = 447805
REMARK  9 active torsions:
REMARK  status: ('A' for Active; 'I' for Inactive)
REMARK    1  A    between atoms: C_1  and  C_3
REMARK    2  A    between atoms: C_1  and  C_6
REMARK    3  A    between atoms: C_1  and  C_13
REMARK    4  A    between atoms: C_3  and  O_4
REMARK    5  A    between atoms: C_6  and  O_7
REMARK    6  A    between atoms: C_6  and  C_10
REMARK    7  A    between atoms: C_10  and  O_11
REMARK    8  A    between atoms: C_13  and  C_15
REMARK    9  A    between atoms: C_15  and  O_16
REMARK                            x       y       z     vdW  Elec       q    Type
REMARK                         _______ _______ _______ _____ _____    ______ ____
ROOT
ATOM      1  C   UNL     1      -0.026   0.239  -0.374  0.00  0.00    +0.148 C 
ENDROOT
BRANCH   1   3
ATOM      2  O   UNL     1       1.510   1.729   0.803  0.00  0.00    -0.250 OA
ATOM      3  C   UNL     1       0.881   1.446  -0.207  0.00  0.00    +0.317 C 
BRANCH   3   4
ATOM      4  O   UNL     1       0.931   2.174  -1.352  0.00  0.00    -0.480 OA
ATOM      5  H   UNL     1       0.428   1.911  -2.097  0.00  0.00    +0.295 HD
ENDBRANCH   3   4
ENDBRANCH   1   3
BRANCH   1   6
ATOM      6  C   UNL     1      -1.462   0.649   0.008  0.00  0.00    +0.221 C 
BRANCH   6   7
ATOM      7  O   UNL     1      -1.502   1.127   1.344  0.00  0.00    -0.374 OA
ATOM      8  H   UNL     1      -0.878   1.864   1.443  0.00  0.00    +0.211 HD
ENDBRANCH   6   7
BRANCH   6  10
ATOM      9  O   UNL     1      -3.079  -0.985   0.803  0.00  0.00    -0.248 OA
ATOM     10  C   UNL     1      -2.442  -0.502  -0.124  0.00  0.00    +0.342 C 
BRANCH  10  11
ATOM     11  O   UNL     1      -2.520  -0.971  -1.396  0.00  0.00    -0.479 OA
ATOM     12  H   UNL     1      -2.014  -0.570  -2.075  0.00  0.00    +0.295 HD
ENDBRANCH  10  11
ENDBRANCH   6  10
ENDBRANCH   1   6
BRANCH   1  13
ATOM     13  C   UNL     1       0.553  -0.942   0.419  0.00  0.00    +0.123 C 
BRANCH  13  15
ATOM     14  O   UNL     1       2.356  -1.487  -1.093  0.00  0.00    -0.250 OA
ATOM     15  C   UNL     1       1.982  -1.249   0.049  0.00  0.00    +0.314 C 
BRANCH  15  16
ATOM     16  O   UNL     1       2.816  -1.231   1.118  0.00  0.00    -0.480 OA
ATOM     17  H   UNL     1       2.479  -1.043   1.972  0.00  0.00    +0.295 HD
ENDBRANCH  15  16
ENDBRANCH  13  15
ENDBRANCH   1  13
TORSDOF 9
