REMARK  Name = 448670
REMARK  8 active torsions:
REMARK  status: ('A' for Active; 'I' for Inactive)
REMARK    1  A    between atoms: P_1  and  O_3
REMARK    2  A    between atoms: P_1  and  O_5
REMARK    3  A    between atoms: P_1  and  O_9
REMARK    4  A    between atoms: O_5  and  C_6
REMARK    5  A    between atoms: C_6  and  C_7
REMARK    6  A    between atoms: O_9  and  P_10
REMARK    7  A    between atoms: P_10  and  O_12
REMARK    8  A    between atoms: P_10  and  O_14
REMARK                            x       y       z     vdW  Elec       q    Type
REMARK                         _______ _______ _______ _____ _____    ______ ____
ROOT
ATOM      1  P   UNL     1      -0.216  -1.467   0.006  0.00  0.00    +0.484 P 
ATOM      2  O   UNL     1      -0.990  -2.284  -0.988  0.00  0.00    -0.227 OA
ENDROOT
BRANCH   1   3
ATOM      3  O   UNL     1       0.310  -2.300   1.289  0.00  0.00    -0.302 OA
ATOM      4  H   UNL     1       0.798  -1.707   1.881  0.00  0.00    +0.222 HD
ENDBRANCH   1   3
BRANCH   1   5
ATOM      5  O   UNL     1       1.112  -0.757  -0.587  0.00  0.00    -0.273 OA
BRANCH   5   6
ATOM      6  C   UNL     1       1.925   0.041   0.255  0.00  0.00    +0.154 C 
BRANCH   6   7
ATOM      7  C   UNL     1       3.095   0.578  -0.555  0.00  0.00    +0.033 C 
ATOM      8  C   UNL     1       4.022   1.433   0.289  0.00  0.00    +0.003 C 
ENDBRANCH   6   7
ENDBRANCH   5   6
ENDBRANCH   1   5
BRANCH   1   9
ATOM      9  O   UNL     1      -1.060  -0.258   0.670  0.00  0.00    -0.186 OA
BRANCH   9  10
ATOM     10  P   UNL     1      -1.787   1.021   0.001  0.00  0.00    +0.481 P 
ATOM     11  O   UNL     1      -0.871   1.937  -0.755  0.00  0.00    -0.227 OA
BRANCH  10  12
ATOM     12  O   UNL     1      -2.562   1.696   1.248  0.00  0.00    -0.302 OA
ATOM     13  H   UNL     1      -3.128   1.033   1.674  0.00  0.00    +0.222 HD
ENDBRANCH  10  12
BRANCH  10  14
ATOM     14  O   UNL     1      -2.977   0.360  -0.871  0.00  0.00    -0.302 OA
ATOM     15  H   UNL     1      -3.514  -0.213  -0.303  0.00  0.00    +0.222 HD
ENDBRANCH  10  14
ENDBRANCH   9  10
ENDBRANCH   1   9
TORSDOF 8
