REMARK  Name = 31477
REMARK  9 active torsions:
REMARK  status: ('A' for Active; 'I' for Inactive)
REMARK    1  A    between atoms: C_1  and  O_10
REMARK    2  A    between atoms: C_5  and  O_22
REMARK    3  A    between atoms: O_10  and  C_11
REMARK    4  A    between atoms: C_11  and  C_12
REMARK    5  A    between atoms: C_12  and  O_13
REMARK    6  A    between atoms: C_12  and  C_15
REMARK    7  A    between atoms: C_15  and  N_16
REMARK    8  A    between atoms: N_16  and  C_19
REMARK    9  A    between atoms: O_22  and  C_24
REMARK                            x       y       z     vdW  Elec       q    Type
REMARK                         _______ _______ _______ _____ _____    ______ ____
ROOT
ATOM      1  C   UNL     1       0.194   1.277  -0.245  0.00  0.00    +0.134 C 
ATOM      2  C   UNL     1      -0.412   0.664  -1.338  0.00  0.00    +0.011 C 
ATOM      3  C   UNL     1      -1.758   0.302  -1.271  0.00  0.00    +0.011 C 
ATOM      4  C   UNL     1      -1.879   1.171   0.980  0.00  0.00    +0.015 C 
ATOM      5  C   UNL     1      -2.491   0.556  -0.112  0.00  0.00    +0.140 C 
ATOM      6  C   UNL     1      -0.533   1.532   0.913  0.00  0.00    +0.035 C 
ATOM      7  C   UNL     1       0.381   0.395  -2.577  0.00  0.00    +0.034 C 
ATOM      8  C   UNL     1      -2.420  -0.357  -2.439  0.00  0.00    +0.034 C 
ATOM      9  C   UNL     1      -2.647   1.451   2.230  0.00  0.00    +0.034 C 
ENDROOT
BRANCH   1  10
ATOM     10  O   UNL     1       1.513   1.639  -0.293  0.00  0.00    -0.473 OA
BRANCH  10  11
ATOM     11  C   UNL     1       2.224   1.630   0.942  0.00  0.00    +0.232 C 
BRANCH  11  12
ATOM     12  C   UNL     1       3.688   1.294   0.665  0.00  0.00    +0.133 C 
BRANCH  12  13
ATOM     13  O   UNL     1       4.219   2.276  -0.229  0.00  0.00    -0.383 OA
ATOM     14  H   UNL     1       5.150   2.075  -0.414  0.00  0.00    +0.210 HD
ENDBRANCH  12  13
BRANCH  12  15
ATOM     15  C   UNL     1       3.885  -0.085   0.033  0.00  0.00    -0.048 C 
BRANCH  15  16
ATOM     16  N   UNL     1       3.336  -1.151   0.861  0.00  0.00    +0.387 N 
ATOM     17  H   UNL     1       2.345  -0.971   1.023  0.00  0.00    -0.084 HD
ATOM     18  H   UNL     1       3.844  -1.170   1.745  0.00  0.00    -0.084 HD
BRANCH  16  19
ATOM     19  C   UNL     1       3.486  -2.445   0.211  0.00  0.00    -0.062 C 
ATOM     20  C   UNL     1       2.762  -2.450  -1.133  0.00  0.00    -0.023 C 
ATOM     21  C   UNL     1       2.947  -3.539   1.127  0.00  0.00    -0.023 C 
ENDBRANCH  16  19
ENDBRANCH  15  16
ENDBRANCH  12  15
ENDBRANCH  11  12
ENDBRANCH  10  11
ENDBRANCH   1  10
BRANCH   5  22
ATOM     22  O   UNL     1      -3.807   0.203  -0.044  0.00  0.00    -0.425 OA
BRANCH  22  24
ATOM     23  O   UNL     1      -3.160  -1.884   0.794  0.00  0.00    -0.250 OA
ATOM     24  C   UNL     1      -4.027  -1.093   0.445  0.00  0.00    +0.322 C 
ATOM     25  C   UNL     1      -5.498  -1.384   0.480  0.00  0.00    +0.122 C 
ENDBRANCH  22  24
ENDBRANCH   5  22
TORSDOF 9
