REMARK  Name = 4477692
REMARK  10 active torsions:
REMARK  status: ('A' for Active; 'I' for Inactive)
REMARK    1  A    between atoms: N_2  and  C_7
REMARK    2  A    between atoms: C_4  and  C_19
REMARK    3  A    between atoms: C_7  and  C_11
REMARK    4  A    between atoms: C_19  and  C_20
REMARK    5  A    between atoms: C_20  and  O_21
REMARK    6  A    between atoms: O_21  and  P_22
REMARK    7  A    between atoms: P_22  and  O_24
REMARK    8  A    between atoms: P_22  and  O_26
REMARK    9  A    between atoms: O_26  and  P_27
REMARK   10  A    between atoms: P_27  and  O_30
REMARK                            x       y       z     vdW  Elec       q    Type
REMARK                         _______ _______ _______ _____ _____    ______ ____
ROOT
ATOM      1  S   UNL     1      -0.220  -1.593   1.617  0.00  0.00    -0.095 S 
ATOM      2  N   UNL     1       1.065  -1.133  -0.486  0.00  0.00    -0.300 N 
ATOM      3  C   UNL     1      -0.077  -1.773  -0.915  0.00  0.00    +0.028 C 
ATOM      4  C   UNL     1      -0.880  -2.089   0.127  0.00  0.00    +0.016 C 
ATOM      5  C   UNL     1       1.151  -0.958   0.815  0.00  0.00    +0.154 C 
ATOM      6  C   UNL     1      -0.246  -2.007  -2.356  0.00  0.00    +0.047 C 
ENDROOT
BRANCH   2   7
ATOM      7  C   UNL     1       2.106  -0.678  -1.376  0.00  0.00    +0.106 C 
BRANCH   7  11
ATOM      8  N   UNL     1       4.142   1.945   0.403  0.00  0.00    -0.352 NA
ATOM      9  N   UNL     1       5.266  -0.175   0.624  0.00  0.00    -0.333 NA
ATOM     10  N   UNL     1       4.338  -2.127  -0.348  0.00  0.00    -0.335 N 
ATOM     11  C   UNL     1       3.203  -0.025  -0.580  0.00  0.00    +0.136 C 
ATOM     12  C   UNL     1       3.180   1.319  -0.307  0.00  0.00    +0.108 C 
ATOM     13  C   UNL     1       4.270  -0.736  -0.092  0.00  0.00    +0.174 C 
ATOM     14  C   UNL     1       2.063   2.184  -0.792  0.00  0.00    +0.063 C 
ATOM     15  C   UNL     1       5.140   1.150   0.832  0.00  0.00    +0.115 C 
ATOM     16  C   UNL     1       6.222   1.806   1.620  0.00  0.00    +0.143 C 
ATOM     17  H   UNL     1       5.097  -2.654  -0.006  0.00  0.00    +0.144 HD
ATOM     18  H   UNL     1       3.628  -2.568  -0.868  0.00  0.00    +0.144 HD
ENDBRANCH   7  11
ENDBRANCH   2   7
BRANCH   4  19
ATOM     19  C   UNL     1      -2.218  -2.790   0.112  0.00  0.00    +0.066 C 
BRANCH  19  20
ATOM     20  C   UNL     1      -3.378  -1.807  -0.018  0.00  0.00    +0.159 C 
BRANCH  20  21
ATOM     21  O   UNL     1      -3.401  -0.907   1.077  0.00  0.00    -0.273 OA
BRANCH  21  22
ATOM     22  P   UNL     1      -4.545   0.234   1.162  0.00  0.00    +0.484 P 
ATOM     23  O   UNL     1      -4.459   1.123   2.369  0.00  0.00    -0.227 OA
BRANCH  22  24
ATOM     24  O   UNL     1      -5.937  -0.580   1.030  0.00  0.00    -0.302 OA
ATOM     25  H   UNL     1      -5.916  -1.128   0.230  0.00  0.00    +0.222 HD
ENDBRANCH  22  24
BRANCH  22  26
ATOM     26  O   UNL     1      -4.440   1.021  -0.247  0.00  0.00    -0.185 OA
BRANCH  26  27
ATOM     27  P   UNL     1      -3.246   1.954  -0.852  0.00  0.00    +0.511 P 
ATOM     28  O   UNL     1      -2.032   1.092  -1.121  0.00  0.00    -0.225 OA
ATOM     29  O   UNL     1      -3.135   3.210  -0.017  0.00  0.00    -0.116 OA
BRANCH  27  30
ATOM     30  O   UNL     1      -3.935   2.340  -2.281  0.00  0.00    -0.301 OA
ATOM     31  H   UNL     1      -4.012   1.543  -2.828  0.00  0.00    +0.222 HD
ENDBRANCH  27  30
ENDBRANCH  26  27
ENDBRANCH  22  26
ENDBRANCH  21  22
ENDBRANCH  20  21
ENDBRANCH  19  20
ENDBRANCH   4  19
TORSDOF 10
