REMARK  Name = 10668
REMARK  4 active torsions:
REMARK  status: ('A' for Active; 'I' for Inactive)
REMARK    1  A    between atoms: C_1  and  C_13
REMARK    2  A    between atoms: C_2  and  C_4
REMARK    3  A    between atoms: C_2  and  C_9
REMARK    4  A    between atoms: C_13  and  N_15
REMARK                            x       y       z     vdW  Elec       q    Type
REMARK                         _______ _______ _______ _____ _____    ______ ____
ROOT
ATOM      1  C   UNL     1       0.467   1.068  -0.461  0.00  0.00    -0.046 C 
ATOM      2  C   UNL     1      -0.467   0.130  -0.183  0.00  0.00    +0.006 C 
ENDROOT
BRANCH   2   4
ATOM      3  S   UNL     1      -2.474   0.965   1.421  0.00  0.00    -0.086 S 
ATOM      4  C   UNL     1      -1.854   0.497  -0.091  0.00  0.00    +0.030 C 
ATOM      5  C   UNL     1      -2.777   0.522  -1.092  0.00  0.00    +0.007 C 
ATOM      6  C   UNL     1      -4.050   0.942  -0.608  0.00  0.00    +0.007 C 
ATOM      7  C   UNL     1      -4.026   1.214   0.742  0.00  0.00    +0.035 C 
ENDBRANCH   2   4
BRANCH   2   9
ATOM      8  S   UNL     1       0.071  -2.248  -1.346  0.00  0.00    -0.086 S 
ATOM      9  C   UNL     1      -0.017  -1.226   0.007  0.00  0.00    +0.030 C 
ATOM     10  C   UNL     1       0.363  -1.818   1.170  0.00  0.00    +0.007 C 
ATOM     11  C   UNL     1       0.745  -3.174   0.954  0.00  0.00    +0.007 C 
ATOM     12  C   UNL     1       0.634  -3.538  -0.370  0.00  0.00    +0.035 C 
ENDBRANCH   2   9
BRANCH   1  13
ATOM     13  C   UNL     1       1.962   0.886  -0.599  0.00  0.00    -0.035 C 
ATOM     14  C   UNL     1       2.423   1.305  -1.995  0.00  0.00    -0.018 C 
BRANCH  13  15
ATOM     15  N   UNL     1       2.667   1.677   0.416  0.00  0.00    +0.388 N 
ATOM     16  C   UNL     1       4.111   1.502   0.283  0.00  0.00    -0.100 C 
ATOM     17  C   UNL     1       2.223   1.295   1.754  0.00  0.00    -0.100 C 
ATOM     18  H   UNL     1       2.447   2.663   0.274  0.00  0.00    -0.079 HD
ENDBRANCH  13  15
ENDBRANCH   1  13
TORSDOF 4
