REMARK  Name = 102146
REMARK  1 active torsions:
REMARK  status: ('A' for Active; 'I' for Inactive)
REMARK    1  A    between atoms: C_6  and  O_23
REMARK                            x       y       z     vdW  Elec       q    Type
REMARK                         _______ _______ _______ _____ _____    ______ ____
ROOT
ATOM      1  O   UNL     1       5.758   0.088  -0.970  0.00  0.00    -0.291 OA
ATOM      2  C   UNL     1      -1.835   0.687  -0.093  0.00  0.00    +0.002 C 
ATOM      3  C   UNL     1      -2.623  -0.621   0.141  0.00  0.00    +0.023 C 
ATOM      4  C   UNL     1      -0.416   0.655   0.497  0.00  0.00    +0.001 C 
ATOM      5  C   UNL     1       0.380  -0.531  -0.141  0.00  0.00    +0.003 C 
ATOM      6  C   UNL     1      -4.014  -0.228  -0.447  0.00  0.00    +0.088 C 
ATOM      7  C   UNL     1       1.857  -0.649   0.407  0.00  0.00    +0.016 C 
ATOM      8  C   UNL     1      -1.863  -1.751  -0.572  0.00  0.00    +0.002 C 
ATOM      9  C   UNL     1      -0.412  -1.868  -0.073  0.00  0.00    +0.000 C 
ATOM     10  C   UNL     1      -2.796   1.768   0.392  0.00  0.00    +0.002 C 
ATOM     11  C   UNL     1       0.341   2.000   0.347  0.00  0.00    +0.004 C 
ATOM     12  C   UNL     1      -4.195   1.240   0.024  0.00  0.00    +0.027 C 
ATOM     13  C   UNL     1       1.734   1.873   0.978  0.00  0.00    +0.022 C 
ATOM     14  C   UNL     1       2.532   0.728   0.401  0.00  0.00    -0.042 C 
ATOM     15  C   UNL     1      -2.784  -0.993   1.644  0.00  0.00    +0.002 C 
ATOM     16  C   UNL     1       2.640  -1.628  -0.517  0.00  0.00    +0.012 C 
ATOM     17  C   UNL     1      -4.144  -0.320  -1.972  0.00  0.00    +0.029 C 
ATOM     18  C   UNL     1       1.895  -1.190   1.855  0.00  0.00    +0.004 C 
ATOM     19  C   UNL     1       0.444   2.526  -1.091  0.00  0.00    +0.000 C 
ATOM     20  C   UNL     1       4.149  -1.565  -0.332  0.00  0.00    +0.069 C 
ATOM     21  C   UNL     1       3.775   0.954  -0.057  0.00  0.00    +0.029 C 
ATOM     22  C   UNL     1       4.641  -0.154  -0.518  0.00  0.00    +0.173 C 
ENDROOT
BRANCH   6  23
ATOM     23  O   UNL     1      -5.064  -1.023   0.099  0.00  0.00    -0.387 OA
ATOM     24  H   UNL     1      -5.022  -0.994   1.068  0.00  0.00    +0.210 HD
ENDBRANCH   6  23
TORSDOF 1
