REMARK  Name = 76008
REMARK  3 active torsions:
REMARK  status: ('A' for Active; 'I' for Inactive)
REMARK    1  A    between atoms: C_1  and  C_2
REMARK    2  A    between atoms: C_1  and  C_4
REMARK    3  A    between atoms: C_4  and  N_5
REMARK                            x       y       z     vdW  Elec       q    Type
REMARK                         _______ _______ _______ _____ _____    ______ ____
ROOT
ATOM      1  C   UNL     1       0.524  -0.237   0.007  0.00  0.00    +0.042 C 
ENDROOT
BRANCH   1   2
ATOM      2  C   UNL     1       1.883   0.466  -0.014  0.00  0.00    +0.003 C 
ATOM      3  C   UNL     1       3.027  -0.537   0.004  0.00  0.00    +0.000 C 
ENDBRANCH   1   2
BRANCH   1   4
ATOM      4  C   UNL     1      -0.636   0.750   0.009  0.00  0.00    +0.200 C 
BRANCH   4   5
ATOM      5  N   UNL     1      -1.887   0.061   0.001  0.00  0.00    -0.374 NA
ATOM      6  C   UNL     1      -2.911  -0.503  -0.006  0.00  0.00    +0.129 C 
ENDBRANCH   4   5
ENDBRANCH   1   4
TORSDOF 3
