REMARK  Name = 6077
REMARK  5 active torsions:
REMARK  status: ('A' for Active; 'I' for Inactive)
REMARK    1  A    between atoms: N_2  and  C_18
REMARK    2  A    between atoms: C_9  and  C_16
REMARK    3  A    between atoms: C_18  and  C_19
REMARK    4  A    between atoms: C_19  and  C_20
REMARK    5  A    between atoms: C_20  and  N_21
REMARK                            x       y       z     vdW  Elec       q    Type
REMARK                         _______ _______ _______ _____ _____    ______ ____
ROOT
ATOM      1  S   UNL     1      -0.193   3.494   0.137  0.00  0.00    -0.084 S 
ATOM      2  N   UNL     1      -0.584   0.441   0.575  0.00  0.00    -0.286 N 
ATOM      3  C   UNL     1       0.743   0.857   0.295  0.00  0.00    +0.058 C 
ATOM      4  C   UNL     1      -1.754   1.169   0.244  0.00  0.00    +0.058 C 
ATOM      5  C   UNL     1       1.043   2.213   0.055  0.00  0.00    +0.043 C 
ATOM      6  C   UNL     1      -1.701   2.556  -0.002  0.00  0.00    +0.043 C 
ATOM      7  C   UNL     1       1.812  -0.061   0.208  0.00  0.00    +0.018 C 
ATOM      8  C   UNL     1      -3.012   0.542   0.109  0.00  0.00    +0.015 C 
ATOM      9  C   UNL     1       3.117   0.348  -0.079  0.00  0.00    +0.036 C 
ATOM     10  C   UNL     1       2.358   2.619  -0.230  0.00  0.00    +0.008 C 
ATOM     11  C   UNL     1      -2.864   3.272  -0.337  0.00  0.00    +0.008 C 
ATOM     12  C   UNL     1       3.391   1.690  -0.295  0.00  0.00    +0.003 C 
ATOM     13  C   UNL     1      -4.163   1.258  -0.230  0.00  0.00    +0.001 C 
ATOM     14  C   UNL     1      -4.090   2.625  -0.450  0.00  0.00    +0.001 C 
ENDROOT
BRANCH   9  16
ATOM     15  O   UNL     1       3.975  -1.846   0.046  0.00  0.00    -0.291 OA
ATOM     16  C   UNL     1       4.190  -0.632  -0.144  0.00  0.00    +0.174 C 
ATOM     17  C   UNL     1       5.617  -0.191  -0.448  0.00  0.00    +0.077 C 
ENDBRANCH   9  16
BRANCH   2  18
ATOM     18  C   UNL     1      -0.761  -0.878   1.196  0.00  0.00    +0.093 C 
BRANCH  18  19
ATOM     19  C   UNL     1      -0.919  -1.961   0.129  0.00  0.00    -0.001 C 
BRANCH  19  20
ATOM     20  C   UNL     1      -1.166  -3.368   0.680  0.00  0.00    -0.076 C 
BRANCH  20  21
ATOM     21  N   UNL     1      -1.261  -4.362  -0.383  0.00  0.00    +0.384 N 
ATOM     22  C   UNL     1      -2.403  -4.077  -1.254  0.00  0.00    -0.101 C 
ATOM     23  C   UNL     1      -1.374  -5.709   0.178  0.00  0.00    -0.101 C 
ATOM     24  H   UNL     1      -0.408  -4.313  -0.941  0.00  0.00    -0.080 HD
ENDBRANCH  20  21
ENDBRANCH  19  20
ENDBRANCH  18  19
ENDBRANCH   2  18
TORSDOF 5
