REMARK  Name = 29927142
REMARK  8 active torsions:
REMARK  status: ('A' for Active; 'I' for Inactive)
REMARK    1  A    between atoms: N_1  and  C_4
REMARK    2  A    between atoms: N_1  and  C_11
REMARK    3  A    between atoms: C_4  and  C_5
REMARK    4  A    between atoms: C_5  and  C_6
REMARK    5  A    between atoms: C_6  and  N_7
REMARK    6  A    between atoms: C_11  and  C_12
REMARK    7  A    between atoms: C_12  and  S_13
REMARK    8  A    between atoms: S_13  and  P_14
REMARK                            x       y       z     vdW  Elec       q    Type
REMARK                         _______ _______ _______ _____ _____    ______ ____
ROOT
ATOM      1  N   UNL     1      -1.530   0.830   0.237  0.00  0.00    +0.384 N 
ATOM      2  H   UNL     1      -1.333  -0.139  -0.015  0.00  0.00    -0.084 HD
ATOM      3  H   UNL     1      -1.362   1.026   1.224  0.00  0.00    -0.084 HD
ENDROOT
BRANCH   1   4
ATOM      4  C   UNL     1      -2.969   1.087  -0.004  0.00  0.00    -0.084 C 
BRANCH   4   5
ATOM      5  C   UNL     1      -3.832   0.103   0.780  0.00  0.00    -0.047 C 
BRANCH   5   6
ATOM      6  C   UNL     1      -3.623  -1.371   0.452  0.00  0.00    -0.088 C 
BRANCH   6   7
ATOM      7  N   UNL     1      -3.969  -1.647  -0.962  0.00  0.00    +0.380 N 
ATOM      8  H   UNL     1      -3.823  -2.637  -1.160  0.00  0.00    -0.089 HD
ATOM      9  H   UNL     1      -3.375  -1.086  -1.572  0.00  0.00    -0.089 HD
ATOM     10  H   UNL     1      -4.947  -1.408  -1.125  0.00  0.00    -0.089 HD
ENDBRANCH   6   7
ENDBRANCH   5   6
ENDBRANCH   4   5
ENDBRANCH   1   4
BRANCH   1  11
ATOM     11  C   UNL     1      -0.609   1.709  -0.534  0.00  0.00    -0.069 C 
BRANCH  11  12
ATOM     12  C   UNL     1       0.835   1.422  -0.157  0.00  0.00    +0.046 C 
BRANCH  12  13
ATOM     13  S   UNL     1       1.308  -0.297  -0.510  0.00  0.00    -0.029 S 
BRANCH  13  14
ATOM     14  P   UNL     1       3.361  -0.440   0.104  0.00  0.00    +0.445 P 
ATOM     15  O   UNL     1       3.686  -1.892  -0.217  0.00  0.00    -0.130 OA
ATOM     16  O   UNL     1       3.293  -0.098   1.587  0.00  0.00    -0.130 OA
ATOM     17  O   UNL     1       4.048   0.594  -0.776  0.00  0.00    -0.241 OA
ENDBRANCH  13  14
ENDBRANCH  12  13
ENDBRANCH  11  12
ENDBRANCH   1  11
TORSDOF 8
