REMARK  Name = 4066
REMARK  2 active torsions:
REMARK  status: ('A' for Active; 'I' for Inactive)
REMARK    1  A    between atoms: N_2  and  C_15
REMARK    2  A    between atoms: C_15  and  C_18
REMARK                            x       y       z     vdW  Elec       q    Type
REMARK                         _______ _______ _______ _____ _____    ______ ____
ROOT
ATOM      1  S   UNL     1       2.977  -0.195  -1.433  0.00  0.00    -0.084 S 
ATOM      2  N   UNL     1       0.643   0.007   0.612  0.00  0.00    -0.286 N 
ATOM      3  C   UNL     1       1.359   1.208   0.374  0.00  0.00    +0.058 C 
ATOM      4  C   UNL     1       1.142  -1.299   0.374  0.00  0.00    +0.058 C 
ATOM      5  C   UNL     1       2.453   1.238  -0.513  0.00  0.00    +0.043 C 
ATOM      6  C   UNL     1       2.214  -1.517  -0.514  0.00  0.00    +0.043 C 
ATOM      7  C   UNL     1       1.037   2.413   1.036  0.00  0.00    +0.015 C 
ATOM      8  C   UNL     1       0.618  -2.431   1.036  0.00  0.00    +0.015 C 
ATOM      9  C   UNL     1       3.164   2.430  -0.739  0.00  0.00    +0.008 C 
ATOM     10  C   UNL     1       2.709  -2.814  -0.740  0.00  0.00    +0.008 C 
ATOM     11  C   UNL     1       1.750   3.594   0.812  0.00  0.00    +0.001 C 
ATOM     12  C   UNL     1       1.117  -3.717   0.812  0.00  0.00    +0.001 C 
ATOM     13  C   UNL     1       2.813   3.603  -0.079  0.00  0.00    +0.001 C 
ATOM     14  C   UNL     1       2.161  -3.909  -0.080  0.00  0.00    +0.001 C 
ENDROOT
BRANCH   2  15
ATOM     15  C   UNL     1      -0.691   0.122   1.214  0.00  0.00    +0.093 C 
BRANCH  15  18
ATOM     16  N   UNL     1      -3.186   0.700  -1.435  0.00  0.00    +0.387 N 
ATOM     17  C   UNL     1      -3.175  -0.391   0.926  0.00  0.00    -0.005 C 
ATOM     18  C   UNL     1      -1.764  -0.424   0.295  0.00  0.00    -0.001 C 
ATOM     19  C   UNL     1      -1.803   0.336  -1.050  0.00  0.00    -0.076 C 
ATOM     20  C   UNL     1      -3.684   1.059   0.987  0.00  0.00    -0.023 C 
ATOM     21  C   UNL     1      -4.111  -1.151  -0.032  0.00  0.00    -0.023 C 
ATOM     22  C   UNL     1      -3.715   1.650  -0.432  0.00  0.00    -0.077 C 
ATOM     23  C   UNL     1      -4.027  -0.516  -1.431  0.00  0.00    -0.077 C 
ATOM     24  H   UNL     1      -3.194   1.121  -2.364  0.00  0.00    -0.080 HD
ENDBRANCH  15  18
ENDBRANCH   2  15
TORSDOF 2
