REMARK  Name = 26035
REMARK  4 active torsions:
REMARK  status: ('A' for Active; 'I' for Inactive)
REMARK    1  A    between atoms: N_2  and  C_18
REMARK    2  A    between atoms: C_9  and  C_16
REMARK    3  A    between atoms: C_18  and  C_19
REMARK    4  A    between atoms: C_19  and  N_21
REMARK                            x       y       z     vdW  Elec       q    Type
REMARK                         _______ _______ _______ _____ _____    ______ ____
ROOT
ATOM      1  S   UNL     1       0.121   2.874   1.058  0.00  0.00    -0.084 S 
ATOM      2  N   UNL     1       0.447   0.057  -0.214  0.00  0.00    -0.288 N 
ATOM      3  C   UNL     1      -0.887   0.476   0.018  0.00  0.00    +0.058 C 
ATOM      4  C   UNL     1       1.563   0.922  -0.342  0.00  0.00    +0.058 C 
ATOM      5  C   UNL     1      -1.165   1.742   0.569  0.00  0.00    +0.043 C 
ATOM      6  C   UNL     1       1.528   2.233   0.172  0.00  0.00    +0.043 C 
ATOM      7  C   UNL     1      -1.995  -0.332  -0.321  0.00  0.00    +0.018 C 
ATOM      8  C   UNL     1       2.740   0.530  -1.017  0.00  0.00    +0.015 C 
ATOM      9  C   UNL     1      -3.310   0.086  -0.103  0.00  0.00    +0.036 C 
ATOM     10  C   UNL     1      -2.491   2.156   0.791  0.00  0.00    +0.008 C 
ATOM     11  C   UNL     1       2.634   3.090   0.035  0.00  0.00    +0.008 C 
ATOM     12  C   UNL     1      -3.558   1.330   0.456  0.00  0.00    +0.003 C 
ATOM     13  C   UNL     1       3.835   1.388  -1.155  0.00  0.00    +0.001 C 
ATOM     14  C   UNL     1       3.783   2.668  -0.625  0.00  0.00    +0.001 C 
ENDROOT
BRANCH   9  16
ATOM     15  O   UNL     1      -5.604  -0.431  -0.292  0.00  0.00    -0.291 OA
ATOM     16  C   UNL     1      -4.420  -0.780  -0.470  0.00  0.00    +0.174 C 
ATOM     17  C   UNL     1      -4.156  -2.150  -1.085  0.00  0.00    +0.077 C 
ENDBRANCH   9  16
BRANCH   2  18
ATOM     18  C   UNL     1       0.681  -1.381  -0.405  0.00  0.00    +0.075 C 
BRANCH  18  19
ATOM     19  C   UNL     1       1.713  -1.941   0.582  0.00  0.00    -0.038 C 
ATOM     20  C   UNL     1       1.297  -1.782   2.043  0.00  0.00    -0.021 C 
BRANCH  19  21
ATOM     21  N   UNL     1       1.946  -3.339   0.289  0.00  0.00    +0.387 N 
ATOM     22  C   UNL     1       3.010  -3.885   1.139  0.00  0.00    -0.101 C 
ATOM     23  C   UNL     1       2.290  -3.530  -1.125  0.00  0.00    -0.101 C 
ATOM     24  H   UNL     1       1.080  -3.841   0.486  0.00  0.00    -0.080 HD
ENDBRANCH  19  21
ENDBRANCH  18  19
ENDBRANCH   2  18
TORSDOF 4
