REMARK  Name = 32778
REMARK  7 active torsions:
REMARK  status: ('A' for Active; 'I' for Inactive)
REMARK    1  A    between atoms: C_1  and  S_7
REMARK    2  A    between atoms: C_2  and  C_23
REMARK    3  A    between atoms: S_7  and  N_12
REMARK    4  A    between atoms: N_11  and  N_16
REMARK    5  A    between atoms: C_23  and  C_24
REMARK    6  A    between atoms: C_24  and  N_26
REMARK    7  A    between atoms: C_27  and  C_31
REMARK                            x       y       z     vdW  Elec       q    Type
REMARK                         _______ _______ _______ _____ _____    ______ ____
ROOT
ATOM      1  C   UNL     1      -2.309   2.454   0.233  0.00  0.00    +0.125 C 
ATOM      2  C   UNL     1      -4.034   0.281  -0.054  0.00  0.00    -0.020 C 
ATOM      3  C   UNL     1      -2.344   1.458   1.209  0.00  0.00    +0.020 C 
ATOM      4  C   UNL     1      -3.137   2.364  -0.886  0.00  0.00    +0.020 C 
ATOM      5  C   UNL     1      -3.206   0.371   1.065  0.00  0.00    -0.003 C 
ATOM      6  C   UNL     1      -3.999   1.277  -1.030  0.00  0.00    -0.003 C 
ENDROOT
BRANCH   1   7
ATOM      7  S   UNL     1      -1.217   3.832   0.417  0.00  0.00    +0.077 S 
ATOM      8  O   UNL     1      -0.942   4.005   1.830  0.00  0.00    -0.150 OA
ATOM      9  O   UNL     1      -1.780   4.920  -0.361  0.00  0.00    -0.150 OA
BRANCH   7  12
ATOM     10  O   UNL     1       1.105   2.017   1.392  0.00  0.00    -0.250 OA
ATOM     11  N   UNL     1       2.190   2.096  -0.650  0.00  0.00    -0.230 N 
ATOM     12  N   UNL     1       0.184   3.245  -0.366  0.00  0.00    -0.168 N 
ATOM     13  C   UNL     1       1.177   2.404   0.229  0.00  0.00    +0.333 C 
ATOM     14  H   UNL     1       2.176   2.447  -1.570  0.00  0.00    +0.171 HD
ATOM     15  H   UNL     1       0.320   3.508  -1.306  0.00  0.00    +0.178 HD
BRANCH  11  16
ATOM     16  N   UNL     1       3.231   1.285  -0.224  0.00  0.00    -0.205 NA
ATOM     17  C   UNL     1       6.182   0.150  -0.711  0.00  0.00    +0.002 C 
ATOM     18  C   UNL     1       5.447  -1.167  -0.498  0.00  0.00    +0.002 C 
ATOM     19  C   UNL     1       5.727   1.290   0.192  0.00  0.00    +0.019 C 
ATOM     20  C   UNL     1       3.951  -1.089  -0.213  0.00  0.00    +0.019 C 
ATOM     21  C   UNL     1       4.491   2.021  -0.341  0.00  0.00    +0.092 C 
ATOM     22  C   UNL     1       3.194   0.013  -0.953  0.00  0.00    +0.092 C 
ENDBRANCH  11  16
ENDBRANCH   7  12
ENDBRANCH   1   7
BRANCH   2  23
ATOM     23  C   UNL     1      -4.955  -0.882  -0.208  0.00  0.00    +0.048 C 
BRANCH  23  24
ATOM     24  C   UNL     1      -4.328  -2.066  -0.956  0.00  0.00    +0.094 C 
BRANCH  24  26
ATOM     25  O   UNL     1      -1.697  -2.204  -2.010  0.00  0.00    -0.268 OA
ATOM     26  N   UNL     1      -3.172  -2.590  -0.280  0.00  0.00    -0.299 N 
ATOM     27  C   UNL     1      -1.911  -2.621  -0.872  0.00  0.00    +0.267 C 
ATOM     28  H   UNL     1      -3.275  -2.939   0.635  0.00  0.00    +0.150 HD
BRANCH  27  31
ATOM     29  O   UNL     1       0.105  -4.170   1.634  0.00  0.00    -0.358 OA
ATOM     30  N   UNL     1      -1.109  -3.686   1.159  0.00  0.00    -0.073 NA
ATOM     31  C   UNL     1      -0.839  -3.217  -0.062  0.00  0.00    +0.176 C 
ATOM     32  C   UNL     1       0.514  -3.376  -0.409  0.00  0.00    +0.063 C 
ATOM     33  C   UNL     1       1.063  -3.979   0.691  0.00  0.00    +0.155 C 
ATOM     34  C   UNL     1       2.417  -4.436   1.030  0.00  0.00    +0.075 C 
ENDBRANCH  27  31
ENDBRANCH  24  26
ENDBRANCH  23  24
ENDBRANCH   2  23
TORSDOF 7
