REMARK  Name = 9900246
REMARK  2 active torsions:
REMARK  status: ('A' for Active; 'I' for Inactive)
REMARK    1  A    between atoms: C_6  and  O_19
REMARK    2  A    between atoms: C_18  and  O_21
REMARK                            x       y       z     vdW  Elec       q    Type
REMARK                         _______ _______ _______ _____ _____    ______ ____
ROOT
ATOM      1  C   UNL     1      -1.976  -0.688   0.367  0.00  0.00    +0.003 C 
ATOM      2  C   UNL     1      -2.715   0.568  -0.135  0.00  0.00    +0.025 C 
ATOM      3  C   UNL     1      -0.533  -0.760  -0.131  0.00  0.00    +0.005 C 
ATOM      4  C   UNL     1       0.239   0.496   0.356  0.00  0.00    +0.004 C 
ATOM      5  C   UNL     1      -1.995   1.798   0.432  0.00  0.00    +0.002 C 
ATOM      6  C   UNL     1      -4.106   0.296   0.469  0.00  0.00    +0.110 C 
ATOM      7  C   UNL     1      -0.507   1.816   0.039  0.00  0.00    +0.000 C 
ATOM      8  C   UNL     1      -2.934  -1.827   0.029  0.00  0.00    +0.003 C 
ATOM      9  C   UNL     1       1.690   0.495  -0.213  0.00  0.00    +0.018 C 
ATOM     10  C   UNL     1      -4.330  -1.210   0.232  0.00  0.00    +0.029 C 
ATOM     11  C   UNL     1       0.176  -2.030   0.363  0.00  0.00    +0.025 C 
ATOM     12  C   UNL     1      -2.811   0.689  -1.677  0.00  0.00    +0.002 C 
ATOM     13  C   UNL     1       2.333  -0.884  -0.201  0.00  0.00    -0.046 C 
ATOM     14  C   UNL     1       2.571   1.506   0.554  0.00  0.00    +0.007 C 
ATOM     15  C   UNL     1       1.648  -2.003   0.092  0.00  0.00    -0.035 C 
ATOM     16  C   UNL     1       3.793  -0.938  -0.567  0.00  0.00    +0.051 C 
ATOM     17  C   UNL     1       4.033   1.469   0.117  0.00  0.00    +0.030 C 
ATOM     18  C   UNL     1       4.614   0.064   0.240  0.00  0.00    +0.115 C 
ENDROOT
BRANCH   6  19
ATOM     19  O   UNL     1      -5.143   1.058  -0.119  0.00  0.00    -0.384 OA
ATOM     20  H   UNL     1      -4.982   2.001   0.042  0.00  0.00    +0.210 HD
ENDBRANCH   6  19
BRANCH  18  21
ATOM     21  O   UNL     1       5.953   0.086  -0.246  0.00  0.00    -0.384 OA
ATOM     22  H   UNL     1       6.337  -0.802  -0.174  0.00  0.00    +0.210 HD
ENDBRANCH  18  21
TORSDOF 2
