REMARK  Name = 17754078
REMARK  9 active torsions:
REMARK  status: ('A' for Active; 'I' for Inactive)
REMARK    1  A    between atoms: C_1  and  O_2
REMARK    2  A    between atoms: C_1  and  C_11
REMARK    3  A    between atoms: O_2  and  P_3
REMARK    4  A    between atoms: P_3  and  O_5
REMARK    5  A    between atoms: P_3  and  O_7
REMARK    6  A    between atoms: O_7  and  C_8
REMARK    7  A    between atoms: C_11  and  N_12
REMARK    8  A    between atoms: C_11  and  C_17
REMARK    9  A    between atoms: C_17  and  O_18
REMARK                            x       y       z     vdW  Elec       q    Type
REMARK                         _______ _______ _______ _____ _____    ______ ____
ROOT
ATOM      1  C   UNK     1      -0.936  -0.877  -0.533  0.00  0.00    +0.143 C 
ENDROOT
BRANCH   1   2
ATOM      2  O   UNK     1      -0.001  -1.013   0.532  0.00  0.00    -0.275 OA
BRANCH   2   3
ATOM      3  P   UNK     1       1.571  -1.194   0.205  0.00  0.00    +0.476 P 
ATOM      4  O   UNK     1       2.449  -1.326   1.417  0.00  0.00    -0.227 OA
BRANCH   3   5
ATOM      5  O   UNK     1       1.628  -2.467  -0.793  0.00  0.00    -0.302 OA
ATOM      6  H   UNK     1       1.039  -2.312  -1.549  0.00  0.00    +0.222 HD
ENDBRANCH   3   5
BRANCH   3   7
ATOM      7  O   UNK     1       1.944   0.049  -0.765  0.00  0.00    -0.276 OA
BRANCH   7   8
ATOM      8  C   UNK     1       1.893   1.360  -0.231  0.00  0.00    +0.126 C 
ATOM      9  C   UNK     1       3.161   1.626   0.566  0.00  0.00    +0.033 C 
ATOM     10  C   UNK     1       1.717   2.357  -1.366  0.00  0.00    +0.033 C 
ENDBRANCH   7   8
ENDBRANCH   3   7
ENDBRANCH   2   3
ENDBRANCH   1   2
BRANCH   1  11
ATOM     11  C   UNK     1      -2.341  -0.721   0.043  0.00  0.00    +0.066 C 
BRANCH  11  12
ATOM     12  N   UNK     1      -3.333  -1.058  -0.977  0.00  0.00    +0.390 N 
ATOM     13  H   UNK     1      -3.194  -2.022  -1.281  0.00  0.00    -0.088 HD
ATOM     14  H   UNK     1      -3.229  -0.431  -1.774  0.00  0.00    -0.088 HD
ATOM     15  H   UNK     1      -4.270  -0.958  -0.585  0.00  0.00    -0.088 HD
ENDBRANCH  11  12
BRANCH  11  17
ATOM     16  O   UNK     1      -3.436   1.467  -0.002  0.00  0.00    -0.253 OA
ATOM     17  C   UNK     1      -2.590   0.715   0.461  0.00  0.00    +0.295 C 
BRANCH  17  18
ATOM     18  O   UNK     1      -1.725   1.081   1.443  0.00  0.00    -0.482 OA
ATOM     19  H   UNK     1      -1.095   0.467   1.764  0.00  0.00    +0.295 HD
ENDBRANCH  17  18
ENDBRANCH  11  17
ENDBRANCH   1  11
TORSDOF 9
