REMARK  Name = 4469371
REMARK  1 active torsions:
REMARK  status: ('A' for Active; 'I' for Inactive)
REMARK    1  A    between atoms: C_3  and  N_10
REMARK                            x       y       z     vdW  Elec       q    Type
REMARK                         _______ _______ _______ _____ _____    ______ ____
ROOT
ATOM      1  N   UNL     1       1.164  -1.218  -0.233  0.00  0.00    -0.269 NA
ATOM      2  N   UNL     1       1.165   1.218  -0.233  0.00  0.00    -0.269 NA
ATOM      3  C   UNL     1       2.016   0.000  -0.331  0.00  0.00    +0.149 C 
ATOM      4  C   UNL     1      -0.024  -0.739  -0.107  0.00  0.00    +0.093 C 
ATOM      5  C   UNL     1      -0.024   0.739  -0.107  0.00  0.00    +0.093 C 
ATOM      6  C   UNL     1      -1.294  -1.461   0.031  0.00  0.00    +0.020 C 
ATOM      7  C   UNL     1      -1.294   1.461   0.031  0.00  0.00    +0.020 C 
ATOM      8  C   UNL     1      -2.406  -0.724   0.151  0.00  0.00    +0.002 C 
ATOM      9  C   UNL     1      -2.406   0.724   0.151  0.00  0.00    +0.002 C 
ENDROOT
BRANCH   3  10
ATOM     10  N   UNL     1       3.104   0.000   0.647  0.00  0.00    +0.409 N 
ATOM     11  H   UNL     1       3.656  -0.850   0.542  0.00  0.00    -0.083 HD
ATOM     12  H   UNL     1       2.714   0.038   1.589  0.00  0.00    -0.083 HD
ATOM     13  H   UNL     1       3.699   0.814   0.493  0.00  0.00    -0.083 HD
ENDBRANCH   3  10
TORSDOF 1
