REMARK  Name = 2294
REMARK  2 active torsions:
REMARK  status: ('A' for Active; 'I' for Inactive)
REMARK    1  A    between atoms: C_6  and  C_12
REMARK    2  A    between atoms: C_6  and  C_14
REMARK                            x       y       z     vdW  Elec       q    Type
REMARK                         _______ _______ _______ _____ _____    ______ ____
ROOT
ATOM      1  O   UNL     1       0.185  -2.462  -0.522  0.00  0.00    -0.274 OA
ATOM      2  O   UNL     1       0.817   1.863   1.194  0.00  0.00    -0.274 OA
ATOM      3  O   UNL     1      -3.368   0.390   0.022  0.00  0.00    -0.252 OA
ATOM      4  N   UNL     1      -1.575  -1.001  -0.341  0.00  0.00    -0.239 N 
ATOM      5  N   UNL     1      -1.259   1.159   0.515  0.00  0.00    -0.239 N 
ATOM      6  C   UNL     1       0.710  -0.117  -0.202  0.00  0.00    +0.138 C 
ATOM      7  C   UNL     1      -0.224  -1.315  -0.346  0.00  0.00    +0.237 C 
ATOM      8  C   UNL     1       0.121   1.046   0.590  0.00  0.00    +0.237 C 
ATOM      9  C   UNL     1      -2.151   0.202   0.047  0.00  0.00    +0.312 C 
ATOM     10  H   UNL     1      -2.191  -1.706  -0.645  0.00  0.00    +0.159 HD
ATOM     11  H   UNL     1      -1.648   2.008   0.827  0.00  0.00    +0.159 HD
ENDROOT
BRANCH   6  12
ATOM     12  C   UNL     1       2.026  -0.567   0.448  0.00  0.00    +0.017 C 
ATOM     13  C   UNL     1       1.776  -1.186   1.804  0.00  0.00    +0.001 C 
ENDBRANCH   6  12
BRANCH   6  14
ATOM     14  C   UNL     1       0.996   0.405  -1.622  0.00  0.00    +0.017 C 
ATOM     15  C   UNL     1       1.946   1.582  -1.589  0.00  0.00    +0.001 C 
ENDBRANCH   6  14
TORSDOF 2
