REMARK  Name = 2444
REMARK  6 active torsions:
REMARK  status: ('A' for Active; 'I' for Inactive)
REMARK    1  A    between atoms: C_1  and  C_3
REMARK    2  A    between atoms: C_1  and  C_9
REMARK    3  A    between atoms: C_1  and  O_15
REMARK    4  A    between atoms: O_15  and  C_16
REMARK    5  A    between atoms: C_16  and  C_17
REMARK    6  A    between atoms: C_17  and  N_18
REMARK                            x       y       z     vdW  Elec       q    Type
REMARK                         _______ _______ _______ _____ _____    ______ ____
ROOT
ATOM      1  C   UNL     1       0.109  -0.099   0.588  0.00  0.00    +0.160 C 
ENDROOT
BRANCH   1   3
ATOM      2 BR   UNL     1       5.962  -1.739  -0.478  0.00  0.00    -0.049 Br
ATOM      3  C   UNL     1       1.547  -0.503   0.326  0.00  0.00    +0.009 C 
ATOM      4  C   UNL     1       2.510  -0.216   1.276  0.00  0.00    -0.001 C 
ATOM      5  C   UNL     1       1.860  -1.149  -0.856  0.00  0.00    -0.001 C 
ATOM      6  C   UNL     1       3.833  -0.586   1.035  0.00  0.00    +0.006 C 
ATOM      7  C   UNL     1       3.183  -1.520  -1.097  0.00  0.00    +0.006 C 
ATOM      8  C   UNL     1       4.170  -1.238  -0.151  0.00  0.00    +0.035 C 
ENDBRANCH   1   3
BRANCH   1   9
ATOM      9  C   UNL     1      -0.186   1.330   0.182  0.00  0.00    +0.009 C 
ATOM     10  C   UNL     1       0.094   2.354   1.069  0.00  0.00    -0.002 C 
ATOM     11  C   UNL     1      -0.728   1.578  -1.066  0.00  0.00    -0.002 C 
ATOM     12  C   UNL     1      -0.177   3.670   0.695  0.00  0.00    -0.000 C 
ATOM     13  C   UNL     1      -1.000   2.895  -1.440  0.00  0.00    -0.000 C 
ATOM     14  C   UNL     1      -0.724   3.941  -0.559  0.00  0.00    -0.000 C 
ENDBRANCH   1   9
BRANCH   1  15
ATOM     15  O   UNL     1      -0.801  -0.989  -0.045  0.00  0.00    -0.350 OA
BRANCH  15  16
ATOM     16  C   UNL     1      -2.146  -0.699   0.311  0.00  0.00    +0.120 C 
BRANCH  16  17
ATOM     17  C   UNL     1      -3.062  -1.684  -0.398  0.00  0.00    -0.045 C 
BRANCH  17  18
ATOM     18  N   UNL     1      -4.459  -1.435  -0.046  0.00  0.00    +0.386 N 
ATOM     19  C   UNL     1      -5.338  -2.373  -0.745  0.00  0.00    -0.101 C 
ATOM     20  C   UNL     1      -4.648  -1.537   1.400  0.00  0.00    -0.101 C 
ATOM     21  H   UNL     1      -4.702  -0.488  -0.338  0.00  0.00    -0.080 HD
ENDBRANCH  17  18
ENDBRANCH  16  17
ENDBRANCH  15  16
ENDBRANCH   1  15
TORSDOF 6
