REMARK  Name = 2370
REMARK  4 active torsions:
REMARK  status: ('A' for Active; 'I' for Inactive)
REMARK    1  A    between atoms: C_1  and  O_3
REMARK    2  A    between atoms: C_1  and  C_9
REMARK    3  A    between atoms: O_3  and  C_6
REMARK    4  A    between atoms: C_9  and  N_10
REMARK                            x       y       z     vdW  Elec       q    Type
REMARK                         _______ _______ _______ _____ _____    ______ ____
ROOT
ATOM      1  C   UNL     1      -0.252  -0.964   0.042  0.00  0.00    +0.151 C 
ATOM      2  C   UNL     1      -1.102  -2.129  -0.449  0.00  0.00    +0.045 C 
ENDROOT
BRANCH   1   3
ATOM      3  O   UNL     1      -0.868   0.266  -0.332  0.00  0.00    -0.441 OA
BRANCH   3   6
ATOM      4  O   UNL     1      -2.593   0.005   1.169  0.00  0.00    -0.227 OA
ATOM      5  N   UNL     1      -2.854   1.243  -0.750  0.00  0.00    -0.295 N 
ATOM      6  C   UNL     1      -2.141   0.461   0.124  0.00  0.00    +0.398 C 
ATOM      7  H   UNL     1      -2.428   1.577  -1.573  0.00  0.00    +0.148 HD
ATOM      8  H   UNL     1      -3.792   1.471  -0.555  0.00  0.00    +0.148 HD
ENDBRANCH   3   6
ENDBRANCH   1   3
BRANCH   1   9
ATOM      9  C   UNL     1       1.182  -0.977  -0.477  0.00  0.00    -0.029 C 
BRANCH   9  10
ATOM     10  N   UNL     1       1.962   0.223   0.039  0.00  0.00    +0.388 N 
ATOM     11  C   UNL     1       1.946   0.223   1.561  0.00  0.00    -0.096 C 
ATOM     12  C   UNL     1       3.400   0.144  -0.453  0.00  0.00    -0.096 C 
ATOM     13  C   UNL     1       1.320   1.504  -0.474  0.00  0.00    -0.096 C 
ENDBRANCH   9  10
ENDBRANCH   1   9
TORSDOF 4
