REMARK  Name = 3698
REMARK  2 active torsions:
REMARK  status: ('A' for Active; 'I' for Inactive)
REMARK    1  A    between atoms: C_3  and  C_10
REMARK    2  A    between atoms: C_6  and  N_15
REMARK                            x       y       z     vdW  Elec       q    Type
REMARK                         _______ _______ _______ _____ _____    ______ ____
ROOT
ATOM      1  O   UNL     1      -4.158   0.636  -0.111  0.00  0.00    -0.268 OA
ATOM      2  N   UNL     1      -2.038   1.513  -0.262  0.00  0.00    -0.278 N 
ATOM      3  C   UNL     1      -0.115   0.156  -0.019  0.00  0.00    +0.016 C 
ATOM      4  C   UNL     1      -0.998  -0.982   0.179  0.00  0.00    +0.020 C 
ATOM      5  C   UNL     1      -0.676   1.357  -0.233  0.00  0.00    +0.064 C 
ATOM      6  C   UNL     1      -2.338  -0.879   0.159  0.00  0.00    +0.096 C 
ATOM      7  C   UNL     1      -2.939   0.478  -0.081  0.00  0.00    +0.263 C 
ATOM      8  H   UNL     1      -2.397   2.416  -0.421  0.00  0.00    +0.155 HD
ENDROOT
BRANCH   3  10
ATOM      9  N   UNL     1       4.144  -0.168   0.015  0.00  0.00    -0.242 NA
ATOM     10  C   UNL     1       1.357   0.044  -0.006  0.00  0.00    +0.004 C 
ATOM     11  C   UNL     1       1.970  -1.134  -0.418  0.00  0.00    +0.021 C 
ATOM     12  C   UNL     1       2.135   1.116   0.417  0.00  0.00    +0.021 C 
ATOM     13  C   UNL     1       3.355  -1.188  -0.389  0.00  0.00    +0.099 C 
ATOM     14  C   UNL     1       3.511   0.961   0.409  0.00  0.00    +0.099 C 
ENDBRANCH   3  10
BRANCH   6  15
ATOM     15  N   UNL     1      -3.211  -1.911   0.340  0.00  0.00    -0.353 N 
ATOM     16  H   UNL     1      -2.871  -2.821   0.501  0.00  0.00    +0.142 HD
ATOM     17  H   UNL     1      -4.181  -1.745   0.310  0.00  0.00    +0.142 HD
ENDBRANCH   6  15
TORSDOF 2
