REMARK  Name = 4635105
REMARK  1 active torsions:
REMARK  status: ('A' for Active; 'I' for Inactive)
REMARK    1  A    between atoms: N_3  and  C_6
REMARK                            x       y       z     vdW  Elec       q    Type
REMARK                         _______ _______ _______ _____ _____    ______ ____
ROOT
ATOM      1  N   UNL     1      -0.600   1.074   0.000  0.00  0.00    -0.339 NA
ATOM      2  N   UNL     1      -1.121  -1.262   0.000  0.00  0.00    -0.186 NA
ATOM      3  C   UNL     1      -1.435   0.079   0.001  0.00  0.00    +0.066 C 
ATOM      4  C   UNL     1       1.188  -0.543   0.000  0.00  0.00    +0.044 C 
ATOM      5  C   UNL     1       0.762   0.877   0.000  0.00  0.00    +0.204 C 
ATOM      6  C   UNL     1       0.133  -1.566   0.000  0.00  0.00    +0.110 C 
ATOM      7  C   UNL     1      -2.911   0.366  -0.001  0.00  0.00    +0.129 C 
ATOM      8  C   UNL     1       2.463  -0.944   0.000  0.00  0.00    +0.037 C 
ENDROOT
BRANCH   5   9
ATOM      9  N   UNL     1       1.521   1.919   0.000  0.00  0.00    -0.238 NA
ATOM     10  H   UNL     1       1.121   2.819   0.000  0.00  0.00    +0.173 HD
ENDBRANCH   5   9
TORSDOF 1
