REMARK  Name = 68844
REMARK  8 active torsions:
REMARK  status: ('A' for Active; 'I' for Inactive)
REMARK    1  A    between atoms: N_5  and  C_23
REMARK    2  A    between atoms: C_6  and  N_18
REMARK    3  A    between atoms: C_11  and  S_12
REMARK    4  A    between atoms: S_12  and  N_15
REMARK    5  A    between atoms: N_18  and  C_21
REMARK    6  A    between atoms: C_23  and  C_24
REMARK    7  A    between atoms: C_24  and  C_25
REMARK    8  A    between atoms: C_25  and  O_26
REMARK                            x       y       z     vdW  Elec       q    Type
REMARK                         _______ _______ _______ _____ _____    ______ ____
ROOT
ATOM      1  S   UNL     1       0.378   1.916   0.212  0.00  0.00    +0.069 S 
ATOM      2  S   UNL     1      -2.430   1.298  -0.566  0.00  0.00    -0.048 S 
ATOM      3  O   UNL     1       0.003   2.901   1.207  0.00  0.00    -0.152 OA
ATOM      4  O   UNL     1       0.675   2.273  -1.159  0.00  0.00    -0.152 OA
ATOM      5  N   UNL     1       1.626   0.890   0.837  0.00  0.00    -0.157 NA
ATOM      6  C   UNL     1       0.169  -1.099   1.361  0.00  0.00    -0.019 C 
ATOM      7  C   UNL     1       1.183  -0.065   1.914  0.00  0.00    +0.079 C 
ATOM      8  C   UNL     1      -1.020  -0.470   0.679  0.00  0.00    -0.014 C 
ATOM      9  C   UNL     1      -0.983   0.803   0.152  0.00  0.00    +0.147 C 
ATOM     10  C   UNL     1      -2.308  -1.054   0.474  0.00  0.00    +0.022 C 
ATOM     11  C   UNL     1      -3.168  -0.205  -0.193  0.00  0.00    +0.152 C 
ENDROOT
BRANCH  11  12
ATOM     12  S   UNL     1      -4.838  -0.354  -0.719  0.00  0.00    +0.063 S 
ATOM     13  O   UNL     1      -4.984   0.555  -1.850  0.00  0.00    -0.153 OA
ATOM     14  O   UNL     1      -5.057  -1.786  -0.885  0.00  0.00    -0.153 OA
BRANCH  12  15
ATOM     15  N   UNL     1      -5.863   0.208   0.540  0.00  0.00    -0.203 NA
ATOM     16  H   UNL     1      -6.837   0.127   0.247  0.00  0.00    +0.144 HD
ATOM     17  H   UNL     1      -5.650   1.185   0.742  0.00  0.00    +0.144 HD
ENDBRANCH  12  15
ENDBRANCH  11  12
BRANCH   6  18
ATOM     18  N   UNL     1       0.818  -1.994   0.400  0.00  0.00    +0.389 N 
ATOM     19  H   UNL     1       1.109  -1.456  -0.415  0.00  0.00    -0.084 HD
ATOM     20  H   UNL     1       0.154  -2.719   0.127  0.00  0.00    -0.084 HD
BRANCH  18  21
ATOM     21  C   UNL     1       1.983  -2.628   0.995  0.00  0.00    -0.081 C 
ATOM     22  C   UNL     1       2.645  -3.587   0.020  0.00  0.00    -0.026 C 
ENDBRANCH  18  21
ENDBRANCH   6  18
BRANCH   5  23
ATOM     23  C   UNL     1       2.915   1.552   1.148  0.00  0.00    +0.098 C 
BRANCH  23  24
ATOM     24  C   UNL     1       3.824   1.542  -0.074  0.00  0.00    +0.051 C 
BRANCH  24  25
ATOM     25  C   UNL     1       4.133   0.135  -0.571  0.00  0.00    +0.144 C 
BRANCH  25  26
ATOM     26  O   UNL     1       4.996   0.226  -1.696  0.00  0.00    -0.351 OA
ATOM     27  C   UNL     1       5.302  -1.057  -2.225  0.00  0.00    +0.174 C 
ENDBRANCH  25  26
ENDBRANCH  24  25
ENDBRANCH  23  24
ENDBRANCH   5  23
TORSDOF 8
