REMARK  Name = 10257
REMARK  4 active torsions:
REMARK  status: ('A' for Active; 'I' for Inactive)
REMARK    1  A    between atoms: C_2  and  C_13
REMARK    2  A    between atoms: C_8  and  O_11
REMARK    3  A    between atoms: C_13  and  C_14
REMARK    4  A    between atoms: C_14  and  N_15
REMARK                            x       y       z     vdW  Elec       q    Type
REMARK                         _______ _______ _______ _____ _____    ______ ____
ROOT
ATOM      1  N   UNL     1       1.347  -2.399  -0.123  0.00  0.00    -0.312 N 
ATOM      2  C   UNL     1      -0.330  -1.046   0.412  0.00  0.00    -0.008 C 
ATOM      3  C   UNL     1       0.832  -0.252   0.199  0.00  0.00    +0.014 C 
ATOM      4  C   UNL     1       1.869  -1.125  -0.135  0.00  0.00    +0.048 C 
ATOM      5  C   UNL     1       0.018  -2.361   0.206  0.00  0.00    +0.058 C 
ATOM      6  C   UNL     1       1.101   1.129   0.258  0.00  0.00    +0.038 C 
ATOM      7  C   UNL     1       3.168  -0.684  -0.413  0.00  0.00    +0.018 C 
ATOM      8  C   UNL     1       2.395   1.586  -0.018  0.00  0.00    +0.134 C 
ATOM      9  C   UNL     1       3.411   0.691  -0.348  0.00  0.00    +0.038 C 
ATOM     10  H   UNL     1       1.855  -3.218  -0.322  0.00  0.00    +0.152 HD
ENDROOT
BRANCH   8  11
ATOM     11  O   UNL     1       2.663   2.921   0.039  0.00  0.00    -0.506 OA
ATOM     12  H   UNL     1       1.983   3.526   0.261  0.00  0.00    +0.292 HD
ENDBRANCH   8  11
BRANCH   2  13
ATOM     13  C   UNL     1      -1.672  -0.557   0.785  0.00  0.00    +0.005 C 
BRANCH  13  14
ATOM     14  C   UNL     1      -2.554  -0.233  -0.435  0.00  0.00    -0.073 C 
BRANCH  14  15
ATOM     15  N   UNL     1      -3.864   0.275  -0.040  0.00  0.00    +0.384 N 
ATOM     16  C   UNL     1      -4.660   0.616  -1.220  0.00  0.00    -0.101 C 
ATOM     17  C   UNL     1      -3.722   1.441   0.832  0.00  0.00    -0.101 C 
ATOM     18  H   UNL     1      -4.348  -0.459   0.477  0.00  0.00    -0.080 HD
ENDBRANCH  14  15
ENDBRANCH  13  14
ENDBRANCH   2  13
TORSDOF 4
