REMARK  Name = 5168640
REMARK  7 active torsions:
REMARK  status: ('A' for Active; 'I' for Inactive)
REMARK    1  A    between atoms: C_2  and  C_13
REMARK    2  A    between atoms: C_4  and  C_12
REMARK    3  A    between atoms: C_6  and  O_9
REMARK    4  A    between atoms: C_13  and  O_14
REMARK    5  A    between atoms: O_14  and  P_15
REMARK    6  A    between atoms: P_15  and  O_17
REMARK    7  A    between atoms: P_15  and  O_19
REMARK                            x       y       z     vdW  Elec       q    Type
REMARK                         _______ _______ _______ _____ _____    ______ ____
ROOT
ATOM      1  N   UNL     1       2.063   1.569   0.109  0.00  0.00    -0.300 N 
ATOM      2  C   UNL     1       0.116   0.267   0.423  0.00  0.00    +0.028 C 
ATOM      3  C   UNL     1       2.793   0.484  -0.184  0.00  0.00    +0.130 C 
ATOM      4  C   UNL     1       0.850  -0.877   0.122  0.00  0.00    +0.073 C 
ATOM      5  C   UNL     1       0.759   1.496   0.409  0.00  0.00    +0.060 C 
ATOM      6  C   UNL     1       2.203  -0.772  -0.186  0.00  0.00    +0.132 C 
ATOM      7  C   UNL     1       2.688   2.892   0.110  0.00  0.00    +0.113 C 
ATOM      8  C   UNL     1       4.240   0.652  -0.507  0.00  0.00    +0.030 C 
ENDROOT
BRANCH   6   9
ATOM      9  O   UNL     1       2.938  -1.878  -0.482  0.00  0.00    -0.508 OA
ATOM     10  H   UNL     1       3.849  -1.795  -0.688  0.00  0.00    +0.292 HD
ENDBRANCH   6   9
BRANCH   4  12
ATOM     11  O   UNL     1       0.778  -3.233   0.399  0.00  0.00    -0.283 OA
ATOM     12  C   UNL     1       0.205  -2.185   0.128  0.00  0.00    +0.237 C 
ENDBRANCH   4  12
BRANCH   2  13
ATOM     13  C   UNL     1      -1.336   0.205   0.759  0.00  0.00    +0.182 C 
BRANCH  13  14
ATOM     14  O   UNL     1      -2.102   0.331  -0.433  0.00  0.00    -0.268 OA
BRANCH  14  15
ATOM     15  P   UNL     1      -3.714   0.291  -0.316  0.00  0.00    +0.473 P 
ATOM     16  O   UNL     1      -4.450   0.430  -1.617  0.00  0.00    -0.227 OA
BRANCH  15  17
ATOM     17  O   UNL     1      -4.048   1.422   0.791  0.00  0.00    -0.303 OA
ATOM     18  H   UNL     1      -3.529   1.252   1.593  0.00  0.00    +0.222 HD
ENDBRANCH  15  17
BRANCH  15  19
ATOM     19  O   UNL     1      -3.981  -1.094   0.475  0.00  0.00    -0.303 OA
ATOM     20  H   UNL     1      -3.469  -1.099   1.299  0.00  0.00    +0.222 HD
ENDBRANCH  15  19
ENDBRANCH  14  15
ENDBRANCH  13  14
ENDBRANCH   2  13
TORSDOF 7
