REMARK  Name = 2995
REMARK  4 active torsions:
REMARK  status: ('A' for Active; 'I' for Inactive)
REMARK    1  A    between atoms: N_1  and  C_16
REMARK    2  A    between atoms: C_16  and  C_17
REMARK    3  A    between atoms: C_17  and  C_18
REMARK    4  A    between atoms: C_18  and  N_19
REMARK                            x       y       z     vdW  Elec       q    Type
REMARK                         _______ _______ _______ _____ _____    ______ ____
ROOT
ATOM      1  N   UNL     1       0.074  -0.087  -0.316  0.00  0.00    -0.287 N 
ATOM      2  C   UNL     1      -1.528   1.264   1.699  0.00  0.00    +0.032 C 
ATOM      3  C   UNL     1      -2.651   0.453   1.074  0.00  0.00    +0.032 C 
ATOM      4  C   UNL     1      -0.027   1.329  -0.324  0.00  0.00    +0.048 C 
ATOM      5  C   UNL     1      -0.978  -1.042  -0.260  0.00  0.00    +0.048 C 
ATOM      6  C   UNL     1      -0.789   2.019   0.632  0.00  0.00    -0.008 C 
ATOM      7  C   UNL     1      -2.239  -0.805   0.338  0.00  0.00    -0.008 C 
ATOM      8  C   UNL     1       0.652   2.093  -1.298  0.00  0.00    +0.015 C 
ATOM      9  C   UNL     1      -0.799  -2.310  -0.876  0.00  0.00    +0.015 C 
ATOM     10  C   UNL     1      -0.860   3.423   0.606  0.00  0.00    -0.003 C 
ATOM     11  C   UNL     1      -3.247  -1.799   0.269  0.00  0.00    -0.003 C 
ATOM     12  C   UNL     1       0.577   3.487  -1.319  0.00  0.00    +0.001 C 
ATOM     13  C   UNL     1      -1.800  -3.285  -0.916  0.00  0.00    +0.001 C 
ATOM     14  C   UNL     1      -0.180   4.153  -0.365  0.00  0.00    -0.000 C 
ATOM     15  C   UNL     1      -3.031  -3.026  -0.345  0.00  0.00    -0.000 C 
ENDROOT
BRANCH   1  16
ATOM     16  C   UNL     1       1.439  -0.587  -0.549  0.00  0.00    +0.093 C 
BRANCH  16  17
ATOM     17  C   UNL     1       1.949  -1.352   0.672  0.00  0.00    -0.002 C 
BRANCH  17  18
ATOM     18  C   UNL     1       3.387  -1.866   0.546  0.00  0.00    -0.080 C 
BRANCH  18  19
ATOM     19  N   UNL     1       4.343  -0.777   0.392  0.00  0.00    +0.382 N 
ATOM     20  C   UNL     1       5.707  -1.286   0.339  0.00  0.00    -0.106 C 
ATOM     21  H   UNL     1       4.255  -0.140   1.183  0.00  0.00    -0.085 HD
ATOM     22  H   UNL     1       4.143  -0.289  -0.482  0.00  0.00    -0.085 HD
ENDBRANCH  18  19
ENDBRANCH  17  18
ENDBRANCH  16  17
ENDBRANCH   1  16
TORSDOF 4
