REMARK  Name = 6916258
REMARK  4 active torsions:
REMARK  status: ('A' for Active; 'I' for Inactive)
REMARK    1  A    between atoms: C_3  and  O_20
REMARK    2  A    between atoms: C_10  and  O_22
REMARK    3  A    between atoms: C_14  and  O_24
REMARK    4  A    between atoms: C_17  and  O_26
REMARK                            x       y       z     vdW  Elec       q    Type
REMARK                         _______ _______ _______ _____ _____    ______ ____
ROOT
ATOM      1  N   UNL     1       2.239   2.011  -0.948  0.00  0.00    +0.389 N 
ATOM      2  C   UNL     1       0.723  -0.396  -0.229  0.00  0.00    +0.043 C 
ATOM      3  C   UNL     1       1.871   0.170   0.666  0.00  0.00    +0.075 C 
ATOM      4  C   UNL     1       1.926   1.702   0.463  0.00  0.00    -0.028 C 
ATOM      5  C   UNL     1       0.690  -1.945  -0.088  0.00  0.00    +0.035 C 
ATOM      6  C   UNL     1       0.988   0.003  -1.711  0.00  0.00    -0.016 C 
ATOM      7  C   UNL     1       3.230  -0.509   0.382  0.00  0.00    +0.028 C 
ATOM      8  C   UNL     1      -0.619   0.256   0.175  0.00  0.00    +0.012 C 
ATOM      9  C   UNL     1       0.625   2.336   1.012  0.00  0.00    +0.008 C 
ATOM     10  C   UNL     1       2.044  -2.629  -0.306  0.00  0.00    +0.111 C 
ATOM     11  C   UNL     1       1.250   1.505  -1.901  0.00  0.00    -0.077 C 
ATOM     12  C   UNL     1       3.147  -2.024   0.554  0.00  0.00    +0.032 C 
ATOM     13  C   UNL     1      -0.640   1.554   0.737  0.00  0.00    -0.025 C 
ATOM     14  C   UNL     1      -1.849  -0.385  -0.061  0.00  0.00    +0.168 C 
ATOM     15  C   UNL     1       2.532   3.421  -1.183  0.00  0.00    -0.100 C 
ATOM     16  C   UNL     1      -1.866   2.149   1.082  0.00  0.00    -0.001 C 
ATOM     17  C   UNL     1      -3.060   0.222   0.281  0.00  0.00    +0.172 C 
ATOM     18  C   UNL     1      -3.068   1.486   0.857  0.00  0.00    +0.040 C 
ATOM     19  H   UNL     1       3.101   1.495  -1.126  0.00  0.00    -0.080 HD
ENDROOT
BRANCH   3  20
ATOM     20  O   UNL     1       1.569  -0.112   2.045  0.00  0.00    -0.388 OA
ATOM     21  H   UNL     1       0.720   0.294   2.279  0.00  0.00    +0.210 HD
ENDBRANCH   3  20
BRANCH  10  22
ATOM     22  O   UNL     1       1.904  -4.012   0.013  0.00  0.00    -0.384 OA
ATOM     23  H   UNL     1       1.202  -4.400  -0.533  0.00  0.00    +0.210 HD
ENDBRANCH  10  22
BRANCH  14  24
ATOM     24  O   UNL     1      -1.963  -1.584  -0.701  0.00  0.00    -0.469 OA
ATOM     25  C   UNL     1      -2.560  -2.652   0.030  0.00  0.00    +0.253 C 
ENDBRANCH  14  24
BRANCH  17  26
ATOM     26  O   UNL     1      -4.247  -0.405   0.045  0.00  0.00    -0.468 OA
ATOM     27  C   UNL     1      -4.866  -0.163  -1.217  0.00  0.00    +0.253 C 
ENDBRANCH  17  26
TORSDOF 4
