REMARK  Name = 33613
REMARK  7 active torsions:
REMARK  status: ('A' for Active; 'I' for Inactive)
REMARK    1  A    between atoms: N_2  and  CA_11
REMARK    2  A    between atoms: C_3  and  CA_19
REMARK    3  A    between atoms: CA_10  and  C_16
REMARK    4  A    between atoms: C_16  and  O_17
REMARK    5  A    between atoms: CA_19  and  C_20
REMARK    6  A    between atoms: CA_19  and  N_28
REMARK    7  A    between atoms: C_25  and  O_26
REMARK                            x       y       z     vdW  Elec       q    Type
REMARK                         _______ _______ _______ _____ _____    ______ ____
ROOT
ATOM      1  O   UNL     1      -1.180   2.444   1.602  0.00  0.00    -0.277 OA
ATOM      2  N   UNL     1      -0.150   1.969  -0.420  0.00  0.00    -0.298 N 
ATOM      3  C   UNL     1      -1.258   2.147   0.411  0.00  0.00    +0.206 C 
ATOM      4  H   UNL     1      -0.303   1.732  -1.363  0.00  0.00    +0.150 HD
ENDROOT
BRANCH   2  11
ATOM      5  S   UNL     1       0.813  -0.530   1.047  0.00  0.00    -0.118 S 
ATOM      6  O   UNL     1       2.541   1.938  -2.138  0.00  0.00    -0.273 OA
ATOM      7  N   UNL     1       2.786   0.750  -0.115  0.00  0.00    -0.260 N 
ATOM      8  C   UNL     1       1.806   1.006   0.942  0.00  0.00    +0.151 C 
ATOM      9  C   UNL     1       1.829  -1.442  -0.218  0.00  0.00    +0.068 C 
ATOM     10  CA  UNL     1       3.121  -0.620  -0.428  0.00  0.00    +0.184 C 
ATOM     11  CA  UNL     1       1.235   2.119   0.048  0.00  0.00    +0.178 C 
ATOM     12  C   UNL     1       2.295   1.681  -0.981  0.00  0.00    +0.247 C 
ATOM     13  C   UNL     1       2.078  -2.872   0.274  0.00  0.00    +0.013 C 
ATOM     14  C   UNL     1       1.004  -1.498  -1.515  0.00  0.00    +0.013 C 
BRANCH  10  16
ATOM     15  OXT UNL     1       4.375  -0.480   1.633  0.00  0.00    -0.248 OA
ATOM     16  C   UNL     1       4.248  -0.938   0.507  0.00  0.00    +0.333 C 
BRANCH  16  17
ATOM     17  O   UNL     1       5.116  -1.806  -0.067  0.00  0.00    -0.479 OA
ATOM     18  H   UNL     1       4.960  -2.120  -0.936  0.00  0.00    +0.295 HD
ENDBRANCH  16  17
ENDBRANCH  10  16
ENDBRANCH   2  11
BRANCH   3  19
ATOM     19  CA  UNL     1      -2.584   1.914  -0.306  0.00  0.00    +0.036 C 
BRANCH  19  20
ATOM     20  C   UNL     1      -3.006   0.464  -0.201  0.00  0.00    -0.034 C 
ATOM     21  C   UNL     1      -3.187  -0.271  -1.359  0.00  0.00    -0.003 C 
ATOM     22  C   UNL     1      -3.202  -0.093   1.050  0.00  0.00    -0.003 C 
ATOM     23  C   UNL     1      -3.578  -1.607  -1.263  0.00  0.00    +0.036 C 
ATOM     24  C   UNL     1      -3.592  -1.429   1.147  0.00  0.00    +0.036 C 
ATOM     25  C   UNL     1      -3.780  -2.185  -0.010  0.00  0.00    +0.134 C 
BRANCH  25  26
ATOM     26  O   UNL     1      -4.159  -3.489   0.083  0.00  0.00    -0.506 OA
ATOM     27  H   UNL     1      -4.285  -3.997  -0.694  0.00  0.00    +0.292 HD
ENDBRANCH  25  26
ENDBRANCH  19  20
BRANCH  19  28
ATOM     28  N   UNL     1      -3.572   2.827   0.276  0.00  0.00    +0.390 N 
ATOM     29  H1  UNL     1      -3.244   3.788   0.182  0.00  0.00    -0.088 HD
ATOM     30  H2  UNL     1      -3.700   2.606   1.263  0.00  0.00    -0.088 HD
ATOM     31  H3  UNL     1      -4.461   2.722  -0.214  0.00  0.00    -0.088 HD
ENDBRANCH  19  28
ENDBRANCH   3  19
TORSDOF 7
