REMARK  Name = 1282
REMARK  3 active torsions:
REMARK  status: ('A' for Active; 'I' for Inactive)
REMARK    1  A    between atoms: C_3  and  C_18
REMARK    2  A    between atoms: C_8  and  C_14
REMARK    3  A    between atoms: C_18  and  C_21
REMARK                            x       y       z     vdW  Elec       q    Type
REMARK                         _______ _______ _______ _____ _____    ______ ____
ROOT
ATOM      1  N   UNL     1      -0.904   0.360  -1.325  0.00  0.00    -0.318 N 
ATOM      2  N   UNL     1      -0.751   1.890   0.280  0.00  0.00    -0.318 N 
ATOM      3  C   UNL     1      -0.153   1.353  -0.760  0.00  0.00    +0.147 C 
ATOM      4  C   UNL     1      -2.063   0.248  -0.602  0.00  0.00    +0.059 C 
ATOM      5  C   UNL     1      -1.944   1.214   0.394  0.00  0.00    +0.059 C 
ATOM      6  C   UNL     1      -3.172  -0.589  -0.729  0.00  0.00    +0.018 C 
ATOM      7  C   UNL     1      -2.983   1.367   1.327  0.00  0.00    +0.016 C 
ATOM      8  C   UNL     1      -4.197  -0.422   0.208  0.00  0.00    +0.032 C 
ATOM      9  C   UNL     1      -4.106   0.537   1.219  0.00  0.00    +0.004 C 
ATOM     10  H   UNL     1      -0.656  -0.178  -2.111  0.00  0.00    +0.148 HD
ATOM     11  H   UNL     1      -0.418   2.618   0.853  0.00  0.00    +0.148 HD
ENDROOT
BRANCH   8  14
ATOM     12  N   UNL     1      -6.426  -1.137   1.038  0.00  0.00    -0.343 N 
ATOM     13  N   UNL     1      -5.471  -2.179  -0.823  0.00  0.00    -0.285 NA
ATOM     14  C   UNL     1      -5.380  -1.266   0.127  0.00  0.00    +0.117 C 
ATOM     15  H   UNL     1      -7.217  -1.718   0.964  0.00  0.00    +0.144 HD
ATOM     16  H   UNL     1      -6.374  -0.464   1.755  0.00  0.00    +0.144 HD
ATOM     17  H   UNL     1      -6.270  -2.752  -0.881  0.00  0.00    +0.188 HD
ENDBRANCH   8  14
BRANCH   3  18
ATOM     18  C   UNL     1       1.165   1.724  -1.309  0.00  0.00    +0.080 C 
BRANCH  18  21
ATOM     19  N   UNL     1       2.706  -0.216  -1.266  0.00  0.00    -0.318 N 
ATOM     20  N   UNL     1       2.986   1.294   0.340  0.00  0.00    -0.318 N 
ATOM     21  C   UNL     1       2.322   0.939  -0.701  0.00  0.00    +0.147 C 
ATOM     22  C   UNL     1       3.749  -0.679  -0.507  0.00  0.00    +0.059 C 
ATOM     23  C   UNL     1       3.905   0.281   0.489  0.00  0.00    +0.059 C 
ATOM     24  C   UNL     1       4.546  -1.820  -0.602  0.00  0.00    +0.016 C 
ATOM     25  C   UNL     1       4.910   0.108   1.456  0.00  0.00    +0.016 C 
ATOM     26  C   UNL     1       5.541  -1.976   0.368  0.00  0.00    +0.001 C 
ATOM     27  C   UNL     1       5.722  -1.030   1.380  0.00  0.00    +0.001 C 
ATOM     28  H   UNL     1       2.317  -0.644  -2.064  0.00  0.00    +0.148 HD
ATOM     29  H   UNL     1       2.867   2.097   0.897  0.00  0.00    +0.148 HD
ENDBRANCH  18  21
ENDBRANCH   3  18
TORSDOF 3
