REMARK  Name = 448879
REMARK  4 active torsions:
REMARK  status: ('A' for Active; 'I' for Inactive)
REMARK    1  A    between atoms: CA_1  and  N_3
REMARK    2  A    between atoms: CA_1  and  CB_9
REMARK    3  A    between atoms: CA_1  and  C_13
REMARK    4  A    between atoms: C_13  and  O_14
REMARK                            x       y       z     vdW  Elec       q    Type
REMARK                         _______ _______ _______ _____ _____    ______ ____
ROOT
ATOM      1  CA  UNL     1      -0.423  -0.011   0.399  0.00  0.00    +0.172 C 
ENDROOT
BRANCH   1   3
ATOM      2  O   UNL     1       2.328   0.347   1.242  0.00  0.00    -0.253 OA
ATOM      3  N   UNL     1       0.748   0.079  -0.444  0.00  0.00    -0.281 N 
ATOM      4  N   UNL     1       2.974   0.308  -0.961  0.00  0.00    -0.313 N 
ATOM      5  C   ACE A   0       2.033   0.252   0.052  0.00  0.00    +0.298 C 
ATOM      6  H   UNL     1       0.628   0.015  -1.419  0.00  0.00    +0.151 HD
ATOM      7  H   UNL     1       3.926   0.428  -0.741  0.00  0.00    +0.146 HD
ATOM      8  H   UNL     1       2.691   0.227  -1.900  0.00  0.00    +0.146 HD
ENDBRANCH   1   3
BRANCH   1   9
ATOM      9  CB  UNL     1      -1.093  -1.390   0.211  0.00  0.00    +0.029 C 
ATOM     10  CG1 UNL     1      -0.139  -2.545   0.528  0.00  0.00    +0.002 C 
ATOM     11  CG2 UNL     1      -1.708  -1.578  -1.179  0.00  0.00    +0.002 C 
ENDBRANCH   1   9
BRANCH   1  13
ATOM     12  OXT UNL     1      -2.355   1.391   0.848  0.00  0.00    -0.248 OA
ATOM     13  C   UNL     1      -1.352   1.178   0.175  0.00  0.00    +0.332 C 
BRANCH  13  14
ATOM     14  O   UNL     1      -1.014   1.969  -0.872  0.00  0.00    -0.479 OA
ATOM     15  H   UNL     1      -0.242   1.783  -1.369  0.00  0.00    +0.295 HD
ENDBRANCH  13  14
ENDBRANCH   1  13
TORSDOF 4
