REMARK  Name = 5743
REMARK  5 active torsions:
REMARK  status: ('A' for Active; 'I' for Inactive)
REMARK    1  A    between atoms: C_7  and  O_23
REMARK    2  A    between atoms: C_7  and  C_28
REMARK    3  A    between atoms: C_11  and  O_25
REMARK    4  A    between atoms: C_28  and  C_29
REMARK    5  A    between atoms: C_29  and  O_30
REMARK                            x       y       z     vdW  Elec       q    Type
REMARK                         _______ _______ _______ _____ _____    ______ ____
ROOT
ATOM      1  F   UNL     1       1.329   0.091   1.272  0.00  0.00    -0.237 F 
ATOM      2  O   UNL     1       6.192   0.101   1.644  0.00  0.00    -0.287 OA
ATOM      3  C   UNL     1      -1.812   0.157  -0.298  0.00  0.00    +0.032 C 
ATOM      4  C   UNL     1      -0.900  -1.063  -0.043  0.00  0.00    +0.005 C 
ATOM      5  C   UNL     1       0.492  -0.931  -0.679  0.00  0.00    +0.033 C 
ATOM      6  C   UNL     1       1.209   0.331  -0.088  0.00  0.00    +0.164 C 
ATOM      7  C   UNL     1      -3.104  -0.342   0.413  0.00  0.00    +0.141 C 
ATOM      8  C   UNL     1      -1.774  -2.257  -0.425  0.00  0.00    +0.003 C 
ATOM      9  C   UNL     1      -1.124   1.386   0.331  0.00  0.00    +0.035 C 
ATOM     10  C   UNL     1      -3.213  -1.833  -0.026  0.00  0.00    +0.032 C 
ATOM     11  C   UNL     1       0.318   1.607  -0.180  0.00  0.00    +0.141 C 
ATOM     12  C   UNL     1       2.688   0.478  -0.624  0.00  0.00    +0.064 C 
ATOM     13  C   UNL     1       1.317  -2.207  -0.431  0.00  0.00    +0.007 C 
ATOM     14  C   UNL     1      -2.098   0.406  -1.806  0.00  0.00    +0.003 C 
ATOM     15  C   UNL     1       2.747  -2.079  -0.944  0.00  0.00    +0.023 C 
ATOM     16  C   UNL     1       3.404  -0.852  -0.365  0.00  0.00    -0.035 C 
ATOM     17  C   UNL     1      -3.806  -2.777   1.016  0.00  0.00    +0.003 C 
ATOM     18  C   UNL     1       2.783   0.785  -2.136  0.00  0.00    +0.011 C 
ATOM     19  C   UNL     1       3.391   1.628   0.085  0.00  0.00    -0.017 C 
ATOM     20  C   UNL     1       4.524  -0.967   0.365  0.00  0.00    +0.034 C 
ATOM     21  C   UNL     1       4.506   1.520   0.814  0.00  0.00    +0.038 C 
ATOM     22  C   UNL     1       5.159   0.210   0.992  0.00  0.00    +0.195 C 
ENDROOT
BRANCH   7  23
ATOM     23  O   UNL     1      -2.978  -0.213   1.825  0.00  0.00    -0.380 OA
ATOM     24  H   UNL     1      -2.200  -0.708   2.127  0.00  0.00    +0.211 HD
ENDBRANCH   7  23
BRANCH  11  25
ATOM     25  O   UNL     1       0.287   2.130  -1.498  0.00  0.00    -0.382 OA
ATOM     26  H   UNL     1       1.194   2.266  -1.814  0.00  0.00    +0.210 HD
ENDBRANCH  11  25
BRANCH   7  28
ATOM     27  O   UNL     1      -5.289  -0.060  -0.498  0.00  0.00    -0.291 OA
ATOM     28  C   UNL     1      -4.329   0.457   0.070  0.00  0.00    +0.204 C 
BRANCH  28  29
ATOM     29  C   UNL     1      -4.307   1.919   0.463  0.00  0.00    +0.204 C 
BRANCH  29  30
ATOM     30  O   UNL     1      -5.611   2.376   0.752  0.00  0.00    -0.375 OA
ATOM     31  H   UNL     1      -5.577   3.313   1.001  0.00  0.00    +0.211 HD
ENDBRANCH  29  30
ENDBRANCH  28  29
ENDBRANCH   7  28
TORSDOF 5
