REMARK  Name = 24728635
REMARK  8 active torsions:
REMARK  status: ('A' for Active; 'I' for Inactive)
REMARK    1  A    between atoms: C_1  and  C_15
REMARK    2  A    between atoms: C_2  and  O_7
REMARK    3  A    between atoms: C_4  and  S_11
REMARK    4  A    between atoms: C_5  and  O_9
REMARK    5  A    between atoms: S_11  and  C_12
REMARK    6  A    between atoms: C_12  and  C_13
REMARK    7  A    between atoms: C_15  and  C_16
REMARK    8  A    between atoms: C_16  and  N_17
REMARK                            x       y       z     vdW  Elec       q    Type
REMARK                         _______ _______ _______ _____ _____    ______ ____
ROOT
ATOM      1  C   UNL     1      -1.801   0.239   0.317  0.00  0.00    +0.013 C 
ATOM      2  C   UNL     1      -1.115  -0.939   0.019  0.00  0.00    +0.135 C 
ATOM      3  C   UNL     1      -1.163   1.472   0.175  0.00  0.00    +0.036 C 
ATOM      4  C   UNL     1       0.845   0.348  -0.562  0.00  0.00    +0.062 C 
ATOM      5  C   UNL     1       0.159   1.526  -0.265  0.00  0.00    +0.144 C 
ATOM      6  C   UNL     1       0.207  -0.884  -0.420  0.00  0.00    +0.046 C 
ENDROOT
BRANCH   2   7
ATOM      7  O   UNL     1      -1.723  -2.151   0.154  0.00  0.00    -0.472 OA
ATOM      8  C   UNL     1      -0.949  -3.304  -0.172  0.00  0.00    +0.252 C 
ENDBRANCH   2   7
BRANCH   5   9
ATOM      9  O   UNL     1       0.752   2.748  -0.393  0.00  0.00    -0.471 OA
ATOM     10  C   UNL     1       1.435   3.258   0.750  0.00  0.00    +0.252 C 
ENDBRANCH   5   9
BRANCH   4  11
ATOM     11  S   UNL     1       2.540   0.377  -1.129  0.00  0.00    -0.111 S 
BRANCH  11  12
ATOM     12  C   UNL     1       3.372  -0.588   0.162  0.00  0.00    +0.062 C 
BRANCH  12  13
ATOM     13  C   UNL     1       4.865  -0.693  -0.127  0.00  0.00    +0.012 C 
ATOM     14  C   UNL     1       5.577  -1.497   0.951  0.00  0.00    +0.001 C 
ENDBRANCH  12  13
ENDBRANCH  11  12
ENDBRANCH   4  11
BRANCH   1  15
ATOM     15  C   UNL     1      -3.216   0.200   0.790  0.00  0.00    +0.006 C 
BRANCH  15  16
ATOM     16  C   UNL     1      -4.201  -0.050  -0.360  0.00  0.00    -0.081 C 
BRANCH  16  17
ATOM     17  N   UNL     1      -5.582  -0.061   0.111  0.00  0.00    +0.381 N 
ATOM     18  H   UNL     1      -6.208  -0.229  -0.677  0.00  0.00    -0.089 HD
ATOM     19  H   UNL     1      -5.803   0.840   0.534  0.00  0.00    -0.089 HD
ATOM     20  H   UNL     1      -5.699  -0.800   0.803  0.00  0.00    -0.089 HD
ENDBRANCH  16  17
ENDBRANCH  15  16
ENDBRANCH   1  15
TORSDOF 8
