REMARK  Name = 9642
REMARK  5 active torsions:
REMARK  status: ('A' for Active; 'I' for Inactive)
REMARK    1  A    between atoms: C_9  and  C_31
REMARK    2  A    between atoms: C_14  and  O_28
REMARK    3  A    between atoms: C_31  and  C_32
REMARK    4  A    between atoms: C_32  and  O_33
REMARK    5  A    between atoms: O_33  and  C_35
REMARK                            x       y       z     vdW  Elec       q    Type
REMARK                         _______ _______ _______ _____ _____    ______ ____
ROOT
ATOM      1  F   UNL     1       1.906  -0.173  -1.188  0.00  0.00    -0.237 F 
ATOM      2  F   UNL     1       4.728   2.465   0.784  0.00  0.00    -0.233 F 
ATOM      3  O   UNL     1      -2.327   1.005  -1.133  0.00  0.00    -0.330 OA
ATOM      4  O   UNL     1      -2.447   3.167  -0.219  0.00  0.00    -0.334 OA
ATOM      5  O   UNL     1       6.615  -0.968  -2.164  0.00  0.00    -0.287 OA
ATOM      6  C   UNL     1      -1.016   0.073   0.750  0.00  0.00    +0.034 C 
ATOM      7  C   UNL     1       0.070   1.147   0.513  0.00  0.00    +0.008 C 
ATOM      8  C   UNL     1       1.470   0.703   0.956  0.00  0.00    +0.036 C 
ATOM      9  C   UNL     1      -2.267   0.860   0.283  0.00  0.00    +0.174 C 
ATOM     10  C   UNL     1       1.881  -0.572   0.140  0.00  0.00    +0.165 C 
ATOM     11  C   UNL     1      -2.051   2.277   0.821  0.00  0.00    +0.149 C 
ATOM     12  C   UNL     1      -0.541   2.414   1.116  0.00  0.00    +0.033 C 
ATOM     13  C   UNL     1      -0.639  -1.155  -0.101  0.00  0.00    +0.035 C 
ATOM     14  C   UNL     1       0.786  -1.680   0.191  0.00  0.00    +0.141 C 
ATOM     15  C   UNL     1       3.356  -1.034   0.469  0.00  0.00    +0.066 C 
ATOM     16  C   UNL     1       2.483   1.841   0.753  0.00  0.00    +0.042 C 
ATOM     17  C   UNL     1      -1.178  -0.320   2.244  0.00  0.00    +0.003 C 
ATOM     18  C   UNL     1       3.909   1.409   1.067  0.00  0.00    +0.180 C 
ATOM     19  C   UNL     1      -2.635   2.378  -1.395  0.00  0.00    +0.188 C 
ATOM     20  C   UNL     1       4.275   0.180   0.272  0.00  0.00    -0.003 C 
ATOM     21  C   UNL     1       3.547  -1.548   1.915  0.00  0.00    +0.011 C 
ATOM     22  C   UNL     1       3.759  -2.185  -0.443  0.00  0.00    -0.017 C 
ATOM     23  C   UNL     1      -4.091   2.480  -1.834  0.00  0.00    +0.061 C 
ATOM     24  C   UNL     1      -1.712   2.905  -2.490  0.00  0.00    +0.061 C 
ATOM     25  C   UNL     1       5.316   0.192  -0.575  0.00  0.00    +0.036 C 
ATOM     26  C   UNL     1       4.793  -2.175  -1.289  0.00  0.00    +0.038 C 
ATOM     27  C   UNL     1       5.654  -0.984  -1.403  0.00  0.00    +0.195 C 
ENDROOT
BRANCH  14  28
ATOM     28  O   UNL     1       0.798  -2.369   1.432  0.00  0.00    -0.382 OA
ATOM     29  H   UNL     1       1.693  -2.696   1.611  0.00  0.00    +0.210 HD
ENDBRANCH  14  28
BRANCH   9  31
ATOM     30  O   UNL     1      -4.371   0.842   1.403  0.00  0.00    -0.290 OA
ATOM     31  C   UNL     1      -3.569   0.237   0.694  0.00  0.00    +0.221 C 
BRANCH  31  32
ATOM     32  C   UNL     1      -3.830  -1.165   0.187  0.00  0.00    +0.275 C 
BRANCH  32  33
ATOM     33  O   UNL     1      -5.214  -1.381   0.006  0.00  0.00    -0.440 OA
BRANCH  33  35
ATOM     34  O   UNL     1      -4.813  -3.539  -0.713  0.00  0.00    -0.250 OA
ATOM     35  C   UNL     1      -5.579  -2.621  -0.452  0.00  0.00    +0.318 C 
ATOM     36  C   UNL     1      -7.068  -2.704  -0.594  0.00  0.00    +0.121 C 
ENDBRANCH  33  35
ENDBRANCH  32  33
ENDBRANCH  31  32
ENDBRANCH   9  31
TORSDOF 5
