REMARK  Name = 115163
REMARK  9 active torsions:
REMARK  status: ('A' for Active; 'I' for Inactive)
REMARK    1  A    between atoms: C_6  and  C_21
REMARK    2  A    between atoms: C_7  and  N_11
REMARK    3  A    between atoms: N_11  and  C_13
REMARK    4  A    between atoms: N_12  and  C_13
REMARK    5  A    between atoms: C_21  and  O_22
REMARK    6  A    between atoms: O_22  and  C_23
REMARK    7  A    between atoms: C_23  and  O_24
REMARK    8  A    between atoms: O_24  and  C_26
REMARK    9  A    between atoms: C_26  and  C_27
REMARK                            x       y       z     vdW  Elec       q    Type
REMARK                         _______ _______ _______ _____ _____    ______ ____
ROOT
ATOM      1  S   UNL     1       1.139   1.114   0.486  0.00  0.00    -0.119 S 
ATOM      2  O   UNL     1       0.870  -3.116  -0.718  0.00  0.00    -0.273 OA
ATOM      3  N   UNL     1       0.095  -1.261   0.519  0.00  0.00    -0.260 N 
ATOM      4  C   UNL     1       1.080  -0.518   1.311  0.00  0.00    +0.149 C 
ATOM      5  C   UNL     1      -0.653   0.974  -0.002  0.00  0.00    +0.068 C 
ATOM      6  C   UNL     1      -0.828  -0.526  -0.322  0.00  0.00    +0.185 C 
ATOM      7  C   UNL     1       2.122  -1.555   0.868  0.00  0.00    +0.179 C 
ATOM      8  C   UNL     1       0.970  -2.213   0.082  0.00  0.00    +0.245 C 
ATOM      9  C   UNL     1      -0.901   1.841  -1.238  0.00  0.00    +0.013 C 
ATOM     10  C   UNL     1      -1.503   1.478   1.172  0.00  0.00    +0.013 C 
ENDROOT
BRANCH   6  12
ATOM     11  O   UNL     1      -2.573  -1.492   1.020  0.00  0.00    -0.248 OA
ATOM     12  C   UNL     1      -2.194  -1.079  -0.067  0.00  0.00    +0.339 C 
BRANCH  12  13
ATOM     13  O   UNL     1      -2.922  -1.041  -1.218  0.00  0.00    -0.407 OA
BRANCH  13  14
ATOM     14  C   UNL     1      -4.268  -1.538  -1.135  0.00  0.00    +0.433 C 
BRANCH  14  15
ATOM     15  O   UNL     1      -5.093  -0.805  -0.214  0.00  0.00    -0.408 OA
BRANCH  15  17
ATOM     16  O   UNL     1      -5.357   0.884  -1.754  0.00  0.00    -0.250 OA
ATOM     17  C   UNL     1      -5.575   0.396  -0.651  0.00  0.00    +0.319 C 
BRANCH  17  18
ATOM     18  C   UNL     1      -6.420   1.061   0.439  0.00  0.00    +0.090 C 
ATOM     19  C   UNL     1      -6.938   2.417  -0.068  0.00  0.00    +0.011 C 
ATOM     20  C   UNL     1      -5.553   1.291   1.684  0.00  0.00    +0.011 C 
ATOM     21  C   UNL     1      -7.620   0.166   0.779  0.00  0.00    +0.011 C 
ENDBRANCH  17  18
ENDBRANCH  15  17
ENDBRANCH  14  15
ENDBRANCH  13  14
ENDBRANCH  12  13
ENDBRANCH   6  12
BRANCH   7  22
ATOM     22  N   UNL     1       3.165  -1.062  -0.007  0.00  0.00    -0.190 NA
BRANCH  22  23
ATOM     23  C   UNL     1       4.313  -0.897   0.575  0.00  0.00    +0.164 C 
BRANCH  23  24
ATOM     24  N   UNL     1       5.466  -0.452   0.017  0.00  0.00    -0.258 NA
ATOM     25  C   UNL     1       5.523  -0.141  -1.411  0.00  0.00    +0.073 C 
ATOM     26  C   UNL     1       6.680  -0.323   0.819  0.00  0.00    +0.073 C 
ATOM     27  C   UNL     1       6.510   0.962  -1.786  0.00  0.00    +0.017 C 
ATOM     28  C   UNL     1       6.791   1.093   1.378  0.00  0.00    +0.017 C 
ATOM     29  C   UNL     1       6.413   2.215  -0.916  0.00  0.00    +0.001 C 
ATOM     30  C   UNL     1       7.258   2.128   0.356  0.00  0.00    +0.001 C 
ENDBRANCH  23  24
ENDBRANCH  22  23
ENDBRANCH   7  22
TORSDOF 9
