REMARK  Name = 439278
REMARK  8 active torsions:
REMARK  status: ('A' for Active; 'I' for Inactive)
REMARK    1  A    between atoms: C_1  and  C_3
REMARK    2  A    between atoms: C_1  and  O_6
REMARK    3  A    between atoms: C_1  and  C_13
REMARK    4  A    between atoms: C_3  and  O_4
REMARK    5  A    between atoms: O_6  and  P_7
REMARK    6  A    between atoms: P_7  and  O_9
REMARK    7  A    between atoms: P_7  and  O_11
REMARK    8  A    between atoms: C_13  and  O_14
REMARK                            x       y       z     vdW  Elec       q    Type
REMARK                         _______ _______ _______ _____ _____    ______ ____
ROOT
ATOM      1  C   UNL     1      -0.769  -0.338   0.619  0.00  0.00    +0.253 C 
ENDROOT
BRANCH   1   3
ATOM      2  O   UNL     1      -0.996   1.202  -1.254  0.00  0.00    -0.247 OA
ATOM      3  C   UNL     1      -1.121   0.967  -0.061  0.00  0.00    +0.344 C 
BRANCH   3   4
ATOM      4  O   UNL     1      -1.632   1.855   0.830  0.00  0.00    -0.478 OA
ATOM      5  H   UNL     1      -1.705   1.622   1.734  0.00  0.00    +0.295 HD
ENDBRANCH   3   4
ENDBRANCH   1   3
BRANCH   1   6
ATOM      6  O   UNL     1       0.363  -0.897  -0.031  0.00  0.00    -0.262 OA
BRANCH   6   7
ATOM      7  P   UNL     1       1.737  -0.043  -0.054  0.00  0.00    +0.474 P 
ATOM      8  O   UNL     1       1.640   1.295  -0.726  0.00  0.00    -0.227 OA
BRANCH   7   9
ATOM      9  O   UNL     1       2.814  -1.064  -0.697  0.00  0.00    -0.303 OA
ATOM     10  H   UNL     1       2.806  -1.897  -0.201  0.00  0.00    +0.222 HD
ENDBRANCH   7   9
BRANCH   7  11
ATOM     11  O   UNL     1       2.156   0.005   1.507  0.00  0.00    -0.303 OA
ATOM     12  H   UNL     1       2.194  -0.898   1.860  0.00  0.00    +0.222 HD
ENDBRANCH   7  11
ENDBRANCH   6   7
ENDBRANCH   1   6
BRANCH   1  13
ATOM     13  C   UNL     1      -1.914  -1.342   0.605  0.00  0.00    +0.179 C 
BRANCH  13  14
ATOM     14  O   UNL     1      -2.279  -1.640  -0.738  0.00  0.00    -0.379 OA
ATOM     15  H   UNL     1      -3.008  -2.279  -0.741  0.00  0.00    +0.211 HD
ENDBRANCH  13  14
ENDBRANCH   1  13
TORSDOF 8
