REMARK  Name = 657131
REMARK  7 active torsions:
REMARK  status: ('A' for Active; 'I' for Inactive)
REMARK    1  A    between atoms: C_1  and  CA_2
REMARK    2  A    between atoms: C_1  and  C_3
REMARK    3  A    between atoms: CA_2  and  C_28
REMARK    4  A    between atoms: C_4  and  O_9
REMARK    5  A    between atoms: O_9  and  C_11
REMARK    6  A    between atoms: C_19  and  C_21
REMARK    7  A    between atoms: C_28  and  O_29
REMARK                            x       y       z     vdW  Elec       q    Type
REMARK                         _______ _______ _______ _____ _____    ______ ____
ROOT
ATOM      1  C   UNL     1      -1.365  -2.689   0.117  0.00  0.00    +0.074 C 
ENDROOT
BRANCH   1   2
ATOM      2  C   UNL     1      -0.020  -2.229  -0.186  0.00  0.00    -0.016 C 
ATOM      3  C   UNL     1       2.562  -1.345  -0.765  0.00  0.00    +0.145 C 
ATOM      4  C   UNL     1       0.418  -2.172  -1.509  0.00  0.00    -0.001 C 
ATOM      5  C   UNL     1       0.834  -1.843   0.848  0.00  0.00    -0.001 C 
ATOM      6  C   UNL     1       1.709  -1.730  -1.799  0.00  0.00    +0.037 C 
ATOM      7  C   UNL     1       2.125  -1.401   0.558  0.00  0.00    +0.037 C 
BRANCH   3   8
ATOM      8  O   UNL     1       3.821  -0.913  -1.048  0.00  0.00    -0.453 OA
BRANCH   8  10
ATOM      9 BR   UNL     1       6.373  -1.429   0.675  0.00  0.00    -0.046 Br
ATOM     10  C   UNL     1       4.274   0.223  -0.398  0.00  0.00    +0.151 C 
ATOM     11  C   UNL     1       5.397   0.174   0.410  0.00  0.00    +0.069 C 
ATOM     12  C   UNL     1       3.567   1.398  -0.586  0.00  0.00    +0.038 C 
ATOM     13  C   UNL     1       5.826   1.337   1.050  0.00  0.00    +0.010 C 
ATOM     14  C   UNL     1       3.997   2.561   0.054  0.00  0.00    +0.003 C 
ATOM     15  C   UNL     1       5.126   2.530   0.872  0.00  0.00    +0.001 C 
ENDBRANCH   8  10
ENDBRANCH   3   8
ENDBRANCH   1   2
BRANCH   1  16
ATOM     16  CA  UNL     1      -2.470  -1.915   0.226  0.00  0.00    +0.108 C 
ATOM     17  O   UNL     1      -4.723  -0.174   0.429  0.00  0.00    -0.270 OA
ATOM     18  N   UNL     1      -2.456  -0.556   0.078  0.00  0.00    -0.278 N 
ATOM     19  C   UNL     1      -3.589   0.235   0.189  0.00  0.00    +0.249 C 
ATOM     20  H   UNL     1      -1.597  -0.117  -0.118  0.00  0.00    +0.155 HD
BRANCH  19  21
ATOM     21  C   UNL     1      -3.371   1.695   0.019  0.00  0.00    +0.054 C 
ATOM     22  C   UNL     1      -4.413   2.474  -0.440  0.00  0.00    +0.005 C 
ATOM     23  C   UNL     1      -2.136   2.224   0.328  0.00  0.00    +0.005 C 
ATOM     24  C   UNL     1      -4.209   3.844  -0.599  0.00  0.00    +0.000 C 
ATOM     25  C   UNL     1      -1.932   3.595   0.169  0.00  0.00    +0.000 C 
ATOM     26  C   UNL     1      -2.969   4.405  -0.295  0.00  0.00    +0.000 C 
ENDBRANCH  19  21
BRANCH  16  28
ATOM     27  OXT UNL     1      -4.205  -2.777   1.661  0.00  0.00    -0.244 OA
ATOM     28  C   UNL     1      -3.764  -2.577   0.539  0.00  0.00    +0.348 C 
BRANCH  28  29
ATOM     29  O   UNL     1      -4.408  -2.941  -0.596  0.00  0.00    -0.476 OA
ATOM     30  H   UNL     1      -4.023  -2.762  -1.431  0.00  0.00    +0.295 HD
ENDBRANCH  28  29
ENDBRANCH  16  28
ENDBRANCH   1  16
TORSDOF 7
