REMARK  Name = 448220
REMARK  8 active torsions:
REMARK  status: ('A' for Active; 'I' for Inactive)
REMARK    1  A    between atoms: C_1  and  C_3
REMARK    2  A    between atoms: C_1  and  O_8
REMARK    3  A    between atoms: C_1  and  O_10
REMARK    4  A    between atoms: C_1  and  C_12
REMARK    5  A    between atoms: C_12  and  N_13
REMARK    6  A    between atoms: C_12  and  C_17
REMARK    7  A    between atoms: C_17  and  C_18
REMARK    8  A    between atoms: C_18  and  S_19
REMARK                            x       y       z     vdW  Elec       q    Type
REMARK                         _______ _______ _______ _____ _____    ______ ____
ROOT
ATOM      1  C   UNL     1      -0.226  -1.453   0.093  0.00  0.00    +0.198 C 
ENDROOT
BRANCH   1   3
ATOM      2  N   UNL     1      -1.538   0.130  -1.186  0.00  0.00    -0.243 NA
ATOM      3  C   UNL     1      -1.261  -0.331   0.038  0.00  0.00    +0.107 C 
ATOM      4  C   UNL     1      -1.807   0.100   1.216  0.00  0.00    +0.019 C 
ATOM      5  C   UNL     1      -2.745   1.123   1.131  0.00  0.00    +0.003 C 
ATOM      6  C   UNL     1      -2.454   1.123  -1.229  0.00  0.00    +0.099 C 
ATOM      7  C   UNL     1      -3.081   1.649  -0.111  0.00  0.00    +0.021 C 
ENDBRANCH   1   3
BRANCH   1   8
ATOM      8  O   UNL     1      -0.371  -2.148  -1.152  0.00  0.00    -0.361 OA
ATOM      9  H   UNL     1      -0.204  -1.703  -1.960  0.00  0.00    +0.213 HD
ENDBRANCH   1   8
BRANCH   1  10
ATOM     10  O   UNL     1      -0.539  -2.361   1.149  0.00  0.00    -0.361 OA
ATOM     11  H   UNL     1      -0.497  -2.075   2.040  0.00  0.00    +0.213 HD
ENDBRANCH   1  10
BRANCH   1  12
ATOM     12  C   UNL     1       1.229  -0.906   0.245  0.00  0.00    -0.007 C 
BRANCH  12  13
ATOM     13  N   UNL     1       2.166  -2.026   0.416  0.00  0.00    +0.385 N 
ATOM     14  H   UNL     1       1.831  -2.638   1.159  0.00  0.00    -0.089 HD
ATOM     15  H   UNL     1       3.087  -1.664   0.662  0.00  0.00    -0.089 HD
ATOM     16  H   UNL     1       2.229  -2.552  -0.456  0.00  0.00    -0.089 HD
ENDBRANCH  12  13
BRANCH  12  17
ATOM     17  C   UNL     1       1.726   0.035  -0.884  0.00  0.00    -0.005 C 
BRANCH  17  18
ATOM     18  C   UNL     1       3.147   0.605  -0.822  0.00  0.00    +0.056 C 
BRANCH  18  19
ATOM     19  S   UNL     1       3.506   1.590   0.660  0.00  0.00    -0.139 S 
ATOM     20  C   UNL     1       2.248   2.868   0.437  0.00  0.00    +0.069 C 
ENDBRANCH  18  19
ENDBRANCH  17  18
ENDBRANCH  12  17
ENDBRANCH   1  12
TORSDOF 8
