REMARK  Name = 17150
REMARK  3 active torsions:
REMARK  status: ('A' for Active; 'I' for Inactive)
REMARK    1  A    between atoms: C_6  and  O_22
REMARK    2  A    between atoms: C_9  and  O_24
REMARK    3  A    between atoms: C_20  and  C_27
REMARK                            x       y       z     vdW  Elec       q    Type
REMARK                         _______ _______ _______ _____ _____    ______ ____
ROOT
ATOM      1  O   UNL     1       5.078  -0.760   1.229  0.00  0.00    -0.286 OA
ATOM      2  C   UNL     1      -2.955   0.507  -0.209  0.00  0.00    +0.025 C 
ATOM      3  C   UNL     1      -2.285  -0.744   0.393  0.00  0.00    +0.002 C 
ATOM      4  C   UNL     1      -0.953  -1.091  -0.284  0.00  0.00    +0.003 C 
ATOM      5  C   UNL     1       0.051   0.110  -0.133  0.00  0.00    +0.034 C 
ATOM      6  C   UNL     1      -4.308   0.513   0.569  0.00  0.00    +0.088 C 
ATOM      7  C   UNL     1      -2.011   1.688   0.036  0.00  0.00    +0.031 C 
ATOM      8  C   UNL     1      -3.399  -1.787   0.375  0.00  0.00    +0.002 C 
ATOM      9  C   UNL     1      -0.606   1.462  -0.562  0.00  0.00    +0.111 C 
ATOM     10  C   UNL     1       1.447  -0.228  -0.814  0.00  0.00    +0.036 C 
ATOM     11  C   UNL     1      -4.690  -0.988   0.624  0.00  0.00    +0.027 C 
ATOM     12  C   UNL     1      -0.360  -2.384   0.297  0.00  0.00    +0.004 C 
ATOM     13  C   UNL     1      -3.232   0.396  -1.735  0.00  0.00    +0.002 C 
ATOM     14  C   UNL     1       0.979  -2.728  -0.345  0.00  0.00    +0.022 C 
ATOM     15  C   UNL     1       1.927  -1.563  -0.230  0.00  0.00    -0.038 C 
ATOM     16  C   UNL     1      -4.255   1.110   1.981  0.00  0.00    +0.029 C 
ATOM     17  C   UNL     1       1.329  -0.358  -2.351  0.00  0.00    +0.009 C 
ATOM     18  C   UNL     1       2.481   0.868  -0.583  0.00  0.00    -0.016 C 
ATOM     19  C   UNL     1       3.092  -1.719   0.418  0.00  0.00    +0.034 C 
ATOM     20  C   UNL     1       3.645   0.721   0.063  0.00  0.00    +0.077 C 
ATOM     21  C   UNL     1       4.026  -0.594   0.621  0.00  0.00    +0.198 C 
ENDROOT
BRANCH   6  22
ATOM     22  O   UNL     1      -5.305   1.241  -0.145  0.00  0.00    -0.387 OA
ATOM     23  H   UNL     1      -5.373   0.895  -1.049  0.00  0.00    +0.210 HD
ENDBRANCH   6  22
BRANCH   9  24
ATOM     24  O   UNL     1       0.193   2.559  -0.115  0.00  0.00    -0.384 OA
ATOM     25  H   UNL     1       1.093   2.466  -0.464  0.00  0.00    +0.210 HD
ENDBRANCH   9  24
BRANCH  20  27
ATOM     26  O   UNL     1       5.596   1.871   0.734  0.00  0.00    -0.283 OA
ATOM     27  C   UNL     1       4.513   1.899   0.164  0.00  0.00    +0.237 C 
ENDBRANCH  20  27
TORSDOF 3
