15130
  -OEChem-10051719323D

 57 58  0     1  0  0  0  0  0999 V2000
    1.2622   -1.5462   -0.6022 O   0  0  0  0  0  0  0  0  0  0  0  0
    1.0647   -3.2930   -2.1011 O   0  0  0  0  0  0  0  0  0  0  0  0
    2.4939    0.7223    1.0872 N   0  0  0  0  0  0  0  0  0  0  0  0
   -0.5010    0.0337    0.1856 C   0  0  0  0  0  0  0  0  0  0  0  0
    0.1705   -0.0058    1.6233 C   0  0  0  0  0  0  0  0  0  0  0  0
   -0.1556   -1.3730   -0.4962 C   0  0  2  0  0  0  0  0  0  0  0  0
    1.6862   -0.3184    1.7269 C   0  0  2  0  0  0  0  0  0  0  0  0
    0.1677    1.2135   -0.5882 C   0  0  0  0  0  0  0  0  0  0  0  0
   -2.0551    0.1493    0.2241 C   0  0  0  0  0  0  0  0  0  0  0  0
   -0.7580   -2.6285    0.1740 C   0  0  0  0  0  0  0  0  0  0  0  0
    2.1091   -0.4181    3.1957 C   0  0  0  0  0  0  0  0  0  0  0  0
   -0.0453    2.4731   -0.1179 C   0  0  0  0  0  0  0  0  0  0  0  0
   -2.7157    0.1612   -0.9675 C   0  0  0  0  0  0  0  0  0  0  0  0
    0.9188    0.9025   -1.6801 C   0  0  0  0  0  0  0  0  0  0  0  0
   -2.6509    0.2304    1.4467 C   0  0  0  0  0  0  0  0  0  0  0  0
   -2.2839   -2.5988    0.1756 C   0  0  0  0  0  0  0  0  0  0  0  0
    3.9142    0.3859    1.1681 C   0  0  0  0  0  0  0  0  0  0  0  0
    2.2381    2.0199    1.7095 C   0  0  0  0  0  0  0  0  0  0  0  0
    0.5522    3.5273   -0.8089 C   0  0  0  0  0  0  0  0  0  0  0  0
   -4.1063    0.2644   -0.9331 C   0  0  0  0  0  0  0  0  0  0  0  0
    1.5163    1.9567   -2.3711 C   0  0  0  0  0  0  0  0  0  0  0  0
   -4.0416    0.3334    1.4810 C   0  0  0  0  0  0  0  0  0  0  0  0
    1.6666   -2.6904   -1.2227 C   0  0  0  0  0  0  0  0  0  0  0  0
    1.3330    3.2691   -1.9353 C   0  0  0  0  0  0  0  0  0  0  0  0
   -4.7692    0.3504    0.2910 C   0  0  0  0  0  0  0  0  0  0  0  0
    2.9891   -3.1210   -0.6646 C   0  0  0  0  0  0  0  0  0  0  0  0
   -0.0911    0.8864    2.2017 H   0  0  0  0  0  0  0  0  0  0  0  0
   -0.3112   -0.8141    2.1921 H   0  0  0  0  0  0  0  0  0  0  0  0
   -0.5483   -1.3643   -1.5233 H   0  0  0  0  0  0  0  0  0  0  0  0
    1.9139   -1.3100    1.3462 H   0  0  0  0  0  0  0  0  0  0  0  0
   -0.3769   -2.7585    1.1926 H   0  0  0  0  0  0  0  0  0  0  0  0
   -0.4659   -3.5464   -0.3439 H   0  0  0  0  0  0  0  0  0  0  0  0
    3.1452   -0.7396    3.3359 H   0  0  0  0  0  0  0  0  0  0  0  0
    1.9381    0.4968    3.7712 H   0  0  0  0  0  0  0  0  0  0  0  0
    1.5035   -1.1908    3.6878 H   0  0  0  0  0  0  0  0  0  0  0  0
   -0.6731    2.6896    0.7396 H   0  0  0  0  0  0  0  0  0  0  0  0
   -2.2156    0.1090   -1.9280 H   0  0  0  0  0  0  0  0  0  0  0  0
    1.0461   -0.0576   -2.1508 H   0  0  0  0  0  0  0  0  0  0  0  0
   -2.1434    0.2306    2.4008 H   0  0  0  0  0  0  0  0  0  0  0  0
   -2.7166   -2.1344    1.0549 H   0  0  0  0  0  0  0  0  0  0  0  0
   -2.6114   -3.6434    0.2893 H   0  0  0  0  0  0  0  0  0  0  0  0
   -2.7207   -2.3023   -0.7772 H   0  0  0  0  0  0  0  0  0  0  0  0
    4.3577    0.5102    2.1615 H   0  0  0  0  0  0  0  0  0  0  0  0
    4.1063   -0.6348    0.8217 H   0  0  0  0  0  0  0  0  0  0  0  0
    4.4730    1.0444    0.4922 H   0  0  0  0  0  0  0  0  0  0  0  0
    2.6209    2.8066    1.0487 H   0  0  0  0  0  0  0  0  0  0  0  0
    1.2177    2.2870    1.9664 H   0  0  0  0  0  0  0  0  0  0  0  0
    2.8041    2.1410    2.6431 H   0  0  0  0  0  0  0  0  0  0  0  0
    0.4038    4.5496   -0.4736 H   0  0  0  0  0  0  0  0  0  0  0  0
   -4.6728    0.2806   -1.8597 H   0  0  0  0  0  0  0  0  0  0  0  0
    2.1079    1.7595   -3.2605 H   0  0  0  0  0  0  0  0  0  0  0  0
   -4.5587    0.4021    2.4337 H   0  0  0  0  0  0  0  0  0  0  0  0
    1.7935    4.0903   -2.4766 H   0  0  0  0  0  0  0  0  0  0  0  0
   -5.8519    0.4316    0.3177 H   0  0  0  0  0  0  0  0  0  0  0  0
    3.2992   -4.0508   -1.1506 H   0  0  0  0  0  0  0  0  0  0  0  0
    3.7431   -2.3572   -0.8680 H   0  0  0  0  0  0  0  0  0  0  0  0
    2.9015   -3.3074    0.4083 H   0  0  0  0  0  0  0  0  0  0  0  0
  1  6  1  0  0  0  0
  1 23  1  0  0  0  0
  2 23  2  0  0  0  0
  3  7  1  0  0  0  0
  3 17  1  0  0  0  0
  3 18  1  0  0  0  0
  4  5  1  0  0  0  0
  4  6  1  0  0  0  0
  4  8  1  0  0  0  0
  4  9  1  0  0  0  0
  5  7  1  0  0  0  0
  5 27  1  0  0  0  0
  5 28  1  0  0  0  0
  6 10  1  0  0  0  0
  6 29  1  0  0  0  0
  7 11  1  0  0  0  0
  7 30  1  0  0  0  0
  8 12  2  0  0  0  0
  8 14  1  0  0  0  0
  9 13  2  0  0  0  0
  9 15  1  0  0  0  0
 10 16  1  0  0  0  0
 10 31  1  0  0  0  0
 10 32  1  0  0  0  0
 11 33  1  0  0  0  0
 11 34  1  0  0  0  0
 11 35  1  0  0  0  0
 12 19  1  0  0  0  0
 12 36  1  0  0  0  0
 13 20  1  0  0  0  0
 13 37  1  0  0  0  0
 14 21  2  0  0  0  0
 14 38  1  0  0  0  0
 15 22  2  0  0  0  0
 15 39  1  0  0  0  0
 16 40  1  0  0  0  0
 16 41  1  0  0  0  0
 16 42  1  0  0  0  0
 17 43  1  0  0  0  0
 17 44  1  0  0  0  0
 17 45  1  0  0  0  0
 18 46  1  0  0  0  0
 18 47  1  0  0  0  0
 18 48  1  0  0  0  0
 19 24  2  0  0  0  0
 19 49  1  0  0  0  0
 20 25  2  0  0  0  0
 20 50  1  0  0  0  0
 21 24  1  0  0  0  0
 21 51  1  0  0  0  0
 22 25  1  0  0  0  0
 22 52  1  0  0  0  0
 23 26  1  0  0  0  0
 24 53  1  0  0  0  0
 25 54  1  0  0  0  0
 26 55  1  0  0  0  0
 26 56  1  0  0  0  0
 26 57  1  0  0  0  0
M  END
> <DATABASE_ID>
DB01227

> <DATABASE_NAME>
drugbank

> <ORIGINAL_SOURCE>
PUBCHEM

> <ORIGINAL_SOURCE_URL>
https://pubchem.ncbi.nlm.nih.gov/rest/pug/compound/inchikey/XBMIVRRWGCYBTQ-AVRDEDQJSA-N/SDF?record_type=3d

> <SMILES>
CC[C@H](OC(C)=O)C(C[C@H](C)N(C)C)(C1=CC=CC=C1)C1=CC=CC=C1

> <INCHI_IDENTIFIER>
InChI=1S/C23H31NO2/c1-6-22(26-19(3)25)23(17-18(2)24(4)5,20-13-9-7-10-14-20)21-15-11-8-12-16-21/h7-16,18,22H,6,17H2,1-5H3/t18-,22-/m0/s1

> <INCHI_KEY>
XBMIVRRWGCYBTQ-AVRDEDQJSA-N

> <FORMULA>
C23H31NO2

> <MOLECULAR_WEIGHT>
353.4977

> <EXACT_MASS>
353.235479241

> <JCHEM_ACCEPTOR_COUNT>
2

> <JCHEM_AVERAGE_POLARIZABILITY>
40.5322514105547

> <JCHEM_BIOAVAILABILITY>
1

> <JCHEM_DONOR_COUNT>
0

> <JCHEM_FORMAL_CHARGE>
0

> <JCHEM_GHOSE_FILTER>
1

> <JCHEM_IUPAC>
(3S,6S)-6-(dimethylamino)-4,4-diphenylheptan-3-yl acetate

> <ALOGPS_LOGP>
4.78

> <JCHEM_LOGP>
4.884769339999999

> <ALOGPS_LOGS>
-5.30

> <JCHEM_MDDR_LIKE_RULE>
0

> <JCHEM_NUMBER_OF_RINGS>
2

> <JCHEM_PHYSIOLOGICAL_CHARGE>
1

> <JCHEM_PKA_STRONGEST_BASIC>
9.869489670661055

> <JCHEM_POLAR_SURFACE_AREA>
29.54

> <JCHEM_REFRACTIVITY>
117.85760000000002

> <JCHEM_ROTATABLE_BOND_COUNT>
9

> <JCHEM_RULE_OF_FIVE>
1

> <ALOGPS_SOLUBILITY>
1.79e-03 g/l

> <JCHEM_TRADITIONAL_IUPAC>
levomethadyl acetate

> <JCHEM_VEBER_RULE>
1

> <DRUGBANK_ID>
DB01227

> <SECONDARY_ACCESSION_NUMBERS>
APRD00745

> <DRUG_GROUPS>
approved; investigational

> <GENERIC_NAME>
Levacetylmethadol

> <SYNONYMS>
(-)-alpha-Acetylmethadol; (1S,4S)-4-(dimethylamino)-1-ethyl-2,2-diphenylpentyl acetate; 1-alpha-Acetylmethadol; LAAM; Levacetilmetadol; Levacetylmethadol; Levacetylmethadolum; Levo-alpha-acetylmethadol; Levo-methadyl acetate; Levo-Î±-acetylmethadol; Levomethadyl; Levomethadyl acetate

> <INTERNATIONAL_BRANDS>
Orlaam

> <SALTS>
Levacetylmethadol hydrochloride

$$$$
