62516
  -OEChem-10051719373D

 56 58  0     0  0  0  0  0  0999 V2000
    4.6878    1.3581    0.7680 O   0  0  0  0  0  0  0  0  0  0  0  0
    4.3053    2.1441   -1.3703 O   0  0  0  0  0  0  0  0  0  0  0  0
   -3.7737    0.3038   -0.1506 O   0  0  0  0  0  0  0  0  0  0  0  0
   -0.1321    0.5436   -0.6676 N   0  0  0  0  0  0  0  0  0  0  0  0
    2.8389    0.4831   -0.3930 C   0  0  0  0  0  0  0  0  0  0  0  0
    2.0865    0.6249   -1.7432 C   0  0  0  0  0  0  0  0  0  0  0  0
    1.8785    1.0163    0.7039 C   0  0  0  0  0  0  0  0  0  0  0  0
    0.7072   -0.0402   -1.7195 C   0  0  0  0  0  0  0  0  0  0  0  0
    0.4832    0.3797    0.6540 C   0  0  0  0  0  0  0  0  0  0  0  0
    3.3906   -0.9336   -0.1753 C   0  0  0  0  0  0  0  0  0  0  0  0
    4.0187    1.4317   -0.4177 C   0  0  0  0  0  0  0  0  0  0  0  0
   -1.4697   -0.0473   -0.6892 C   0  0  0  0  0  0  0  0  0  0  0  0
    2.9989   -1.6706    0.9424 C   0  0  0  0  0  0  0  0  0  0  0  0
    4.2838   -1.4830   -1.0951 C   0  0  0  0  0  0  0  0  0  0  0  0
   -2.4893    0.9104   -0.0937 C   0  0  0  0  0  0  0  0  0  0  0  0
    3.5004   -2.9572    1.1400 C   0  0  0  0  0  0  0  0  0  0  0  0
    4.7851   -2.7697   -0.8974 C   0  0  0  0  0  0  0  0  0  0  0  0
    4.3935   -3.5066    0.2201 C   0  0  0  0  0  0  0  0  0  0  0  0
    5.8333    2.2084    0.8816 C   0  0  0  0  0  0  0  0  0  0  0  0
   -4.7724    1.1434    0.4122 C   0  0  0  0  0  0  0  0  0  0  0  0
    6.4606    2.0111    2.2450 C   0  0  0  0  0  0  0  0  0  0  0  0
   -6.1009    0.4516    0.3236 C   0  0  0  0  0  0  0  0  0  0  0  0
   -6.9070    0.6311   -0.8007 C   0  0  0  0  0  0  0  0  0  0  0  0
   -6.5298   -0.3713    1.3652 C   0  0  0  0  0  0  0  0  0  0  0  0
   -8.1419   -0.0122   -0.8833 C   0  0  0  0  0  0  0  0  0  0  0  0
   -7.7647   -1.0146    1.2823 C   0  0  0  0  0  0  0  0  0  0  0  0
   -8.5708   -0.8350    0.1580 C   0  0  0  0  0  0  0  0  0  0  0  0
    2.6674    0.2110   -2.5763 H   0  0  0  0  0  0  0  0  0  0  0  0
    1.9401    1.6878   -1.9856 H   0  0  0  0  0  0  0  0  0  0  0  0
    1.7558    2.1028    0.5757 H   0  0  0  0  0  0  0  0  0  0  0  0
    2.2999    0.9003    1.7106 H   0  0  0  0  0  0  0  0  0  0  0  0
    0.2417    0.1261   -2.6989 H   0  0  0  0  0  0  0  0  0  0  0  0
    0.8091   -1.1252   -1.5894 H   0  0  0  0  0  0  0  0  0  0  0  0
    0.5059   -0.6781    0.9311 H   0  0  0  0  0  0  0  0  0  0  0  0
   -0.1213    0.8840    1.4164 H   0  0  0  0  0  0  0  0  0  0  0  0
   -1.5064   -1.0246   -0.1898 H   0  0  0  0  0  0  0  0  0  0  0  0
   -1.7886   -0.2427   -1.7226 H   0  0  0  0  0  0  0  0  0  0  0  0
    2.3475   -1.2855    1.7158 H   0  0  0  0  0  0  0  0  0  0  0  0
    4.6093   -0.9250   -1.9686 H   0  0  0  0  0  0  0  0  0  0  0  0
   -2.5052    1.8488   -0.6617 H   0  0  0  0  0  0  0  0  0  0  0  0
   -2.2548    1.1380    0.9517 H   0  0  0  0  0  0  0  0  0  0  0  0
    3.2045   -3.5278    2.0155 H   0  0  0  0  0  0  0  0  0  0  0  0
    5.4824   -3.1968   -1.6122 H   0  0  0  0  0  0  0  0  0  0  0  0
    4.7862   -4.5072    0.3757 H   0  0  0  0  0  0  0  0  0  0  0  0
    6.5571    1.9514    0.1002 H   0  0  0  0  0  0  0  0  0  0  0  0
    5.5253    3.2532    0.7631 H   0  0  0  0  0  0  0  0  0  0  0  0
   -4.8083    2.0986   -0.1265 H   0  0  0  0  0  0  0  0  0  0  0  0
   -4.5330    1.3641    1.4600 H   0  0  0  0  0  0  0  0  0  0  0  0
    5.7423    2.2466    3.0372 H   0  0  0  0  0  0  0  0  0  0  0  0
    6.7566    0.9662    2.3850 H   0  0  0  0  0  0  0  0  0  0  0  0
    7.3417    2.6474    2.3662 H   0  0  0  0  0  0  0  0  0  0  0  0
   -6.5830    1.2679   -1.6194 H   0  0  0  0  0  0  0  0  0  0  0  0
   -5.9099   -0.5208    2.2452 H   0  0  0  0  0  0  0  0  0  0  0  0
   -8.7693    0.1270   -1.7588 H   0  0  0  0  0  0  0  0  0  0  0  0
   -8.0985   -1.6558    2.0928 H   0  0  0  0  0  0  0  0  0  0  0  0
   -9.5322   -1.3362    0.0935 H   0  0  0  0  0  0  0  0  0  0  0  0
  1 11  1  0  0  0  0
  1 19  1  0  0  0  0
  2 11  2  0  0  0  0
  3 15  1  0  0  0  0
  3 20  1  0  0  0  0
  4  8  1  0  0  0  0
  4  9  1  0  0  0  0
  4 12  1  0  0  0  0
  5  6  1  0  0  0  0
  5  7  1  0  0  0  0
  5 10  1  0  0  0  0
  5 11  1  0  0  0  0
  6  8  1  0  0  0  0
  6 28  1  0  0  0  0
  6 29  1  0  0  0  0
  7  9  1  0  0  0  0
  7 30  1  0  0  0  0
  7 31  1  0  0  0  0
  8 32  1  0  0  0  0
  8 33  1  0  0  0  0
  9 34  1  0  0  0  0
  9 35  1  0  0  0  0
 10 13  2  0  0  0  0
 10 14  1  0  0  0  0
 12 15  1  0  0  0  0
 12 36  1  0  0  0  0
 12 37  1  0  0  0  0
 13 16  1  0  0  0  0
 13 38  1  0  0  0  0
 14 17  2  0  0  0  0
 14 39  1  0  0  0  0
 15 40  1  0  0  0  0
 15 41  1  0  0  0  0
 16 18  2  0  0  0  0
 16 42  1  0  0  0  0
 17 18  1  0  0  0  0
 17 43  1  0  0  0  0
 18 44  1  0  0  0  0
 19 21  1  0  0  0  0
 19 45  1  0  0  0  0
 19 46  1  0  0  0  0
 20 22  1  0  0  0  0
 20 47  1  0  0  0  0
 20 48  1  0  0  0  0
 21 49  1  0  0  0  0
 21 50  1  0  0  0  0
 21 51  1  0  0  0  0
 22 23  2  0  0  0  0
 22 24  1  0  0  0  0
 23 25  1  0  0  0  0
 23 52  1  0  0  0  0
 24 26  2  0  0  0  0
 24 53  1  0  0  0  0
 25 27  2  0  0  0  0
 25 54  1  0  0  0  0
 26 27  1  0  0  0  0
 26 55  1  0  0  0  0
 27 56  1  0  0  0  0
M  END
> <DATABASE_ID>
DB01518

> <DATABASE_NAME>
drugbank

> <ORIGINAL_SOURCE>
PUBCHEM

> <ORIGINAL_SOURCE_URL>
https://pubchem.ncbi.nlm.nih.gov/rest/pug/compound/inchikey/UVTBZAWTRVBTMK-UHFFFAOYSA-N/SDF?record_type=3d

> <SMILES>
CCOC(=O)C1(CCN(CCOCC2=CC=CC=C2)CC1)C1=CC=CC=C1

> <INCHI_IDENTIFIER>
InChI=1S/C23H29NO3/c1-2-27-22(25)23(21-11-7-4-8-12-21)13-15-24(16-14-23)17-18-26-19-20-9-5-3-6-10-20/h3-12H,2,13-19H2,1H3

> <INCHI_KEY>
UVTBZAWTRVBTMK-UHFFFAOYSA-N

> <FORMULA>
C23H29NO3

> <MOLECULAR_WEIGHT>
367.4813

> <EXACT_MASS>
367.214743799

> <JCHEM_ACCEPTOR_COUNT>
3

> <JCHEM_AVERAGE_POLARIZABILITY>
41.89367468003173

> <JCHEM_BIOAVAILABILITY>
1

> <JCHEM_DONOR_COUNT>
0

> <JCHEM_FORMAL_CHARGE>
0

> <JCHEM_GHOSE_FILTER>
1

> <JCHEM_IUPAC>
ethyl 1-[2-(benzyloxy)ethyl]-4-phenylpiperidine-4-carboxylate

> <ALOGPS_LOGP>
3.98

> <JCHEM_LOGP>
4.133298004999999

> <ALOGPS_LOGS>
-4.74

> <JCHEM_MDDR_LIKE_RULE>
1

> <JCHEM_NUMBER_OF_RINGS>
3

> <JCHEM_PHYSIOLOGICAL_CHARGE>
1

> <JCHEM_PKA_STRONGEST_BASIC>
8.109248548307447

> <JCHEM_POLAR_SURFACE_AREA>
38.77

> <JCHEM_REFRACTIVITY>
108.13980000000001

> <JCHEM_ROTATABLE_BOND_COUNT>
9

> <JCHEM_RULE_OF_FIVE>
1

> <ALOGPS_SOLUBILITY>
6.73e-03 g/l

> <JCHEM_TRADITIONAL_IUPAC>
benzethidine

> <JCHEM_VEBER_RULE>
1

> <DRUGBANK_ID>
DB01518

> <DRUG_GROUPS>
experimental; illicit

> <GENERIC_NAME>
Benzethidine

$$$$
