REMARK  Name = 657117
REMARK  6 active torsions:
REMARK  status: ('A' for Active; 'I' for Inactive)
REMARK    1  A    between atoms: C_2  and  O_7
REMARK    2  A    between atoms: C_3  and  O_9
REMARK    3  A    between atoms: C_4  and  O_11
REMARK    4  A    between atoms: C_5  and  C_16
REMARK    5  A    between atoms: C_6  and  O_13
REMARK    6  A    between atoms: C_16  and  O_17
REMARK                            x       y       z     vdW  Elec       q    Type
REMARK                         _______ _______ _______ _____ _____    ______ ____
ROOT
ATOM      1  O   UNL     1       0.275   1.389  -0.128  0.00  0.00    -0.317 OA
ATOM      2  C   UNL     1      -1.380  -0.924   0.293  0.00  0.00    +0.172 C 
ATOM      3  C   UNL     1       0.106  -1.058  -0.040  0.00  0.00    +0.178 C 
ATOM      4  C   UNL     1      -1.944   0.398  -0.230  0.00  0.00    +0.196 C 
ATOM      5  C   UNL     1       0.858   0.198   0.394  0.00  0.00    +0.245 C 
ATOM      6  C   UNL     1      -1.095   1.577   0.242  0.00  0.00    +0.263 C 
ENDROOT
BRANCH   2   7
ATOM      7  O   UNL     1      -2.090  -2.019  -0.281  0.00  0.00    -0.379 OA
ATOM      8  H   UNL     1      -1.726  -2.853   0.055  0.00  0.00    +0.211 HD
ENDBRANCH   2   7
BRANCH   3   9
ATOM      9  O   UNL     1       0.617  -2.189   0.664  0.00  0.00    -0.379 OA
ATOM     10  H   UNL     1       0.138  -2.986   0.388  0.00  0.00    +0.211 HD
ENDBRANCH   3   9
BRANCH   4  11
ATOM     11  O   UNL     1      -1.938   0.399  -1.658  0.00  0.00    -0.378 OA
ATOM     12  H   UNL     1      -2.472  -0.342  -1.985  0.00  0.00    +0.211 HD
ENDBRANCH   4  11
BRANCH   6  13
ATOM     13  O   UNL     1      -1.256   1.756   1.645  0.00  0.00    -0.358 OA
ATOM     14  H   UNL     1      -0.715   2.505   1.940  0.00  0.00    +0.213 HD
ENDBRANCH   6  13
BRANCH   5  16
ATOM     15  O   UNL     1       2.645   1.066  -0.977  0.00  0.00    -0.247 OA
ATOM     16  C   UNL     1       2.233   0.225  -0.191  0.00  0.00    +0.344 C 
BRANCH  16  17
ATOM     17  O   UNL     1       2.969  -0.817   0.266  0.00  0.00    -0.478 OA
ATOM     18  H   UNL     1       2.592  -1.428   0.869  0.00  0.00    +0.295 HD
ENDBRANCH  16  17
ENDBRANCH   5  16
TORSDOF 6
