REMARK  Name = 451668
REMARK  4 active torsions:
REMARK  status: ('A' for Active; 'I' for Inactive)
REMARK    1  A    between atoms: N_2  and  C1*_15
REMARK    2  A    between atoms: C3*_12  and  O3*_16
REMARK    3  A    between atoms: C4*_14  and  C5*_18
REMARK    4  A    between atoms: C5*_18  and  O5*_19
REMARK                            x       y       z     vdW  Elec       q    Type
REMARK                         _______ _______ _______ _____ _____    ______ ____
ROOT
ATOM      1  O   UNL     1      -1.563   2.432  -0.443  0.00  0.00    -0.192 OA
ATOM      2  N   UNL     1      -0.655   0.337  -0.170  0.00  0.00    -0.179 N 
ATOM      3  N   UNL     1      -2.999   0.708  -0.061  0.00  0.00    -0.252 NA
ATOM      4  N   UNL     1      -2.123  -1.461   0.227  0.00  0.00    -0.174 NA
ATOM      5  N   UNL     1      -4.444  -1.065   0.330  0.00  0.00    -0.293 N 
ATOM      6  C   UNL     1      -1.733   1.230  -0.236  0.00  0.00    +0.282 C 
ATOM      7  C   UNL     1      -0.935  -0.990   0.065  0.00  0.00    +0.245 C 
ATOM      8  C   UNL     1      -3.175  -0.569   0.158  0.00  0.00    +0.151 C 
ATOM      9  H   UNL     1      -5.219  -0.460   0.288  0.00  0.00    +0.155 HD
ATOM     10  H   UNL     1      -4.578  -2.027   0.495  0.00  0.00    +0.155 HD
ENDROOT
BRANCH   2  15
ATOM     11  O4* UNL     1       1.467  -0.228  -0.977  0.00  0.00    -0.334 OA
ATOM     12  C3* UNL     1       2.815   0.771   0.698  0.00  0.00    +0.144 C 
ATOM     13  C2* UNL     1       1.373   1.129   0.977  0.00  0.00    +0.083 C 
ATOM     14  C4* UNL     1       2.698  -0.413  -0.252  0.00  0.00    +0.173 C 
ATOM     15  C1* UNL     1       0.692   0.798  -0.341  0.00  0.00    +0.206 C 
BRANCH  12  16
ATOM     16  O3* UNL     1       3.462   1.858   0.042  0.00  0.00    -0.382 OA
ATOM     17  H3* UNL     1       3.533   2.609   0.652  0.00  0.00    +0.210 HD
ENDBRANCH  12  16
BRANCH  14  18
ATOM     18  C5* UNL     1       2.619  -1.750   0.473  0.00  0.00    +0.169 C 
BRANCH  18  19
ATOM     19  O5* UNL     1       2.502  -2.786  -0.488  0.00  0.00    -0.379 OA
ATOM     20  H5* UNL     1       2.450  -3.643  -0.036  0.00  0.00    +0.211 HD
ENDBRANCH  18  19
ENDBRANCH  14  18
ENDBRANCH   2  15
TORSDOF 4
