REMARK  Name = 6047
REMARK  7 active torsions:
REMARK  status: ('A' for Active; 'I' for Inactive)
REMARK    1  A    between atoms: C_1  and  C_2
REMARK    2  A    between atoms: C_1  and  CA_12
REMARK    3  A    between atoms: C_5  and  O_8
REMARK    4  A    between atoms: C_7  and  O_10
REMARK    5  A    between atoms: CA_12  and  N_13
REMARK    6  A    between atoms: CA_12  and  C_18
REMARK    7  A    between atoms: C_18  and  O_19
REMARK                            x       y       z     vdW  Elec       q    Type
REMARK                         _______ _______ _______ _____ _____    ______ ____
ROOT
ATOM      1  C   UNL     1      -1.302   0.973   0.871  0.00  0.00    +0.015 C 
ENDROOT
BRANCH   1   2
ATOM      2  C   UNL     1       0.132   0.699   0.477  0.00  0.00    -0.021 C 
ATOM      3  C   UNL     1       0.666  -0.559   0.699  0.00  0.00    +0.035 C 
ATOM      4  C   UNL     1       0.881   1.711  -0.098  0.00  0.00    -0.001 C 
ATOM      5  C   UNL     1       1.989  -0.812   0.337  0.00  0.00    +0.167 C 
ATOM      6  C   UNL     1       2.204   1.459  -0.460  0.00  0.00    +0.039 C 
ATOM      7  C   UNL     1       2.758   0.197  -0.243  0.00  0.00    +0.167 C 
BRANCH   5   8
ATOM      8  O   UNL     1       2.519  -2.048   0.553  0.00  0.00    -0.503 OA
ATOM      9  H   UNL     1       1.996  -2.720   0.943  0.00  0.00    +0.292 HD
ENDBRANCH   5   8
BRANCH   7  10
ATOM     10  O   UNL     1       4.051  -0.038  -0.603  0.00  0.00    -0.503 OA
ATOM     11  H   UNL     1       4.430  -0.883  -0.460  0.00  0.00    +0.292 HD
ENDBRANCH   7  10
ENDBRANCH   1   2
BRANCH   1  12
ATOM     12  CA  UNL     1      -2.299   0.670  -0.259  0.00  0.00    +0.040 C 
BRANCH  12  13
ATOM     13  N   UNL     1      -3.553   1.381  -0.014  0.00  0.00    +0.389 N 
ATOM     14  H1  UNL     1      -3.370   2.382   0.045  0.00  0.00    -0.088 HD
ATOM     15  H2  UNL     1      -3.962   1.057   0.862  0.00  0.00    -0.088 HD
ATOM     16  H3  UNL     1      -4.201   1.199  -0.780  0.00  0.00    -0.088 HD
ENDBRANCH  12  13
BRANCH  12  18
ATOM     17  OXT UNL     1      -3.550  -1.347   0.288  0.00  0.00    -0.253 OA
ATOM     18  C   UNL     1      -2.645  -0.807  -0.336  0.00  0.00    +0.293 C 
BRANCH  18  19
ATOM     19  O   UNL     1      -1.853  -1.478  -1.211  0.00  0.00    -0.482 OA
ATOM     20  H   UNL     1      -1.171  -1.026  -1.668  0.00  0.00    +0.295 HD
ENDBRANCH  18  19
ENDBRANCH  12  18
ENDBRANCH   1  12
TORSDOF 7
