REMARK  Name = 33746
REMARK  1 active torsions:
REMARK  status: ('A' for Active; 'I' for Inactive)
REMARK    1  A    between atoms: C_7  and  C_21
REMARK                            x       y       z     vdW  Elec       q    Type
REMARK                         _______ _______ _______ _____ _____    ______ ____
ROOT
ATOM      1 CL   UNL     1       4.445   2.794  -0.381  0.00  0.00    -0.082 Cl
ATOM      2  O   UNL     1      -0.584   2.007   0.021  0.00  0.00    -0.463 OA
ATOM      3  O   UNL     1      -2.790   0.146   2.843  0.00  0.00    -0.270 OA
ATOM      4  O   UNL     1      -0.696  -3.080   1.625  0.00  0.00    -0.273 OA
ATOM      5  N   UNL     1      -0.890   0.141   1.477  0.00  0.00    -0.232 N 
ATOM      6  N   UNL     1       1.101  -2.061   0.552  0.00  0.00    -0.256 N 
ATOM      7  C   UNL     1      -0.299   0.592   0.186  0.00  0.00    +0.237 C 
ATOM      8  C   UNL     1       1.246   0.409   0.194  0.00  0.00    +0.051 C 
ATOM      9  C   UNL     1      -0.192  -0.855   2.280  0.00  0.00    +0.183 C 
ATOM     10  C   UNL     1       1.855  -0.872   0.271  0.00  0.00    +0.055 C 
ATOM     11  C   UNL     1      -2.142   0.589   1.897  0.00  0.00    +0.255 C 
ATOM     12  C   UNL     1       0.033  -2.100   1.454  0.00  0.00    +0.250 C 
ATOM     13  C   UNL     1       2.084   1.532   0.009  0.00  0.00    +0.014 C 
ATOM     14  C   UNL     1      -1.875   2.398   0.297  0.00  0.00    +0.123 C 
ATOM     15  C   UNL     1      -2.681   1.732   1.131  0.00  0.00    +0.090 C 
ATOM     16  C   UNL     1       3.246  -0.985   0.073  0.00  0.00    +0.016 C 
ATOM     17  C   UNL     1       1.520  -3.308  -0.085  0.00  0.00    +0.120 C 
ATOM     18  C   UNL     1       3.464   1.399  -0.146  0.00  0.00    +0.058 C 
ATOM     19  C   UNL     1       4.042   0.140  -0.129  0.00  0.00    +0.013 C 
ATOM     20  C   UNL     1      -2.300   3.635  -0.426  0.00  0.00    +0.072 C 
ENDROOT
BRANCH   7  21
ATOM     21  C   UNL     1      -0.898  -0.096  -1.071  0.00  0.00    +0.036 C 
ATOM     22  C   UNL     1      -0.500   0.322  -2.333  0.00  0.00    +0.001 C 
ATOM     23  C   UNL     1      -1.823  -1.119  -0.916  0.00  0.00    +0.001 C 
ATOM     24  C   UNL     1      -1.038  -0.296  -3.463  0.00  0.00    -0.000 C 
ATOM     25  C   UNL     1      -2.361  -1.737  -2.045  0.00  0.00    -0.000 C 
ATOM     26  C   UNL     1      -1.968  -1.325  -3.318  0.00  0.00    -0.000 C 
ENDBRANCH   7  21
TORSDOF 1
