REMARK  Name = 4845
REMARK  8 active torsions:
REMARK  status: ('A' for Active; 'I' for Inactive)
REMARK    1  A    between atoms: C_1  and  C_3
REMARK    2  A    between atoms: C_1  and  O_13
REMARK    3  A    between atoms: C_1  and  C_15
REMARK    4  A    between atoms: CA_5  and  C_10
REMARK    5  A    between atoms: C_7  and  O_8
REMARK    6  A    between atoms: C_10  and  O_11
REMARK    7  A    between atoms: C_15  and  N_16
REMARK    8  A    between atoms: N_16  and  C_19
REMARK                            x       y       z     vdW  Elec       q    Type
REMARK                         _______ _______ _______ _____ _____    ______ ____
ROOT
ATOM      1  C   UNL     1      -0.654   1.311  -0.443  0.00  0.00    +0.137 C 
ENDROOT
BRANCH   1   3
ATOM      2  N   UNL     1       1.219  -0.215  -0.607  0.00  0.00    -0.407 NA
ATOM      3  C   UNL     1       0.785   0.964  -0.131  0.00  0.00    +0.115 C 
ATOM      4  C   UNL     1       1.534   1.856   0.600  0.00  0.00    +0.086 C 
ATOM      5  CA  UNL     1       2.505  -0.520  -0.325  0.00  0.00    +0.171 C 
ATOM      6  C   UNL     1       2.853   1.507   0.869  0.00  0.00    +0.020 C 
ATOM      7  C   UNL     1       3.356   0.298   0.401  0.00  0.00    +0.158 C 
BRANCH   7   8
ATOM      8  O   UNL     1       4.642  -0.053   0.659  0.00  0.00    -0.504 OA
ATOM      9  H   UNL     1       4.977  -0.868   0.342  0.00  0.00    +0.292 HD
ENDBRANCH   7   8
BRANCH   5  10
ATOM     10  C   UNL     1       2.996  -1.830  -0.850  0.00  0.00    +0.199 C 
BRANCH  10  11
ATOM     11  O   UNL     1       2.738  -2.806   0.150  0.00  0.00    -0.375 OA
ATOM     12  H   UNL     1       3.045  -3.673  -0.157  0.00  0.00    +0.211 HD
ENDBRANCH  10  11
ENDBRANCH   5  10
ENDBRANCH   1   3
BRANCH   1  13
ATOM     13  O   UNL     1      -0.785   1.438  -1.859  0.00  0.00    -0.380 OA
ATOM     14  H   UNL     1      -1.703   1.661  -2.080  0.00  0.00    +0.211 HD
ENDBRANCH   1  13
BRANCH   1  15
ATOM     15  C   UNL     1      -1.617   0.242   0.086  0.00  0.00    -0.045 C 
BRANCH  15  16
ATOM     16  N   UNL     1      -2.994   0.589  -0.221  0.00  0.00    +0.388 N 
ATOM     17  H   UNL     1      -3.218   1.486   0.211  0.00  0.00    -0.084 HD
ATOM     18  H   UNL     1      -3.101   0.649  -1.234  0.00  0.00    -0.084 HD
BRANCH  16  19
ATOM     19  C   UNL     1      -3.911  -0.435   0.291  0.00  0.00    -0.046 C 
ATOM     20  C   UNL     1      -5.345  -0.030  -0.066  0.00  0.00    -0.022 C 
ATOM     21  C   UNL     1      -3.564  -1.774  -0.368  0.00  0.00    -0.022 C 
ATOM     22  C   UNL     1      -3.757  -0.541   1.813  0.00  0.00    -0.022 C 
ENDBRANCH  16  19
ENDBRANCH  15  16
ENDBRANCH   1  15
TORSDOF 8
