REMARK  Name = 3775
REMARK  8 active torsions:
REMARK  status: ('A' for Active; 'I' for Inactive)
REMARK    1  A    between atoms: C_1  and  C_2
REMARK    2  A    between atoms: C_1  and  C_8
REMARK    3  A    between atoms: C_1  and  C_16
REMARK    4  A    between atoms: C_1  and  C_19
REMARK    5  A    between atoms: C_19  and  C_20
REMARK    6  A    between atoms: C_20  and  N_21
REMARK    7  A    between atoms: N_21  and  C_23
REMARK    8  A    between atoms: N_21  and  C_26
REMARK                            x       y       z     vdW  Elec       q    Type
REMARK                         _______ _______ _______ _____ _____    ______ ____
ROOT
ATOM      1  C   UNL     1      -0.858  -0.066  -0.367  0.00  0.00    +0.104 C 
ENDROOT
BRANCH   1   2
ATOM      2  C   UNL     1      -1.992  -1.000   0.150  0.00  0.00    -0.011 C 
ATOM      3  C   UNL     1      -3.243  -0.817  -0.360  0.00  0.00    -0.004 C 
ATOM      4  C   UNL     1      -1.661  -1.940   1.079  0.00  0.00    -0.004 C 
ATOM      5  C   UNL     1      -4.259  -1.653   0.103  0.00  0.00    -0.000 C 
ATOM      6  C   UNL     1      -2.677  -2.776   1.543  0.00  0.00    -0.000 C 
ATOM      7  C   UNL     1      -3.976  -2.632   1.055  0.00  0.00    -0.000 C 
ENDBRANCH   1   2
BRANCH   1   8
ATOM      8  C   UNL     1      -1.279   1.390  -0.018  0.00  0.00    -0.011 C 
ATOM      9  C   UNL     1      -0.888   1.890   1.190  0.00  0.00    -0.004 C 
ATOM     10  C   UNL     1      -2.013   2.076  -0.940  0.00  0.00    -0.004 C 
ATOM     11  C   UNL     1      -1.266   3.196   1.503  0.00  0.00    -0.000 C 
ATOM     12  C   UNL     1      -2.390   3.382  -0.627  0.00  0.00    -0.000 C 
ATOM     13  C   UNL     1      -2.017   3.941   0.595  0.00  0.00    -0.000 C 
ENDBRANCH   1   8
BRANCH   1  16
ATOM     14  O   UNL     1      -0.197   0.645  -2.637  0.00  0.00    -0.275 OA
ATOM     15  N   UNL     1      -0.906  -1.508  -2.391  0.00  0.00    -0.328 N 
ATOM     16  C   UNL     1      -0.640  -0.241  -1.907  0.00  0.00    +0.226 C 
ATOM     17  H   UNL     1      -0.794  -1.703  -3.349  0.00  0.00    +0.145 HD
ATOM     18  H   UNL     1      -1.207  -2.216  -1.777  0.00  0.00    +0.145 HD
ENDBRANCH   1  16
BRANCH   1  19
ATOM     19  C   UNL     1       0.535  -0.479   0.256  0.00  0.00    -0.005 C 
BRANCH  19  20
ATOM     20  C   UNL     1       1.737   0.328  -0.250  0.00  0.00    -0.072 C 
BRANCH  20  21
ATOM     21  N   UNL     1       2.973  -0.216   0.370  0.00  0.00    +0.391 N 
ATOM     22  C   UNL     1       2.891  -0.144   1.900  0.00  0.00    -0.096 C 
BRANCH  21  23
ATOM     23  C   UNL     1       4.203   0.581  -0.082  0.00  0.00    -0.054 C 
ATOM     24  C   UNL     1       4.014   2.033   0.329  0.00  0.00    -0.022 C 
ATOM     25  C   UNL     1       5.439  -0.039   0.550  0.00  0.00    -0.022 C 
ENDBRANCH  21  23
BRANCH  21  26
ATOM     26  C   UNL     1       3.180  -1.683  -0.029  0.00  0.00    -0.054 C 
ATOM     27  C   UNL     1       2.028  -2.502   0.529  0.00  0.00    -0.022 C 
ATOM     28  C   UNL     1       3.263  -1.763  -1.545  0.00  0.00    -0.022 C 
ENDBRANCH  21  26
ENDBRANCH  20  21
ENDBRANCH  19  20
ENDBRANCH   1  19
TORSDOF 8
