REMARK  Name = 5735
REMARK  2 active torsions:
REMARK  status: ('A' for Active; 'I' for Inactive)
REMARK    1  A    between atoms: C_7  and  O_18
REMARK    2  A    between atoms: O_18  and  C_26
REMARK                            x       y       z     vdW  Elec       q    Type
REMARK                         _______ _______ _______ _____ _____    ______ ____
ROOT
ATOM      1 CL   UNL     1      -6.190  -2.978  -0.166  0.00  0.00    -0.081 Cl
ATOM      2  O   UNL     1      -2.251   2.260  -1.682  0.00  0.00    -0.268 OA
ATOM      3  N   UNL     1      -1.667   0.716   0.032  0.00  0.00    -0.200 N 
ATOM      4  N   UNL     1       1.400   2.206   1.253  0.00  0.00    -0.239 NA
ATOM      5  N   UNL     1       0.170   3.654  -0.878  0.00  0.00    -0.236 NA
ATOM      6  N   UNL     1      -3.738   0.072  -0.911  0.00  0.00    -0.228 NA
ATOM      7  C   UNL     1      -0.527   0.579   0.951  0.00  0.00    +0.299 C 
ATOM      8  C   UNL     1       0.272   1.807   0.656  0.00  0.00    +0.141 C 
ATOM      9  C   UNL     1      -0.303   2.515  -0.368  0.00  0.00    +0.154 C 
ATOM     10  C   UNL     1      -1.527   1.849  -0.793  0.00  0.00    +0.276 C 
ATOM     11  C   UNL     1      -2.745  -0.161  -0.017  0.00  0.00    +0.141 C 
ATOM     12  C   UNL     1      -2.745  -1.238   0.862  0.00  0.00    +0.036 C 
ATOM     13  C   UNL     1       1.910   3.359   0.758  0.00  0.00    +0.119 C 
ATOM     14  C   UNL     1       1.311   4.065  -0.281  0.00  0.00    +0.120 C 
ATOM     15  C   UNL     1      -3.818  -2.122   0.820  0.00  0.00    +0.016 C 
ATOM     16  C   UNL     1      -4.764  -0.808  -0.922  0.00  0.00    +0.112 C 
ATOM     17  C   UNL     1      -4.851  -1.909  -0.086  0.00  0.00    +0.077 C 
ENDROOT
BRANCH   7  18
ATOM     18  O   UNL     1       0.242  -0.586   0.629  0.00  0.00    -0.412 OA
BRANCH  18  26
ATOM     19  O   UNL     1       1.603  -0.311   2.445  0.00  0.00    -0.226 OA
ATOM     20  N   UNL     1       2.388  -1.419   0.559  0.00  0.00    -0.250 N 
ATOM     21  N   UNL     1       4.617  -2.117  -1.091  0.00  0.00    +0.388 N 
ATOM     22  C   UNL     1       2.170  -1.922  -0.799  0.00  0.00    +0.074 C 
ATOM     23  C   UNL     1       3.662  -1.799   1.163  0.00  0.00    +0.074 C 
ATOM     24  C   UNL     1       3.371  -1.622  -1.696  0.00  0.00    -0.055 C 
ATOM     25  C   UNL     1       4.830  -1.498   0.226  0.00  0.00    -0.055 C 
ATOM     26  C   UNL     1       1.424  -0.736   1.305  0.00  0.00    +0.406 C 
ATOM     27  C   UNL     1       5.755  -1.857  -1.971  0.00  0.00    -0.101 C 
ATOM     28  H   UNL     1       4.534  -3.126  -0.962  0.00  0.00    -0.080 HD
ENDBRANCH  18  26
ENDBRANCH   7  18
TORSDOF 2
