REMARK  Name = 3033621
REMARK  5 active torsions:
REMARK  status: ('A' for Active; 'I' for Inactive)
REMARK    1  A    between atoms: N_3  and  C_23
REMARK    2  A    between atoms: C_7  and  C_15
REMARK    3  A    between atoms: C_9  and  O_21
REMARK    4  A    between atoms: C_23  and  C_24
REMARK    5  A    between atoms: C_24  and  C_26
REMARK                            x       y       z     vdW  Elec       q    Type
REMARK                         _______ _______ _______ _____ _____    ______ ____
ROOT
ATOM      1 CL   UNL     1      -0.496  -4.856   0.818  0.00  0.00    -0.082 Cl
ATOM      2  O   UNL     1       2.482   2.674   0.661  0.00  0.00    -0.270 OA
ATOM      3  N   UNL     1       2.252   0.419   0.141  0.00  0.00    -0.254 N 
ATOM      4  N   UNL     1      -0.388   1.381   1.274  0.00  0.00    -0.235 NA
ATOM      5  C   UNL     1       1.550  -0.827   0.279  0.00  0.00    +0.055 C 
ATOM      6  C   UNL     1       0.174  -0.906   0.574  0.00  0.00    +0.032 C 
ATOM      7  C   UNL     1      -0.698   0.302   0.639  0.00  0.00    +0.082 C 
ATOM      8  C   UNL     1       1.932   1.585   0.852  0.00  0.00    +0.281 C 
ATOM      9  C   UNL     1       0.895   1.435   1.955  0.00  0.00    +0.296 C 
ATOM     10  C   UNL     1       2.248  -2.038   0.100  0.00  0.00    +0.016 C 
ATOM     11  C   UNL     1      -0.448  -2.155   0.756  0.00  0.00    +0.014 C 
ATOM     12  C   UNL     1       1.620  -3.275   0.264  0.00  0.00    +0.013 C 
ATOM     13  C   UNL     1       0.276  -3.333   0.603  0.00  0.00    +0.058 C 
ENDROOT
BRANCH   7  15
ATOM     14  F   UNL     1      -2.942   1.769   1.527  0.00  0.00    -0.204 F 
ATOM     15  C   UNL     1      -2.006   0.288  -0.078  0.00  0.00    +0.045 C 
ATOM     16  C   UNL     1      -3.071   1.034   0.413  0.00  0.00    +0.142 C 
ATOM     17  C   UNL     1      -2.145  -0.472  -1.233  0.00  0.00    +0.004 C 
ATOM     18  C   UNL     1      -4.292   1.019  -0.261  0.00  0.00    +0.030 C 
ATOM     19  C   UNL     1      -3.366  -0.487  -1.907  0.00  0.00    +0.000 C 
ATOM     20  C   UNL     1      -4.440   0.258  -1.421  0.00  0.00    +0.002 C 
ENDBRANCH   7  15
BRANCH   9  21
ATOM     21  O   UNL     1       1.053   2.540   2.842  0.00  0.00    -0.357 OA
ATOM     22  H   UNL     1       0.404   2.475   3.560  0.00  0.00    +0.213 HD
ENDBRANCH   9  21
BRANCH   3  23
ATOM     23  C   UNL     1       3.412   0.456  -0.750  0.00  0.00    +0.114 C 
BRANCH  23  24
ATOM     24  C   UNL     1       3.043   0.166  -2.200  0.00  0.00    +0.127 C 
BRANCH  24  26
ATOM     25  N   UNL     1       1.290   1.893  -3.130  0.00  0.00    -0.196 NA
ATOM     26  C   UNL     1       2.063   1.132  -2.719  0.00  0.00    +0.075 C 
ENDBRANCH  24  26
ENDBRANCH  23  24
ENDBRANCH   3  23
TORSDOF 5
