REMARK  Name = 1614
REMARK  3 active torsions:
REMARK  status: ('A' for Active; 'I' for Inactive)
REMARK    1  A    between atoms: C_3  and  C_10
REMARK    2  A    between atoms: C_10  and  C_11
REMARK    3  A    between atoms: C_11  and  N_13
REMARK                            x       y       z     vdW  Elec       q    Type
REMARK                         _______ _______ _______ _____ _____    ______ ____
ROOT
ATOM      1  O   UNL     1       2.315  -1.581   0.316  0.00  0.00    -0.435 OA
ATOM      2  O   UNL     1       3.251   0.501  -0.456  0.00  0.00    -0.435 OA
ATOM      3  C   UNL     1      -0.752   0.429   0.454  0.00  0.00    -0.021 C 
ATOM      4  C   UNL     1       0.051  -0.707   0.582  0.00  0.00    +0.036 C 
ATOM      5  C   UNL     1       1.386  -0.589   0.253  0.00  0.00    +0.176 C 
ATOM      6  C   UNL     1      -0.205   1.644   0.003  0.00  0.00    -0.001 C 
ATOM      7  C   UNL     1       1.920   0.600  -0.188  0.00  0.00    +0.176 C 
ATOM      8  C   UNL     1       1.149   1.736  -0.324  0.00  0.00    +0.040 C 
ATOM      9  C   UNL     1       3.494  -0.884  -0.135  0.00  0.00    +0.429 C 
ENDROOT
BRANCH   3  10
ATOM     10  C   UNL     1      -2.202   0.354   0.797  0.00  0.00    +0.005 C 
BRANCH  10  11
ATOM     11  C   UNL     1      -3.115  -0.038  -0.388  0.00  0.00    -0.061 C 
ATOM     12  C   UNL     1      -2.773  -1.417  -0.952  0.00  0.00    -0.024 C 
BRANCH  11  13
ATOM     13  N   UNL     1      -4.518  -0.049   0.038  0.00  0.00    +0.382 N 
ATOM     14  H   UNL     1      -4.765   0.865   0.418  0.00  0.00    -0.089 HD
ATOM     15  H   UNL     1      -4.649  -0.762   0.755  0.00  0.00    -0.089 HD
ATOM     16  H   UNL     1      -5.115  -0.257  -0.762  0.00  0.00    -0.089 HD
ENDBRANCH  11  13
ENDBRANCH  10  11
ENDBRANCH   3  10
TORSDOF 3
