REMARK  Name = 5850
REMARK  6 active torsions:
REMARK  status: ('A' for Active; 'I' for Inactive)
REMARK    1  A    between atoms: C_1  and  C_2
REMARK    2  A    between atoms: C_1  and  C_10
REMARK    3  A    between atoms: C_2  and  C_3
REMARK    4  A    between atoms: C_3  and  N_4
REMARK    5  A    between atoms: C_10  and  C_11
REMARK    6  A    between atoms: C_11  and  N_12
REMARK                            x       y       z     vdW  Elec       q    Type
REMARK                         _______ _______ _______ _____ _____    ______ ____
ROOT
ATOM      1  C   UNL     1      -0.019  -0.046   0.878  0.00  0.00    -0.004 C 
ENDROOT
BRANCH   1   2
ATOM      2  C   UNL     1      -1.268  -0.162   0.002  0.00  0.00    -0.022 C 
BRANCH   2   3
ATOM      3  C   UNL     1      -2.517  -0.342   0.853  0.00  0.00    -0.073 C 
BRANCH   3   4
ATOM      4  N   UNL     1      -3.723  -0.499  -0.059  0.00  0.00    +0.388 N 
ATOM      5  C   UNL     1      -5.011  -0.651   0.776  0.00  0.00    -0.073 C 
ATOM      6  C   UNL     1      -3.925   0.769  -0.913  0.00  0.00    -0.073 C 
ATOM      7  C   UNL     1      -5.999   0.304   0.137  0.00  0.00    -0.024 C 
ATOM      8  C   UNL     1      -5.125   1.460  -0.296  0.00  0.00    -0.024 C 
ATOM      9  C   UNL     1      -3.520  -1.712  -0.954  0.00  0.00    -0.096 C 
ENDBRANCH   3   4
ENDBRANCH   2   3
ENDBRANCH   1   2
BRANCH   1  10
ATOM     10  C   UNL     1       1.236   0.172   0.028  0.00  0.00    -0.022 C 
BRANCH  10  11
ATOM     11  C   UNL     1       2.514   0.284   0.850  0.00  0.00    -0.073 C 
BRANCH  11  12
ATOM     12  N   UNL     1       3.719   0.489  -0.055  0.00  0.00    +0.388 N 
ATOM     13  C   UNL     1       3.961  -0.761  -0.927  0.00  0.00    -0.073 C 
ATOM     14  C   UNL     1       4.999   0.665   0.788  0.00  0.00    -0.073 C 
ATOM     15  C   UNL     1       5.178  -1.426  -0.315  0.00  0.00    -0.024 C 
ATOM     16  C   UNL     1       6.016  -0.252   0.139  0.00  0.00    -0.024 C 
ATOM     17  C   UNL     1       3.485   1.708  -0.933  0.00  0.00    -0.096 C 
ENDBRANCH  11  12
ENDBRANCH  10  11
ENDBRANCH   1  10
TORSDOF 6
