REMARK  Name = 3011155
REMARK  6 active torsions:
REMARK  status: ('A' for Active; 'I' for Inactive)
REMARK    1  A    between atoms: N_1  and  C1*_15
REMARK    2  A    between atoms: C_9  and  O_25
REMARK    3  A    between atoms: C2*_14  and  O2*_18
REMARK    4  A    between atoms: C3*_16  and  O3*_20
REMARK    5  A    between atoms: C4*_17  and  C5*_22
REMARK    6  A    between atoms: C5*_22  and  O5*_23
REMARK                            x       y       z     vdW  Elec       q    Type
REMARK                         _______ _______ _______ _____ _____    ______ ____
ROOT
ATOM      1  N   UNL     1       0.192  -1.293   0.362  0.00  0.00    -0.236 N 
ATOM      2  N   UNL     1      -1.801  -2.305   0.373  0.00  0.00    -0.239 NA
ATOM      3  N   UNL     1      -0.518   1.003   0.002  0.00  0.00    -0.311 NA
ATOM      4  N   UNL     1      -2.946   1.169  -0.175  0.00  0.00    -0.289 NA
ATOM      5  N   UNL     1      -1.575   3.061  -0.347  0.00  0.00    -0.283 N 
ATOM      6  C   UNL     1      -0.741  -0.309   0.168  0.00  0.00    +0.223 C 
ATOM      7  C   UNL     1      -0.500  -2.474   0.478  0.00  0.00    +0.224 C 
ATOM      8  C   UNL     1      -1.966  -0.957   0.179  0.00  0.00    +0.190 C 
ATOM      9  C   UNL     1      -3.097  -0.166  -0.001  0.00  0.00    +0.311 C 
ATOM     10  C   UNL     1      -1.685   1.663  -0.163  0.00  0.00    +0.200 C 
ATOM     11  H   UNL     1      -0.689   3.489  -0.350  0.00  0.00    +0.156 HD
ATOM     12  H   UNL     1      -2.386   3.606  -0.473  0.00  0.00    +0.156 HD
ENDROOT
BRANCH   1  15
ATOM     13  O4* UNL     1       1.978   0.122   1.051  0.00  0.00    -0.333 OA
ATOM     14  C2* UNL     1       2.372  -1.169  -0.907  0.00  0.00    +0.187 C 
ATOM     15  C1* UNL     1       1.639  -1.131   0.430  0.00  0.00    +0.226 C 
ATOM     16  C3* UNL     1       3.647  -0.420  -0.574  0.00  0.00    +0.171 C 
ATOM     17  C4* UNL     1       3.197   0.615   0.460  0.00  0.00    +0.175 C 
BRANCH  14  18
ATOM     18  O2* UNL     1       1.654  -0.458  -1.907  0.00  0.00    -0.378 OA
ATOM     19  H2* UNL     1       0.838  -0.937  -2.122  0.00  0.00    +0.211 HD
ENDBRANCH  14  18
BRANCH  16  20
ATOM     20  O3* UNL     1       4.555  -1.333   0.038  0.00  0.00    -0.379 OA
ATOM     21  H3* UNL     1       4.842  -1.990  -0.615  0.00  0.00    +0.211 HD
ENDBRANCH  16  20
BRANCH  17  22
ATOM     22  C5* UNL     1       2.905   1.981  -0.144  0.00  0.00    +0.169 C 
BRANCH  22  23
ATOM     23  O5* UNL     1       2.489   2.855   0.891  0.00  0.00    -0.379 OA
ATOM     24  H5* UNL     1       2.299   3.730   0.519  0.00  0.00    +0.211 HD
ENDBRANCH  22  23
ENDBRANCH  17  22
ENDBRANCH   1  15
BRANCH   9  25
ATOM     25  O   UNL     1      -4.365  -0.688  -0.011  0.00  0.00    -0.446 OA
ATOM     26  C   UNL     1      -5.433   0.232  -0.204  0.00  0.00    +0.255 C 
ENDBRANCH   9  25
TORSDOF 6
