REMARK  Name = 18104
REMARK  9 active torsions:
REMARK  status: ('A' for Active; 'I' for Inactive)
REMARK    1  A    between atoms: N_2  and  C_19
REMARK    2  A    between atoms: C_9  and  C_16
REMARK    3  A    between atoms: C_16  and  C_17
REMARK    4  A    between atoms: C_19  and  C_20
REMARK    5  A    between atoms: C_20  and  C_21
REMARK    6  A    between atoms: C_21  and  N_22
REMARK    7  A    between atoms: N_23  and  C_30
REMARK    8  A    between atoms: C_30  and  C_31
REMARK    9  A    between atoms: C_31  and  O_32
REMARK                            x       y       z     vdW  Elec       q    Type
REMARK                         _______ _______ _______ _____ _____    ______ ____
ROOT
ATOM      1  S   UNL     1      -4.634   1.228   0.983  0.00  0.00    -0.084 S 
ATOM      2  N   UNL     1      -2.179  -0.541   0.268  0.00  0.00    -0.286 N 
ATOM      3  C   UNL     1      -1.950   0.858   0.268  0.00  0.00    +0.058 C 
ATOM      4  C   UNL     1      -3.446  -1.159   0.121  0.00  0.00    +0.058 C 
ATOM      5  C   UNL     1      -2.990   1.764   0.554  0.00  0.00    +0.043 C 
ATOM      6  C   UNL     1      -4.635  -0.453   0.392  0.00  0.00    +0.043 C 
ATOM      7  C   UNL     1      -0.689   1.410  -0.050  0.00  0.00    +0.018 C 
ATOM      8  C   UNL     1      -3.581  -2.489  -0.335  0.00  0.00    +0.015 C 
ATOM      9  C   UNL     1      -0.466   2.789  -0.062  0.00  0.00    +0.036 C 
ATOM     10  C   UNL     1      -2.759   3.152   0.545  0.00  0.00    +0.008 C 
ATOM     11  C   UNL     1      -5.890  -1.069   0.237  0.00  0.00    +0.008 C 
ATOM     12  C   UNL     1      -1.501   3.661   0.240  0.00  0.00    +0.003 C 
ATOM     13  C   UNL     1      -4.831  -3.095  -0.492  0.00  0.00    +0.001 C 
ATOM     14  C   UNL     1      -5.986  -2.385  -0.202  0.00  0.00    +0.001 C 
ENDROOT
BRANCH   9  16
ATOM     15  O   UNL     1       1.796   2.540  -0.655  0.00  0.00    -0.291 OA
ATOM     16  C   UNL     1       0.853   3.311  -0.381  0.00  0.00    +0.173 C 
BRANCH  16  17
ATOM     17  C   UNL     1       1.099   4.830  -0.384  0.00  0.00    +0.069 C 
ATOM     18  C   UNL     1       2.531   5.214  -0.720  0.00  0.00    +0.009 C 
ENDBRANCH  16  17
ENDBRANCH   9  16
BRANCH   2  19
ATOM     19  C   UNL     1      -1.005  -1.419   0.359  0.00  0.00    +0.093 C 
BRANCH  19  20
ATOM     20  C   UNL     1      -0.478  -1.763  -1.034  0.00  0.00    -0.001 C 
BRANCH  20  21
ATOM     21  C   UNL     1       0.717  -2.722  -1.044  0.00  0.00    -0.076 C 
BRANCH  21  22
ATOM     22  N   UNL     1       1.846  -2.197  -0.279  0.00  0.00    +0.384 N 
ATOM     23  N   UNL     1       4.666  -1.745   0.166  0.00  0.00    +0.386 N 
ATOM     24  C   UNL     1       2.733  -3.284   0.153  0.00  0.00    -0.101 C 
ATOM     25  C   UNL     1       2.593  -1.207  -1.065  0.00  0.00    -0.101 C 
ATOM     26  C   UNL     1       3.920  -2.735   0.953  0.00  0.00    -0.101 C 
ATOM     27  C   UNL     1       3.779  -0.658  -0.264  0.00  0.00    -0.101 C 
ATOM     28  H   UNL     1       1.476  -1.735   0.552  0.00  0.00    -0.080 HD
ATOM     29  H   UNL     1       5.035  -2.207  -0.665  0.00  0.00    -0.080 HD
BRANCH  23  30
ATOM     30  C   UNL     1       5.797  -1.221   0.930  0.00  0.00    -0.045 C 
BRANCH  30  31
ATOM     31  C   UNL     1       6.809  -0.562   0.006  0.00  0.00    +0.115 C 
BRANCH  31  32
ATOM     32  O   UNL     1       7.880  -0.053   0.791  0.00  0.00    -0.384 OA
ATOM     33  H   UNL     1       8.533   0.370   0.212  0.00  0.00    +0.210 HD
ENDBRANCH  31  32
ENDBRANCH  30  31
ENDBRANCH  23  30
ENDBRANCH  21  22
ENDBRANCH  20  21
ENDBRANCH  19  20
ENDBRANCH   2  19
TORSDOF 9
