REMARK  Name = 185915
REMARK  5 active torsions:
REMARK  status: ('A' for Active; 'I' for Inactive)
REMARK    1  A    between atoms: C_1  and  C_2
REMARK    2  A    between atoms: C_1  and  CA_12
REMARK    3  A    between atoms: CA_12  and  N_13
REMARK    4  A    between atoms: CA_12  and  C_18
REMARK    5  A    between atoms: C_18  and  O_19
REMARK                            x       y       z     vdW  Elec       q    Type
REMARK                         _______ _______ _______ _____ _____    ______ ____
ROOT
ATOM      1  C   UNL     1      -2.004   0.920   0.869  0.00  0.00    +0.015 C 
ENDROOT
BRANCH   1   2
ATOM      2  C   UNL     1      -0.562   0.863   0.494  0.00  0.00    -0.024 C 
ATOM      3  C   UNL     1       1.528  -0.376   0.363  0.00  0.00    -0.000 C 
ATOM      4  C   UNL     1       0.169  -0.306   0.711  0.00  0.00    -0.004 C 
ATOM      5  C   UNL     1       2.155   0.755  -0.211  0.00  0.00    -0.000 C 
ATOM      6  C   UNL     1       0.055   1.975  -0.071  0.00  0.00    -0.004 C 
ATOM      7  C   UNL     1       1.404   1.923  -0.422  0.00  0.00    -0.000 C 
ATOM      8  C   UNL     1       2.279  -1.544   0.573  0.00  0.00    -0.000 C 
ATOM      9  C   UNL     1       3.514   0.685  -0.559  0.00  0.00    -0.000 C 
ATOM     10  C   UNL     1       3.627  -1.597   0.222  0.00  0.00    -0.000 C 
ATOM     11  C   UNL     1       4.244  -0.484  -0.343  0.00  0.00    -0.000 C 
ENDBRANCH   1   2
BRANCH   1  12
ATOM     12  CA  UNL     1      -2.955   0.484  -0.268  0.00  0.00    +0.040 C 
BRANCH  12  13
ATOM     13  N   UNL     1      -4.302   0.997  -0.030  0.00  0.00    +0.389 N 
ATOM     14  H1  UNL     1      -4.272   2.014   0.037  0.00  0.00    -0.088 HD
ATOM     15  H2  UNL     1      -4.665   0.609   0.840  0.00  0.00    -0.088 HD
ATOM     16  H3  UNL     1      -4.910   0.725  -0.803  0.00  0.00    -0.088 HD
ENDBRANCH  12  13
BRANCH  12  18
ATOM     17  OXT UNL     1      -3.893  -1.702   0.256  0.00  0.00    -0.253 OA
ATOM     18  C   UNL     1      -3.074  -1.027  -0.356  0.00  0.00    +0.293 C 
BRANCH  18  19
ATOM     19  O   UNL     1      -2.183  -1.566  -1.228  0.00  0.00    -0.482 OA
ATOM     20  H   UNL     1      -1.573  -1.013  -1.676  0.00  0.00    +0.295 HD
ENDBRANCH  18  19
ENDBRANCH  12  18
ENDBRANCH   1  12
TORSDOF 5
