REMARK  Name = 2033049
REMARK  5 active torsions:
REMARK  status: ('A' for Active; 'I' for Inactive)
REMARK    1  A    between atoms: CA_1  and  N_2
REMARK    2  A    between atoms: CA_1  and  CB_6
REMARK    3  A    between atoms: CA_1  and  C_10
REMARK    4  A    between atoms: CB_6  and  OG1_8
REMARK    5  A    between atoms: C_10  and  O_11
REMARK                            x       y       z     vdW  Elec       q    Type
REMARK                         _______ _______ _______ _____ _____    ______ ____
ROOT
ATOM      1  CA  THR A   1      -0.250   0.581  -0.338  0.00  0.00    -0.008 C 
ENDROOT
BRANCH   1   2
ATOM      2  N   THR A   1       0.247   1.807   0.293  0.00  0.00    +0.385 N 
ATOM      3  H1  THR A   1       1.162   2.040  -0.093  0.00  0.00    -0.089 HD
ATOM      4  H2  THR A   1       0.329   1.663   1.299  0.00  0.00    -0.089 HD
ATOM      5  H3  THR A   1      -0.403   2.571   0.110  0.00  0.00    -0.089 HD
ENDBRANCH   1   2
BRANCH   1   6
ATOM      6  CB  THR A   1       0.761  -0.577  -0.183  0.00  0.00    +0.093 C 
ATOM      7  CG2 THR A   1       2.130  -0.262  -0.778  0.00  0.00    +0.030 C 
BRANCH   6   8
ATOM      8  OG1 THR A   1       0.915  -0.908   1.195  0.00  0.00    -0.386 OA
ATOM      9  HG1 THR A   1       0.047  -1.109   1.578  0.00  0.00    +0.210 HD
ENDBRANCH   6   8
ENDBRANCH   1   6
BRANCH   1  10
ATOM     10  C   THR A   1      -1.627   0.239   0.248  0.00  0.00    +0.118 C 
BRANCH  10  11
ATOM     11  O   THR A   1      -2.176  -0.880  -0.437  0.00  0.00    -0.384 OA
ATOM     12  H   THR A   1      -3.045  -1.093  -0.063  0.00  0.00    +0.210 HD
ENDBRANCH  10  11
ENDBRANCH   1  10
TORSDOF 5
