REMARK  Name = 6307
REMARK  3 active torsions:
REMARK  status: ('A' for Active; 'I' for Inactive)
REMARK    1  A    between atoms: C_5  and  C_21
REMARK    2  A    between atoms: C_10  and  S_15
REMARK    3  A    between atoms: S_15  and  N_18
REMARK                            x       y       z     vdW  Elec       q    Type
REMARK                         _______ _______ _______ _____ _____    ______ ____
ROOT
ATOM      1 CL   UNL     1       2.784  -2.534   0.022  0.00  0.00    -0.081 Cl
ATOM      2  O   UNL     1      -1.482   2.623   0.457  0.00  0.00    -0.270 OA
ATOM      3  N   UNL     1      -2.140  -1.390   0.689  0.00  0.00    -0.319 N 
ATOM      4  N   UNL     1      -2.957   0.867   0.617  0.00  0.00    -0.287 N 
ATOM      5  C   UNL     1      -3.274  -0.536   0.398  0.00  0.00    +0.146 C 
ATOM      6  C   UNL     1      -0.857  -0.926   0.436  0.00  0.00    +0.051 C 
ATOM      7  C   UNL     1      -0.595   0.444   0.277  0.00  0.00    +0.068 C 
ATOM      8  C   UNL     1      -1.701   1.416   0.442  0.00  0.00    +0.248 C 
ATOM      9  C   UNL     1       0.702   0.904   0.024  0.00  0.00    +0.027 C 
ATOM     10  C   UNL     1       1.754  -0.006  -0.065  0.00  0.00    +0.132 C 
ATOM     11  C   UNL     1       0.218  -1.822   0.363  0.00  0.00    +0.027 C 
ATOM     12  C   UNL     1       1.514  -1.367   0.109  0.00  0.00    +0.077 C 
ATOM     13  H   UNL     1      -2.278  -2.290   1.062  0.00  0.00    +0.148 HD
ATOM     14  H   UNL     1      -3.683   1.463   0.910  0.00  0.00    +0.151 HD
ENDROOT
BRANCH  10  15
ATOM     15  S   UNL     1       3.360   0.621  -0.383  0.00  0.00    +0.058 S 
ATOM     16  O   UNL     1       4.099  -0.465  -1.019  0.00  0.00    -0.153 OA
ATOM     17  O   UNL     1       3.147   1.881  -1.086  0.00  0.00    -0.153 OA
BRANCH  15  18
ATOM     18  N   UNL     1       4.128   0.964   1.117  0.00  0.00    -0.203 NA
ATOM     19  H   UNL     1       5.064   1.330   0.943  0.00  0.00    +0.144 HD
ATOM     20  H   UNL     1       4.194   0.109   1.669  0.00  0.00    +0.144 HD
ENDBRANCH  15  18
ENDBRANCH  10  15
BRANCH   5  21
ATOM     21  C   UNL     1      -3.749  -0.770  -1.032  0.00  0.00    +0.040 C 
ATOM     22  C   UNL     1      -4.950   0.095  -1.366  0.00  0.00    +0.004 C 
ENDBRANCH   5  21
TORSDOF 3
