REMARK  Name = 9898908
REMARK  7 active torsions:
REMARK  status: ('A' for Active; 'I' for Inactive)
REMARK    1  A    between atoms: C_1  and  N_2
REMARK    2  A    between atoms: C_1  and  C_7
REMARK    3  A    between atoms: C_1  and  C_10
REMARK    4  A    between atoms: C_7  and  O_8
REMARK    5  A    between atoms: C_10  and  C_12
REMARK    6  A    between atoms: C_12  and  C_14
REMARK    7  A    between atoms: C_14  and  O_15
REMARK                            x       y       z     vdW  Elec       q    Type
REMARK                         _______ _______ _______ _____ _____    ______ ____
ROOT
ATOM      1  C   UNK     1       0.853  -0.202  -0.732  0.00  0.00    +0.036 C 
ENDROOT
BRANCH   1   2
ATOM      2  N   UNK     1       1.978  -0.861  -1.403  0.00  0.00    +0.389 N 
ATOM      3  H   UNK     1       1.637  -1.670  -1.923  0.00  0.00    -0.088 HD
ATOM      4  H   UNK     1       2.658  -1.167  -0.707  0.00  0.00    -0.088 HD
ATOM      5  H   UNK     1       2.421  -0.206  -2.047  0.00  0.00    -0.088 HD
ENDBRANCH   1   2
BRANCH   1   7
ATOM      6  O   UNK     1       2.526   1.011   0.568  0.00  0.00    -0.253 OA
ATOM      7  C   UNK     1       1.431   0.988   0.020  0.00  0.00    +0.293 C 
BRANCH   7   8
ATOM      8  O   UNK     1       0.584   2.051   0.033  0.00  0.00    -0.482 OA
ATOM      9  H   UNK     1      -0.245   1.994  -0.398  0.00  0.00    +0.295 HD
ENDBRANCH   7   8
ENDBRANCH   1   7
BRANCH   1  10
ATOM     10  C   UNK     1       0.095  -1.198   0.184  0.00  0.00    +0.002 C 
ATOM     11  C   UNK     1       1.000  -1.850   1.240  0.00  0.00    -0.001 C 
BRANCH  10  12
ATOM     12  C   UNK     1      -1.124  -0.567   0.887  0.00  0.00    +0.108 C 
BRANCH  12  14
ATOM     13  O   UNK     1      -2.373  -0.418  -1.200  0.00  0.00    -0.250 OA
ATOM     14  C   UNK     1      -2.144   0.004  -0.074  0.00  0.00    +0.314 C 
BRANCH  14  15
ATOM     15  O   UNK     1      -2.825   1.042   0.478  0.00  0.00    -0.480 OA
ATOM     16  H   UNK     1      -2.616   1.332   1.344  0.00  0.00    +0.295 HD
ENDBRANCH  14  15
ENDBRANCH  12  14
ENDBRANCH  10  12
ENDBRANCH   1  10
TORSDOF 7
