REMARK  Name = 92253
REMARK  5 active torsions:
REMARK  status: ('A' for Active; 'I' for Inactive)
REMARK    1  A    between atoms: N_2  and  C_5
REMARK    2  A    between atoms: C_3  and  C_14
REMARK    3  A    between atoms: N_13  and  C_20
REMARK    4  A    between atoms: C_20  and  C_21
REMARK    5  A    between atoms: C_21  and  C_22
REMARK                            x       y       z     vdW  Elec       q    Type
REMARK                         _______ _______ _______ _____ _____    ______ ____
ROOT
ATOM      1  O   UNL     1      -0.008   0.014   1.409  0.00  0.00    -0.277 OA
ATOM      2  N   UNL     1       1.210   0.459  -0.554  0.00  0.00    -0.286 N 
ATOM      3  C   UNL     1       0.095   0.467   0.274  0.00  0.00    +0.207 C 
ATOM      4  H   UNL     1       1.099   0.878  -1.438  0.00  0.00    +0.155 HD
ENDROOT
BRANCH   2   5
ATOM      5  C   UNL     1       2.487  -0.082  -0.274  0.00  0.00    +0.042 C 
ATOM      6  C   UNL     1       3.450   0.718   0.322  0.00  0.00    -0.009 C 
ATOM      7  C   UNL     1       2.753  -1.404  -0.599  0.00  0.00    -0.009 C 
ATOM      8  C   UNL     1       4.709   0.185   0.598  0.00  0.00    -0.003 C 
ATOM      9  C   UNL     1       4.012  -1.937  -0.322  0.00  0.00    -0.003 C 
ATOM     10  C   UNL     1       3.180   2.144   0.678  0.00  0.00    +0.032 C 
ATOM     11  C   UNL     1       1.726  -2.280  -1.240  0.00  0.00    +0.032 C 
ATOM     12  C   UNL     1       4.990  -1.143   0.277  0.00  0.00    -0.001 C 
ENDBRANCH   2   5
BRANCH   3  14
ATOM     13  N   UNL     1      -2.313   0.542   0.126  0.00  0.00    +0.394 N 
ATOM     14  C   UNL     1      -1.069   1.138  -0.393  0.00  0.00    +0.021 C 
ATOM     15  C   UNL     1      -0.973   2.636  -0.073  0.00  0.00    -0.012 C 
ATOM     16  C   UNL     1      -3.496   1.254  -0.390  0.00  0.00    -0.077 C 
ATOM     17  C   UNL     1      -2.194   3.397  -0.571  0.00  0.00    -0.004 C 
ATOM     18  C   UNL     1      -3.464   2.743  -0.045  0.00  0.00    -0.023 C 
ATOM     19  H   UNL     1      -2.275   0.629   1.142  0.00  0.00    -0.079 HD
BRANCH  13  20
ATOM     20  C   UNL     1      -2.427  -0.881  -0.220  0.00  0.00    -0.077 C 
BRANCH  20  21
ATOM     21  C   UNL     1      -3.706  -1.471   0.371  0.00  0.00    -0.023 C 
BRANCH  21  22
ATOM     22  C   UNL     1      -3.854  -2.948   0.004  0.00  0.00    -0.002 C 
ATOM     23  C   UNL     1      -5.107  -3.552   0.619  0.00  0.00    -0.000 C 
ENDBRANCH  21  22
ENDBRANCH  20  21
ENDBRANCH  13  20
ENDBRANCH   3  14
TORSDOF 5
