REMARK  Name = 4723
REMARK  1 active torsions:
REMARK  status: ('A' for Active; 'I' for Inactive)
REMARK    1  A    between atoms: C_5  and  C_10
REMARK                            x       y       z     vdW  Elec       q    Type
REMARK                         _______ _______ _______ _____ _____    ______ ____
ROOT
ATOM      1  O   UNL     1       1.385  -0.792   0.848  0.00  0.00    -0.422 OA
ATOM      2  O   UNL     1       0.980   2.299  -0.664  0.00  0.00    -0.210 OA
ATOM      3  N   UNL     1       2.467   0.525  -0.627  0.00  0.00    -0.282 NA
ATOM      4  N   UNL     1       3.327  -1.631  -0.024  0.00  0.00    -0.302 N 
ATOM      5  C   UNL     1       0.604   0.406   0.793  0.00  0.00    +0.308 C 
ATOM      6  C   UNL     1       1.343   1.208  -0.242  0.00  0.00    +0.229 C 
ATOM      7  C   UNL     1       2.444  -0.596   0.012  0.00  0.00    +0.348 C 
ATOM      8  H   UNL     1       3.171  -2.431   0.528  0.00  0.00    +0.148 HD
ATOM      9  H   UNL     1       4.123  -1.579  -0.602  0.00  0.00    +0.148 HD
ENDROOT
BRANCH   5  10
ATOM     10  C   UNL     1      -0.789   0.074   0.375  0.00  0.00    +0.035 C 
ATOM     11  C   UNL     1      -1.837   0.940   0.689  0.00  0.00    +0.000 C 
ATOM     12  C   UNL     1      -1.044  -1.103  -0.329  0.00  0.00    +0.000 C 
ATOM     13  C   UNL     1      -3.139   0.630   0.298  0.00  0.00    -0.000 C 
ATOM     14  C   UNL     1      -2.347  -1.413  -0.720  0.00  0.00    -0.000 C 
ATOM     15  C   UNL     1      -3.394  -0.547  -0.407  0.00  0.00    -0.000 C 
ENDBRANCH   5  10
TORSDOF 1
