REMARK  Name = 6329
REMARK  0 active torsions:
REMARK  status: ('A' for Active; 'I' for Inactive)
REMARK                            x       y       z     vdW  Elec       q    Type
REMARK                         _______ _______ _______ _____ _____    ______ ____
ROOT
ATOM      1  N   UNL     1      -0.715   0.000   0.000  0.00  0.00    +0.379 N 
ATOM      2  C   UNL     1       0.715   0.000   0.000  0.00  0.00    -0.111 C 
ATOM      3  H   UNL     1      -1.055   0.657   0.703  0.00  0.00    -0.089 HD
ATOM      4  H   UNL     1      -1.055  -0.937   0.217  0.00  0.00    -0.089 HD
ATOM      5  H   UNL     1      -1.055   0.280  -0.920  0.00  0.00    -0.089 HD
ENDROOT
TORSDOF 0
