REMARK  Name = 4583
REMARK  3 active torsions:
REMARK  status: ('A' for Active; 'I' for Inactive)
REMARK    1  A    between atoms: C_6  and  N_17
REMARK    2  A    between atoms: C_16  and  C_26
REMARK    3  A    between atoms: C_26  and  O_27
REMARK                            x       y       z     vdW  Elec       q    Type
REMARK                         _______ _______ _______ _____ _____    ______ ____
ROOT
ATOM      1  F   UNL     1      -1.695  -2.904   0.081  0.00  0.00    -0.203 F 
ATOM      2  O   UNL     1      -1.000   1.771  -0.135  0.00  0.00    -0.471 OA
ATOM      3  O   UNL     1       3.331  -2.409  -0.044  0.00  0.00    -0.286 OA
ATOM      4  N   UNL     1       1.846   1.382  -0.084  0.00  0.00    -0.281 N 
ATOM      5  C   UNL     1       1.259   2.721   0.010  0.00  0.00    +0.121 C 
ATOM      6  C   UNL     1      -1.338  -0.560  -0.014  0.00  0.00    +0.111 C 
ATOM      7  C   UNL     1       0.938   0.304  -0.072  0.00  0.00    +0.091 C 
ATOM      8  C   UNL     1      -0.449   0.514  -0.082  0.00  0.00    +0.168 C 
ATOM      9  C   UNL     1      -0.097   2.728  -0.697  0.00  0.00    +0.225 C 
ATOM     10  C   UNL     1       1.413  -1.021  -0.043  0.00  0.00    +0.058 C 
ATOM     11  C   UNL     1      -0.850  -1.865   0.026  0.00  0.00    +0.156 C 
ATOM     12  C   UNL     1       3.204   1.133  -0.084  0.00  0.00    +0.075 C 
ATOM     13  C   UNL     1       0.524  -2.101   0.005  0.00  0.00    +0.036 C 
ATOM     14  C   UNL     1       1.146   3.144   1.477  0.00  0.00    +0.026 C 
ATOM     15  C   UNL     1       2.878  -1.271  -0.054  0.00  0.00    +0.204 C 
ATOM     16  C   UNL     1       3.771  -0.081  -0.076  0.00  0.00    +0.129 C 
ENDROOT
BRANCH   6  17
ATOM     17  N   UNL     1      -2.721  -0.346   0.001  0.00  0.00    -0.308 N 
ATOM     18  N   UNL     1      -5.570  -0.148  -0.065  0.00  0.00    +0.388 N 
ATOM     19  C   UNL     1      -3.516  -0.810   1.142  0.00  0.00    +0.068 C 
ATOM     20  C   UNL     1      -3.426  -0.296  -1.286  0.00  0.00    +0.068 C 
ATOM     21  C   UNL     1      -4.848  -0.059   1.210  0.00  0.00    -0.056 C 
ATOM     22  C   UNL     1      -4.760   0.439  -1.139  0.00  0.00    -0.056 C 
ATOM     23  C   UNL     1      -6.864   0.527   0.029  0.00  0.00    -0.101 C 
ATOM     24  H   UNL     1      -5.739  -1.131  -0.280  0.00  0.00    -0.080 HD
ENDBRANCH   6  17
BRANCH  16  26
ATOM     25  O   UNL     1       5.971   0.658  -0.589  0.00  0.00    -0.245 OA
ATOM     26  C   UNL     1       5.231  -0.165  -0.079  0.00  0.00    +0.342 C 
BRANCH  26  27
ATOM     27  O   UNL     1       5.623  -1.286   0.564  0.00  0.00    -0.477 OA
ATOM     28  H   UNL     1       4.983  -1.866   0.927  0.00  0.00    +0.295 HD
ENDBRANCH  26  27
ENDBRANCH  16  26
TORSDOF 3
