REMARK  Name = 62309
REMARK  6 active torsions:
REMARK  status: ('A' for Active; 'I' for Inactive)
REMARK    1  A    between atoms: N_1  and  C_19
REMARK    2  A    between atoms: C_2  and  N_9
REMARK    3  A    between atoms: N_9  and  C_11
REMARK    4  A    between atoms: C_10  and  C_17
REMARK    5  A    between atoms: C_19  and  C_21
REMARK    6  A    between atoms: C_21  and  C_23
REMARK                            x       y       z     vdW  Elec       q    Type
REMARK                         _______ _______ _______ _____ _____    ______ ____
ROOT
ATOM      1  N   UNL     1       1.362   0.198   0.337  0.00  0.00    +0.389 N 
ATOM      2  C   UNL     1      -1.394  -0.780   0.420  0.00  0.00    +0.076 C 
ATOM      3  C   UNL     1      -0.523  -0.901  -0.830  0.00  0.00    -0.003 C 
ATOM      4  C   UNL     1      -0.914   0.383   1.288  0.00  0.00    -0.003 C 
ATOM      5  C   UNL     1       0.962  -0.965  -0.468  0.00  0.00    -0.076 C 
ATOM      6  C   UNL     1       0.584   0.276   1.581  0.00  0.00    -0.076 C 
ATOM      7  H   UNL     1       1.170   1.038  -0.208  0.00  0.00    -0.080 HD
ENDROOT
BRANCH   2   9
ATOM      8  O   UNL     1      -4.856  -1.654  -0.444  0.00  0.00    -0.275 OA
ATOM      9  N   UNL     1      -2.783  -0.624   0.065  0.00  0.00    -0.260 N 
ATOM     10  C   UNL     1      -3.663  -1.729  -0.139  0.00  0.00    +0.229 C 
BRANCH   9  11
ATOM     11  C   UNL     1      -3.313   0.728  -0.094  0.00  0.00    +0.054 C 
ATOM     12  C   UNL     1      -3.840   1.333   1.009  0.00  0.00    +0.015 C 
ATOM     13  C   UNL     1      -3.245   1.292  -1.333  0.00  0.00    +0.015 C 
ATOM     14  C   UNL     1      -4.346   2.624   0.858  0.00  0.00    +0.001 C 
ATOM     15  C   UNL     1      -3.751   2.583  -1.483  0.00  0.00    +0.001 C 
ATOM     16  C   UNL     1      -4.301   3.249  -0.388  0.00  0.00    +0.000 C 
ENDBRANCH   9  11
BRANCH  10  17
ATOM     17  C   UNL     1      -3.039  -3.102   0.093  0.00  0.00    +0.086 C 
ATOM     18  C   UNL     1      -4.015  -4.242  -0.152  0.00  0.00    +0.010 C 
ENDBRANCH  10  17
ENDBRANCH   2   9
BRANCH   1  19
ATOM     19  C   UNL     1       2.794   0.147   0.632  0.00  0.00    -0.053 C 
ATOM     20  C   UNL     1       3.157   1.382   1.457  0.00  0.00    -0.023 C 
BRANCH  19  21
ATOM     21  C   UNL     1       3.587   0.057  -0.685  0.00  0.00    +0.012 C 
BRANCH  21  23
ATOM     22  S   UNL     1       6.082   1.116  -1.202  0.00  0.00    -0.091 S 
ATOM     23  C   UNL     1       5.080  -0.041  -0.470  0.00  0.00    +0.005 C 
ATOM     24  C   UNL     1       5.749  -0.970   0.260  0.00  0.00    +0.003 C 
ATOM     25  C   UNL     1       7.153  -0.732   0.225  0.00  0.00    +0.007 C 
ATOM     26  C   UNL     1       7.472   0.372  -0.535  0.00  0.00    +0.035 C 
ENDBRANCH  21  23
ENDBRANCH  19  21
ENDBRANCH   1  19
TORSDOF 6
