REMARK  Name = 5325
REMARK  3 active torsions:
REMARK  status: ('A' for Active; 'I' for Inactive)
REMARK    1  A    between atoms: S_1  and  N_4
REMARK    2  A    between atoms: S_1  and  C_13
REMARK    3  A    between atoms: C_16  and  N_19
REMARK                            x       y       z     vdW  Elec       q    Type
REMARK                         _______ _______ _______ _____ _____    ______ ____
ROOT
ATOM      1  S   UNL     1      -0.401   2.282   0.101  0.00  0.00    +0.082 S 
ATOM      2  O   UNL     1      -1.114   3.182   1.000  0.00  0.00    -0.149 OA
ATOM      3  O   UNL     1      -0.067   2.748  -1.240  0.00  0.00    -0.149 OA
ENDROOT
BRANCH   1   4
ATOM      4  N   UNL     1       1.030   1.751   0.900  0.00  0.00    -0.148 N 
ATOM      5  N   UNL     1       1.732  -0.493   1.088  0.00  0.00    -0.341 NA
ATOM      6  N   UNL     1       2.319   0.822  -0.844  0.00  0.00    -0.169 NA
ATOM      7  C   UNL     1       1.736   0.626   0.348  0.00  0.00    +0.164 C 
ATOM      8  C   UNL     1       2.403  -1.528   0.542  0.00  0.00    +0.124 C 
ATOM      9  C   UNL     1       3.048  -1.466  -0.677  0.00  0.00    +0.050 C 
ATOM     10  C   UNL     1       2.972  -0.254  -1.332  0.00  0.00    +0.114 C 
ATOM     11  C   UNL     1       2.430  -2.798   1.324  0.00  0.00    +0.067 C 
ATOM     12  H   UNL     1       1.356   2.205   1.711  0.00  0.00    +0.187 HD
ENDBRANCH   1   4
BRANCH   1  13
ATOM     13  C   UNL     1      -1.336   0.814  -0.034  0.00  0.00    +0.126 C 
ATOM     14  C   UNL     1      -2.222   0.456   0.982  0.00  0.00    +0.021 C 
ATOM     15  C   UNL     1      -1.197  -0.001  -1.158  0.00  0.00    +0.021 C 
ATOM     16  C   UNL     1      -2.831  -1.532  -0.249  0.00  0.00    +0.042 C 
ATOM     17  C   UNL     1      -2.970  -0.717   0.874  0.00  0.00    +0.015 C 
ATOM     18  C   UNL     1      -1.945  -1.174  -1.266  0.00  0.00    +0.015 C 
BRANCH  16  19
ATOM     19  N   UNL     1      -3.587  -2.717  -0.359  0.00  0.00    -0.357 N 
ATOM     20  H   UNL     1      -4.212  -2.970   0.358  0.00  0.00    +0.142 HD
ATOM     21  H   UNL     1      -3.489  -3.292  -1.152  0.00  0.00    +0.142 HD
ENDBRANCH  16  19
ENDBRANCH   1  13
TORSDOF 3
