REMARK  Name = 8646
REMARK  0 active torsions:
REMARK  status: ('A' for Active; 'I' for Inactive)
REMARK                            x       y       z     vdW  Elec       q    Type
REMARK                         _______ _______ _______ _____ _____    ______ ____
ROOT
ATOM      1  O   UNL     1       0.122   2.583  -0.012  0.00  0.00    -0.207 OA
ATOM      2  N   UNL     1      -1.729  -1.544  -0.029  0.00  0.00    -0.222 N 
ATOM      3  N   UNL     1      -2.667  -0.511   0.042  0.00  0.00    -0.184 N 
ATOM      4  N   UNL     1      -2.014   0.711  -0.003  0.00  0.00    -0.151 NA
ATOM      5  N   UNL     1       0.716  -1.407  -0.009  0.00  0.00    -0.309 NA
ATOM      6  N   UNL     1       1.632   0.824   0.005  0.00  0.00    -0.251 NA
ATOM      7  N   UNL     1       3.039  -1.013   0.015  0.00  0.00    -0.283 N 
ATOM      8  C   UNL     1      -0.496  -0.990  -0.012  0.00  0.00    +0.242 C 
ATOM      9  C   UNL     1      -0.749   0.447   0.002  0.00  0.00    +0.240 C 
ATOM     10  C   UNL     1       0.379   1.387  -0.003  0.00  0.00    +0.239 C 
ATOM     11  C   UNL     1       1.767  -0.487   0.004  0.00  0.00    +0.208 C 
ATOM     12  H   UNL     1      -1.931  -2.507  -0.083  0.00  0.00    +0.174 HD
ATOM     13  H   UNL     1      -3.642  -0.632   0.114  0.00  0.00    +0.193 HD
ATOM     14  H   UNL     1       3.169  -1.989   0.014  0.00  0.00    +0.156 HD
ATOM     15  H   UNL     1       3.820  -0.412   0.023  0.00  0.00    +0.156 HD
ENDROOT
TORSDOF 0
