REMARK  Name = 72271
REMARK  3 active torsions:
REMARK  status: ('A' for Active; 'I' for Inactive)
REMARK    1  A    between atoms: C_7  and  O_37
REMARK    2  A    between atoms: C_9  and  N_33
REMARK    3  A    between atoms: C_22  and  O_39
REMARK                            x       y       z     vdW  Elec       q    Type
REMARK                         _______ _______ _______ _____ _____    ______ ____
ROOT
ATOM      1  O   UNL     1       1.123  -2.095   1.696  0.00  0.00    -0.319 OA
ATOM      2  O   UNL     1      -4.543   2.234  -0.192  0.00  0.00    -0.270 OA
ATOM      3  N   UNL     1       1.645  -0.052   0.636  0.00  0.00    -0.305 N 
ATOM      4  N   UNL     1      -0.844  -1.735   0.526  0.00  0.00    -0.304 N 
ATOM      5  N   UNL     1      -2.884   3.881  -0.267  0.00  0.00    -0.276 N 
ATOM      6  C   UNL     1       2.169  -1.352   1.064  0.00  0.00    +0.188 C 
ATOM      7  C   UNL     1       2.821  -2.202  -0.063  0.00  0.00    +0.141 C 
ATOM      8  C   UNL     1       0.172  -2.701   0.851  0.00  0.00    +0.204 C 
ATOM      9  C   UNL     1       1.825  -2.735  -1.097  0.00  0.00    -0.025 C 
ATOM     10  C   UNL     1       0.730  -3.479  -0.343  0.00  0.00    +0.035 C 
ATOM     11  C   UNL     1       0.358   0.418   0.452  0.00  0.00    +0.077 A 
ATOM     12  C   UNL     1      -0.825  -0.378   0.411  0.00  0.00    +0.078 A 
ATOM     13  C   UNL     1       0.120   1.829   0.228  0.00  0.00    +0.019 A 
ATOM     14  C   UNL     1      -2.065   0.348   0.193  0.00  0.00    +0.023 A 
ATOM     15  C   UNL     1       2.389   1.131   0.429  0.00  0.00    +0.062 A 
ATOM     16  C   UNL     1       3.158  -1.201   2.245  0.00  0.00    +0.056 C 
ATOM     17  C   UNL     1      -1.081   2.511   0.043  0.00  0.00    +0.030 A 
ATOM     18  C   UNL     1      -2.199  -2.027   0.362  0.00  0.00    +0.062 A 
ATOM     19  C   UNL     1       1.515   2.245   0.242  0.00  0.00    +0.017 A 
ATOM     20  C   UNL     1      -2.220   1.722   0.045  0.00  0.00    +0.055 A 
ATOM     21  C   UNL     1      -2.946  -0.827   0.177  0.00  0.00    +0.017 A 
ATOM     22  C   UNL     1      -1.442   3.944  -0.187  0.00  0.00    +0.212 C 
ATOM     23  C   UNL     1       3.785   1.350   0.397  0.00  0.00    +0.017 C 
ATOM     24  C   UNL     1      -3.381   2.587  -0.152  0.00  0.00    +0.248 C 
ATOM     25  C   UNL     1       2.084   3.535   0.075  0.00  0.00    +0.001 C 
ATOM     26  C   UNL     1      -2.837  -3.286   0.367  0.00  0.00    +0.017 C 
ATOM     27  C   UNL     1      -4.347  -0.958   0.000  0.00  0.00    +0.001 C 
ATOM     28  C   UNL     1       4.304   2.635   0.219  0.00  0.00    +0.001 C 
ATOM     29  C   UNL     1       3.464   3.720   0.068  0.00  0.00    +0.000 C 
ATOM     30  C   UNL     1      -4.218  -3.361   0.191  0.00  0.00    +0.001 C 
ATOM     31  C   UNL     1      -4.966  -2.211   0.010  0.00  0.00    +0.000 C 
ATOM     32  H   UNL     1      -3.456   4.673  -0.391  0.00  0.00    +0.152 HD
ENDROOT
BRANCH   9  33
ATOM     33  N   UNL     1       1.265  -1.680  -1.940  0.00  0.00    +0.385 N 
ATOM     34  C   UNL     1       0.339  -2.235  -2.914  0.00  0.00    -0.105 C 
ATOM     35  H   UNL     1       2.023  -1.206  -2.431  0.00  0.00    -0.084 HD
ATOM     36  H   UNL     1       0.760  -1.021  -1.347  0.00  0.00    -0.084 HD
ENDBRANCH   9  33
BRANCH   7  37
ATOM     37  O   UNL     1       3.885  -1.547  -0.737  0.00  0.00    -0.351 OA
ATOM     38  C   UNL     1       4.571  -2.431  -1.615  0.00  0.00    +0.174 C 
ENDBRANCH   7  37
BRANCH  22  39
ATOM     39  O   UNL     1      -0.926   4.403  -1.421  0.00  0.00    -0.364 OA
ATOM     40  H   UNL     1      -1.172   5.332  -1.549  0.00  0.00    +0.213 HD
ENDBRANCH  22  39
TORSDOF 3
