REMARK  Name = 54676537
REMARK  6 active torsions:
REMARK  status: ('A' for Active; 'I' for Inactive)
REMARK    1  A    between atoms: C_1  and  C_4
REMARK    2  A    between atoms: C_1  and  C_15
REMARK    3  A    between atoms: C_1  and  C_24
REMARK    4  A    between atoms: C_5  and  O_13
REMARK    5  A    between atoms: C_20  and  N_23
REMARK    6  A    between atoms: C_24  and  C_26
REMARK                            x       y       z     vdW  Elec       q    Type
REMARK                         _______ _______ _______ _____ _____    ______ ____
ROOT
ATOM      1  C   UNL     1       0.274   1.318   0.437  0.00  0.00    +0.061 C 
ENDROOT
BRANCH   1   4
ATOM      2  O   UNL     1      -2.638  -0.661   1.827  0.00  0.00    -0.421 OA
ATOM      3  O   UNL     1      -0.757   0.211   2.763  0.00  0.00    -0.245 OA
ATOM      4  C   UNL     1      -1.037   0.579   0.428  0.00  0.00    +0.092 A 
ATOM      5  C   UNL     1      -1.817   0.381  -0.652  0.00  0.00    +0.139 A 
ATOM      6  C   UNL     1      -3.073  -0.366  -0.545  0.00  0.00    +0.068 A 
ATOM      7  C   UNL     1      -1.443   0.043   1.759  0.00  0.00    +0.345 A 
ATOM      8  C   UNL     1      -3.446  -0.868   0.696  0.00  0.00    +0.152 A 
ATOM      9  C   UNL     1      -3.925  -0.607  -1.632  0.00  0.00    +0.006 C 
ATOM     10  C   UNL     1      -4.625  -1.591   0.884  0.00  0.00    +0.038 C 
ATOM     11  C   UNL     1      -5.110  -1.330  -1.462  0.00  0.00    +0.000 C 
ATOM     12  C   UNL     1      -5.460  -1.822  -0.205  0.00  0.00    +0.003 C 
BRANCH   5  13
ATOM     13  O   UNL     1      -1.532   0.842  -1.919  0.00  0.00    -0.506 OA
ATOM     14  H   UNL     1      -0.747   1.330  -2.074  0.00  0.00    +0.292 HD
ENDBRANCH   5  13
ENDBRANCH   1   4
BRANCH   1  15
ATOM     15  C   UNL     1       1.441   0.366   0.223  0.00  0.00    -0.018 C 
ATOM     16  C   UNL     1       1.560  -0.332  -0.979  0.00  0.00    -0.002 C 
ATOM     17  C   UNL     1       2.392   0.191   1.228  0.00  0.00    -0.002 C 
ATOM     18  C   UNL     1       2.630  -1.204  -1.176  0.00  0.00    +0.024 C 
ATOM     19  C   UNL     1       3.462  -0.682   1.032  0.00  0.00    +0.024 C 
ATOM     20  C   UNL     1       3.581  -1.380  -0.171  0.00  0.00    +0.143 C 
BRANCH  20  23
ATOM     21  O   UNL     1       5.515  -2.411   0.546  0.00  0.00    -0.126 OA
ATOM     22  O   UNL     1       4.759  -2.886  -1.459  0.00  0.00    -0.126 OA
ATOM     23  N   UNL     1       4.671  -2.268  -0.371  0.00  0.00    +0.058 N 
ENDBRANCH  20  23
ENDBRANCH   1  15
BRANCH   1  24
ATOM     24  C   UNL     1       0.253   2.473  -0.584  0.00  0.00    +0.074 C 
BRANCH  24  26
ATOM     25  O   UNL     1       1.875   3.635   0.790  0.00  0.00    -0.296 OA
ATOM     26  C   UNL     1       1.203   3.612  -0.240  0.00  0.00    +0.152 C 
ATOM     27  C   UNL     1       1.248   4.758  -1.218  0.00  0.00    +0.072 C 
ENDBRANCH  24  26
ENDBRANCH   1  24
TORSDOF 6
