REMARK  Name = 157920
REMARK  13 active torsions:
REMARK  status: ('A' for Active; 'I' for Inactive)
REMARK    1  A    between atoms: C_5  and  C_20
REMARK    2  A    between atoms: C_8  and  C_13
REMARK    3  A    between atoms: C_8  and  O_18
REMARK    4  A    between atoms: C_13  and  C_14
REMARK    5  A    between atoms: C_14  and  C_15
REMARK    6  A    between atoms: C_15  and  C_16
REMARK    7  A    between atoms: C_20  and  C_21
REMARK    8  A    between atoms: C_21  and  C_22
REMARK    9  A    between atoms: C_22  and  C_23
REMARK   10  A    between atoms: C_23  and  C_24
REMARK   11  A    between atoms: C_24  and  C_25
REMARK   12  A    between atoms: C_25  and  C_27
REMARK   13  A    between atoms: C_27  and  O_28
REMARK                            x       y       z     vdW  Elec       q    Type
REMARK                         _______ _______ _______ _____ _____    ______ ____
ROOT
ATOM      1  O   UNL     1       2.364   1.126   0.919  0.00  0.00    -0.332 OA
ATOM      2  O   UNL     1      -1.380   4.052   1.004  0.00  0.00    -0.296 OA
ATOM      3  C   UNL     1       0.492   1.522  -0.545  0.00  0.00    +0.035 C 
ATOM      4  C   UNL     1       1.518   2.140   0.400  0.00  0.00    +0.125 C 
ATOM      5  C   UNL     1      -0.490   2.666  -0.790  0.00  0.00    +0.060 C 
ATOM      6  C   UNL     1       1.216   0.937  -1.746  0.00  0.00    +0.008 C 
ATOM      7  C   UNL     1       0.651   2.817   1.453  0.00  0.00    +0.094 C 
ATOM      8  C   UNL     1       3.143   0.493  -0.116  0.00  0.00    +0.241 C 
ATOM      9  C   UNL     1       2.241  -0.084  -1.231  0.00  0.00    +0.062 C 
ATOM     10  C   UNL     1      -0.519   3.278   0.606  0.00  0.00    +0.153 C 
ENDROOT
BRANCH   8  13
ATOM     11  F   UNL     1       4.683  -0.098   1.540  0.00  0.00    -0.199 F 
ATOM     12  F   UNL     1       3.067  -1.495   1.110  0.00  0.00    -0.199 F 
ATOM     13  C   UNL     1       3.941  -0.632   0.543  0.00  0.00    +0.309 C 
BRANCH  13  14
ATOM     14  C   UNL     1       4.834  -1.361  -0.445  0.00  0.00    +0.072 C 
BRANCH  14  15
ATOM     15  C   UNL     1       5.634  -2.469   0.246  0.00  0.00    +0.006 C 
BRANCH  15  16
ATOM     16  C   UNL     1       6.556  -3.184  -0.741  0.00  0.00    +0.000 C 
ATOM     17  C   UNL     1       7.329  -4.308  -0.069  0.00  0.00    +0.000 C 
ENDBRANCH  15  16
ENDBRANCH  14  15
ENDBRANCH  13  14
ENDBRANCH   8  13
BRANCH   8  18
ATOM     18  O   UNL     1       4.063   1.409  -0.718  0.00  0.00    -0.360 OA
ATOM     19  H   UNL     1       3.571   2.130  -1.141  0.00  0.00    +0.213 HD
ENDBRANCH   8  18
BRANCH   5  20
ATOM     20  C   UNL     1      -1.855   2.198  -1.256  0.00  0.00    +0.007 C 
BRANCH  20  21
ATOM     21  C   UNL     1      -2.452   1.159  -0.303  0.00  0.00    +0.000 C 
BRANCH  21  22
ATOM     22  C   UNL     1      -3.811   0.663  -0.800  0.00  0.00    +0.000 C 
BRANCH  22  23
ATOM     23  C   UNL     1      -4.457  -0.374   0.123  0.00  0.00    +0.001 C 
BRANCH  23  24
ATOM     24  C   UNL     1      -5.831  -0.891  -0.312  0.00  0.00    +0.012 C 
BRANCH  24  25
ATOM     25  C   UNL     1      -6.450  -1.880   0.675  0.00  0.00    +0.109 C 
BRANCH  25  27
ATOM     26  O   UNL     1      -8.360  -2.036  -0.828  0.00  0.00    -0.250 OA
ATOM     27  C   UNL     1      -7.798  -2.376   0.204  0.00  0.00    +0.314 C 
BRANCH  27  28
ATOM     28  O   UNL     1      -8.329  -3.272   1.077  0.00  0.00    -0.480 OA
ATOM     29  H   UNL     1      -7.861  -3.502   1.855  0.00  0.00    +0.295 HD
ENDBRANCH  27  28
ENDBRANCH  25  27
ENDBRANCH  24  25
ENDBRANCH  23  24
ENDBRANCH  22  23
ENDBRANCH  21  22
ENDBRANCH  20  21
ENDBRANCH   5  20
TORSDOF 13
