REMARK  Name = 60937
REMARK  8 active torsions:
REMARK  status: ('A' for Active; 'I' for Inactive)
REMARK    1  A    between atoms: C_1  and  P_2
REMARK    2  A    between atoms: C_1  and  P_8
REMARK    3  A    between atoms: C_1  and  S_14
REMARK    4  A    between atoms: P_2  and  O_4
REMARK    5  A    between atoms: P_2  and  O_6
REMARK    6  A    between atoms: P_8  and  O_10
REMARK    7  A    between atoms: P_8  and  O_12
REMARK    8  A    between atoms: S_14  and  C_16
REMARK                            x       y       z     vdW  Elec       q    Type
REMARK                         _______ _______ _______ _____ _____    ______ ____
ROOT
ATOM      1  C   UNL     1      -1.501   0.197   0.315  0.00  0.00    +0.258 C 
ENDROOT
BRANCH   1   2
ATOM      2  P   UNL     1      -3.220   0.705   0.059  0.00  0.00    +0.358 P 
ATOM      3  O   UNL     1      -3.790   0.380  -1.290  0.00  0.00    -0.257 OA
BRANCH   2   4
ATOM      4  O   UNL     1      -3.984   0.005   1.301  0.00  0.00    -0.323 OA
ATOM      5  H   UNL     1      -4.929   0.217   1.260  0.00  0.00    +0.220 HD
ENDBRANCH   2   4
BRANCH   2   6
ATOM      6  O   UNL     1      -3.236   2.271   0.463  0.00  0.00    -0.323 OA
ATOM      7  H   UNL     1      -4.133   2.624   0.352  0.00  0.00    +0.220 HD
ENDBRANCH   2   6
ENDBRANCH   1   2
BRANCH   1   8
ATOM      8  P   UNL     1      -0.905  -1.496   0.110  0.00  0.00    +0.358 P 
ATOM      9  O   UNL     1       0.570  -1.698   0.287  0.00  0.00    -0.257 OA
BRANCH   8  10
ATOM     10  O   UNL     1      -1.821  -2.318   1.159  0.00  0.00    -0.323 OA
ATOM     11  H   UNL     1      -1.581  -3.258   1.132  0.00  0.00    +0.220 HD
ENDBRANCH   8  10
BRANCH   8  12
ATOM     12  O   UNL     1      -1.502  -1.953  -1.322  0.00  0.00    -0.323 OA
ATOM     13  H   UNL     1      -1.225  -2.863  -1.511  0.00  0.00    +0.220 HD
ENDBRANCH   8  12
ENDBRANCH   1   8
BRANCH   1  14
ATOM     14  S   UNL     1      -0.569   1.184  -0.914  0.00  0.00    -0.090 S 
BRANCH  14  16
ATOM     15 CL   UNL     1       5.372  -0.195   0.632  0.00  0.00    -0.082 Cl
ATOM     16  C   UNL     1       1.117   0.792  -0.475  0.00  0.00    +0.026 C 
ATOM     17  C   UNL     1       1.589   1.091   0.801  0.00  0.00    +0.007 C 
ATOM     18  C   UNL     1       1.955   0.189  -1.410  0.00  0.00    +0.007 C 
ATOM     19  C   UNL     1       2.906   0.784   1.144  0.00  0.00    +0.012 C 
ATOM     20  C   UNL     1       3.272  -0.118  -1.067  0.00  0.00    +0.012 C 
ATOM     21  C   UNL     1       3.747   0.180   0.209  0.00  0.00    +0.058 C 
ENDBRANCH  14  16
ENDBRANCH   1  14
TORSDOF 8
