REMARK  Name = 644169
REMARK  10 active torsions:
REMARK  status: ('A' for Active; 'I' for Inactive)
REMARK    1  A    between atoms: N_2  and  C_7
REMARK    2  A    between atoms: C_4  and  C_18
REMARK    3  A    between atoms: C_7  and  C_11
REMARK    4  A    between atoms: C_18  and  C_19
REMARK    5  A    between atoms: C_19  and  O_20
REMARK    6  A    between atoms: O_20  and  P_21
REMARK    7  A    between atoms: P_21  and  O_24
REMARK    8  A    between atoms: O_24  and  P_25
REMARK    9  A    between atoms: P_25  and  O_27
REMARK   10  A    between atoms: P_25  and  O_29
REMARK                            x       y       z     vdW  Elec       q    Type
REMARK                         _______ _______ _______ _____ _____    ______ ____
ROOT
ATOM      1  S   UNL     1      -0.711  -2.817   1.766  0.00  0.00    -0.095 S 
ATOM      2  N   UNL     1       1.012  -2.334   0.011  0.00  0.00    -0.297 N 
ATOM      3  C   UNL     1      -0.187  -2.288  -0.664  0.00  0.00    +0.028 C 
ATOM      4  C   UNL     1      -1.225  -2.534   0.167  0.00  0.00    +0.016 C 
ATOM      5  C   UNL     1       0.920  -2.601   1.296  0.00  0.00    +0.154 C 
ATOM      6  C   UNL     1      -0.166  -1.997  -2.106  0.00  0.00    +0.047 C 
ENDROOT
BRANCH   2   7
ATOM      7  C   UNL     1       2.291  -2.111  -0.620  0.00  0.00    +0.124 C 
BRANCH   7  11
ATOM      8  N   UNL     1       3.644   1.224   0.531  0.00  0.00    -0.340 NA
ATOM      9  N   UNL     1       2.527   1.511  -1.585  0.00  0.00    -0.186 NA
ATOM     10  N   UNL     1       3.751  -0.917   1.545  0.00  0.00    -0.332 N 
ATOM     11  C   UNL     1       2.635  -0.648  -0.562  0.00  0.00    +0.062 C 
ATOM     12  C   UNL     1       3.333  -0.087   0.475  0.00  0.00    +0.187 C 
ATOM     13  C   UNL     1       2.250   0.191  -1.576  0.00  0.00    +0.111 C 
ATOM     14  C   UNL     1       3.217   1.955  -0.516  0.00  0.00    +0.066 C 
ATOM     15  C   UNL     1       3.542   3.410  -0.491  0.00  0.00    +0.129 C 
ATOM     16  H   UNL     1       4.253  -0.532   2.299  0.00  0.00    +0.145 HD
ATOM     17  H   UNL     1       3.540  -1.878   1.534  0.00  0.00    +0.145 HD
ENDBRANCH   7  11
ENDBRANCH   2   7
BRANCH   4  18
ATOM     18  C   UNL     1      -2.701  -2.581  -0.149  0.00  0.00    +0.066 C 
BRANCH  18  19
ATOM     19  C   UNL     1      -3.365  -1.216   0.011  0.00  0.00    +0.159 C 
BRANCH  19  20
ATOM     20  O   UNL     1      -2.760  -0.259  -0.843  0.00  0.00    -0.271 OA
BRANCH  20  21
ATOM     21  P   UNL     1      -3.315   1.280  -0.837  0.00  0.00    +0.514 P 
ATOM     22  O   UNL     1      -2.500   2.081  -1.830  0.00  0.00    -0.224 OA
ATOM     23  O   UNL     1      -4.826   1.270  -0.912  0.00  0.00    -0.116 OA
BRANCH  21  24
ATOM     24  O   UNL     1      -2.873   1.722   0.671  0.00  0.00    -0.185 OA
BRANCH  24  25
ATOM     25  P   UNL     1      -1.423   1.795   1.378  0.00  0.00    +0.481 P 
ATOM     26  O   UNL     1      -0.667   0.501   1.453  0.00  0.00    -0.227 OA
BRANCH  25  27
ATOM     27  O   UNL     1      -1.738   2.475   2.811  0.00  0.00    -0.302 OA
ATOM     28  H   UNL     1      -2.226   3.303   2.675  0.00  0.00    +0.222 HD
ENDBRANCH  25  27
BRANCH  25  29
ATOM     29  O   UNL     1      -0.664   2.976   0.576  0.00  0.00    -0.302 OA
ATOM     30  H   UNL     1      -1.217   3.773   0.574  0.00  0.00    +0.222 HD
ENDBRANCH  25  29
ENDBRANCH  24  25
ENDBRANCH  21  24
ENDBRANCH  20  21
ENDBRANCH  19  20
ENDBRANCH  18  19
ENDBRANCH   4  18
TORSDOF 10
