REMARK  Name = 2811
REMARK  2 active torsions:
REMARK  status: ('A' for Active; 'I' for Inactive)
REMARK    1  A    between atoms: C_7  and  C_14
REMARK    2  A    between atoms: C_8  and  C_20
REMARK                            x       y       z     vdW  Elec       q    Type
REMARK                         _______ _______ _______ _____ _____    ______ ____
ROOT
ATOM      1  S   UNL     1       2.736   1.490  -0.255  0.00  0.00    -0.076 S 
ATOM      2  O   UNL     1       2.290  -3.490  -0.156  0.00  0.00    -0.272 OA
ATOM      3  N   UNL     1       2.470  -1.171  -0.326  0.00  0.00    -0.250 N 
ATOM      4  N   UNL     1      -0.229  -1.896   1.057  0.00  0.00    -0.260 NA
ATOM      5  C   UNL     1       0.556   0.308   0.444  0.00  0.00    +0.037 C 
ATOM      6  C   UNL     1       1.843   0.049  -0.012  0.00  0.00    +0.085 C 
ATOM      7  C   UNL     1      -0.481  -0.711   0.619  0.00  0.00    +0.079 C 
ATOM      8  C   UNL     1       1.475   2.463   0.343  0.00  0.00    +0.009 C 
ATOM      9  C   UNL     1       0.371   1.716   0.674  0.00  0.00    +0.005 C 
ATOM     10  C   UNL     1       1.122  -2.222   1.471  0.00  0.00    +0.210 C 
ATOM     11  C   UNL     1       1.988  -2.361   0.240  0.00  0.00    +0.255 C 
ATOM     12  C   UNL     1       3.602  -1.264  -1.251  0.00  0.00    +0.121 C 
ENDROOT
BRANCH   7  14
ATOM     13 CL   UNL     1      -1.415  -1.257  -2.274  0.00  0.00    -0.082 Cl
ATOM     14  C   UNL     1      -1.882  -0.372   0.264  0.00  0.00    +0.028 C 
ATOM     15  C   UNL     1      -2.389  -0.585  -1.017  0.00  0.00    +0.059 C 
ATOM     16  C   UNL     1      -2.695   0.173   1.256  0.00  0.00    +0.002 C 
ATOM     17  C   UNL     1      -3.713  -0.251  -1.306  0.00  0.00    +0.011 C 
ATOM     18  C   UNL     1      -4.018   0.507   0.967  0.00  0.00    +0.000 C 
ATOM     19  C   UNL     1      -4.527   0.295  -0.314  0.00  0.00    +0.001 C 
ENDBRANCH   7  14
BRANCH   8  20
ATOM     20  C   UNL     1       1.656   3.928   0.430  0.00  0.00    +0.033 C 
ATOM     21  C   UNL     1       1.239   4.652  -0.855  0.00  0.00    +0.006 C 
ENDBRANCH   8  20
TORSDOF 2
