REMARK  Name = 6435415
REMARK  14 active torsions:
REMARK  status: ('A' for Active; 'I' for Inactive)
REMARK    1  A    between atoms: C_1  and  C_2
REMARK    2  A    between atoms: C_1  and  C_13
REMARK    3  A    between atoms: C_2  and  C_16
REMARK    4  A    between atoms: C_5  and  C_8
REMARK    5  A    between atoms: C_13  and  O_14
REMARK    6  A    between atoms: C_16  and  C_17
REMARK    7  A    between atoms: C_17  and  C_18
REMARK    8  A    between atoms: C_18  and  C_19
REMARK    9  A    between atoms: C_19  and  S_20
REMARK   10  A    between atoms: S_20  and  C_21
REMARK   11  A    between atoms: C_21  and  C_22
REMARK   12  A    between atoms: C_22  and  N_23
REMARK   13  A    between atoms: C_22  and  C_28
REMARK   14  A    between atoms: C_28  and  O_29
REMARK                            x       y       z     vdW  Elec       q    Type
REMARK                         _______ _______ _______ _____ _____    ______ ____
ROOT
ATOM      1  C   UNK A   1      -0.761   2.896  -0.462  0.00  0.00    +0.048 C 
ENDROOT
BRANCH   1   2
ATOM      2  C   UNK A   1      -1.235   1.842   0.224  0.00  0.00    +0.104 C 
ATOM      3  O   UNK A   0      -2.213  -0.495   1.583  0.00  0.00    -0.275 OA
ATOM      4  N   UNK A   1      -1.226   0.561  -0.249  0.00  0.00    -0.282 N 
ATOM      5  C   UNK A   0      -1.716  -0.519   0.463  0.00  0.00    +0.226 C 
ATOM      6  H   UNK A   1      -0.852   0.397  -1.145  0.00  0.00    +0.155 HD
BRANCH   5   8
ATOM      7  C   UNK A   0      -2.681  -2.270  -1.198  0.00  0.00    +0.009 C 
ATOM      8  C   UNK A   0      -1.600  -1.821  -0.260  0.00  0.00    +0.077 C 
ATOM      9  C   UNK A   0      -2.510  -2.949   0.129  0.00  0.00    +0.010 C 
ATOM     10  C   UNK A   0      -2.271  -3.020  -2.418  0.00  0.00    +0.000 C 
ATOM     11  C   UNK A   0      -3.887  -1.415  -1.387  0.00  0.00    +0.000 C 
ENDBRANCH   5   8
BRANCH   2  13
ATOM     12  O   UNK A   1      -2.965   2.350   1.825  0.00  0.00    -0.244 OA
ATOM     13  C   UNK A   1      -1.797   2.088   1.579  0.00  0.00    +0.348 C 
BRANCH  13  14
ATOM     14  O   UNK A   1      -0.835   1.987   2.527  0.00  0.00    -0.476 OA
ATOM     15  H   UNK A   1       0.046   1.784   2.281  0.00  0.00    +0.295 HD
ENDBRANCH  13  14
ENDBRANCH   2  13
ENDBRANCH   1   2
BRANCH   1  16
ATOM     16  C   UNK A   1      -0.151   2.891  -1.838  0.00  0.00    +0.006 C 
BRANCH  16  17
ATOM     17  C   UNK A   1       1.245   3.524  -1.871  0.00  0.00    +0.001 C 
BRANCH  17  18
ATOM     18  C   UNK A   1       2.306   2.815  -1.020  0.00  0.00    +0.012 C 
BRANCH  18  19
ATOM     19  C   UNK A   1       2.599   1.395  -1.498  0.00  0.00    +0.057 C 
BRANCH  19  20
ATOM     20  S   UNK A   1       3.857   0.614  -0.444  0.00  0.00    -0.142 S 
BRANCH  20  21
ATOM     21  C   UNK A   1       2.788   0.144   0.934  0.00  0.00    +0.047 C 
BRANCH  21  22
ATOM     22  C   UNK A   1       2.059  -1.175   0.669  0.00  0.00    +0.047 C 
BRANCH  22  23
ATOM     23  N   UNK A   1       1.226  -1.528   1.820  0.00  0.00    +0.389 N 
ATOM     24  H   UNK A   1       0.566  -0.773   2.006  0.00  0.00    -0.088 HD
ATOM     25  H   UNK A   1       1.818  -1.672   2.637  0.00  0.00    -0.088 HD
ATOM     26  H   UNK A   1       0.712  -2.386   1.617  0.00  0.00    -0.088 HD
ENDBRANCH  22  23
BRANCH  22  28
ATOM     27  O   UNK A   1       3.878  -2.664   1.238  0.00  0.00    -0.253 OA
ATOM     28  C   UNK A   1       3.020  -2.325   0.431  0.00  0.00    +0.294 C 
BRANCH  28  29
ATOM     29  O   UNK A   1       2.868  -2.926  -0.776  0.00  0.00    -0.482 OA
ATOM     30  H   UNK A   1       2.198  -2.634  -1.363  0.00  0.00    +0.295 HD
ENDBRANCH  28  29
ENDBRANCH  22  28
ENDBRANCH  21  22
ENDBRANCH  20  21
ENDBRANCH  19  20
ENDBRANCH  18  19
ENDBRANCH  17  18
ENDBRANCH  16  17
ENDBRANCH   1  16
TORSDOF 14
