REMARK  Name = 2431
REMARK  3 active torsions:
REMARK  status: ('A' for Active; 'I' for Inactive)
REMARK    1  A    between atoms: C_2  and  C_8
REMARK    2  A    between atoms: C_8  and  N_9
REMARK    3  A    between atoms: N_9  and  C_12
REMARK                            x       y       z     vdW  Elec       q    Type
REMARK                         _______ _______ _______ _____ _____    ______ ____
ROOT
ATOM      1 BR   UNL     1      -0.394   2.605   0.673  0.00  0.00    -0.049 Br
ATOM      2  C   UNL     1      -0.687  -0.261   0.569  0.00  0.00    -0.036 C 
ATOM      3  C   UNL     1      -1.264   0.969   0.268  0.00  0.00    +0.029 C 
ATOM      4  C   UNL     1      -1.351  -1.445   0.259  0.00  0.00    -0.006 C 
ATOM      5  C   UNL     1      -2.514   1.016  -0.348  0.00  0.00    +0.006 C 
ATOM      6  C   UNL     1      -2.601  -1.398  -0.357  0.00  0.00    -0.000 C 
ATOM      7  C   UNL     1      -3.183  -0.167  -0.660  0.00  0.00    +0.000 C 
ENDROOT
BRANCH   2   8
ATOM      8  C   UNL     1       0.656  -0.361   1.232  0.00  0.00    -0.045 C 
BRANCH   8   9
ATOM      9  N   UNL     1       1.808  -0.419   0.239  0.00  0.00    +0.390 N 
ATOM     10  C   UNL     1       1.644  -1.638  -0.658  0.00  0.00    -0.095 C 
ATOM     11  C   UNL     1       3.125  -0.520   0.995  0.00  0.00    -0.095 C 
BRANCH   9  12
ATOM     12  C   UNL     1       1.807   0.841  -0.613  0.00  0.00    -0.073 C 
ATOM     13  C   UNL     1       2.954   0.778  -1.598  0.00  0.00    -0.024 C 
ENDBRANCH   9  12
ENDBRANCH   8   9
ENDBRANCH   2   8
TORSDOF 3
