REMARK  Name = 3690
REMARK  5 active torsions:
REMARK  status: ('A' for Active; 'I' for Inactive)
REMARK    1  A    between atoms: P_1  and  N_8
REMARK    2  A    between atoms: N_4  and  C_13
REMARK    3  A    between atoms: N_8  and  C_10
REMARK    4  A    between atoms: C_10  and  C_12
REMARK    5  A    between atoms: C_13  and  C_15
REMARK                            x       y       z     vdW  Elec       q    Type
REMARK                         _______ _______ _______ _____ _____    ______ ____
ROOT
ATOM      1  P   UNL     1      -0.173  -0.302  -0.692  0.00  0.00    +0.348 P 
ATOM      2  O   UNL     1       0.020  -1.885  -1.036  0.00  0.00    -0.292 OA
ATOM      3  O   UNL     1      -0.148   0.501  -1.971  0.00  0.00    -0.254 OA
ATOM      4  N   UNL     1      -1.613  -0.230   0.149  0.00  0.00    -0.197 NA
ATOM      5  C   UNL     1      -1.869  -1.279   1.144  0.00  0.00    +0.084 C 
ATOM      6  C   UNL     1      -1.641  -2.668   0.537  0.00  0.00    +0.050 C 
ATOM      7  C   UNL     1      -0.229  -2.838  -0.010  0.00  0.00    +0.153 C 
ENDROOT
BRANCH   1   8
ATOM      8  N   UNL     1       1.049   0.076   0.370  0.00  0.00    -0.221 NA
ATOM      9  H   UNL     1       1.009  -0.600   1.132  0.00  0.00    +0.133 HD
BRANCH   8  10
ATOM     10  C   UNL     1       2.413   0.081  -0.133  0.00  0.00    +0.095 C 
BRANCH  10  12
ATOM     11 CL   UNL     1       5.000   0.807   0.241  0.00  0.00    -0.112 Cl
ATOM     12  C   UNL     1       3.330   0.780   0.858  0.00  0.00    +0.112 C 
ENDBRANCH  10  12
ENDBRANCH   8  10
ENDBRANCH   1   8
BRANCH   4  13
ATOM     13  C   UNL     1      -2.041   1.069   0.666  0.00  0.00    +0.099 C 
BRANCH  13  15
ATOM     14 CL   UNL     1      -2.299   3.738   0.252  0.00  0.00    -0.112 Cl
ATOM     15  C   UNL     1      -1.798   2.150  -0.377  0.00  0.00    +0.113 C 
ENDBRANCH  13  15
ENDBRANCH   4  13
TORSDOF 5
