REMARK  Name = 15113
REMARK  0 active torsions:
REMARK  status: ('A' for Active; 'I' for Inactive)
REMARK                            x       y       z     vdW  Elec       q    Type
REMARK                         _______ _______ _______ _____ _____    ______ ____
ROOT
ATOM      1  O   UNL     1      -0.056   2.645  -0.010  0.00  0.00    -0.267 OA
ATOM      2  O   UNL     1      -2.984  -0.941   0.018  0.00  0.00    -0.193 OA
ATOM      3  N   UNL     1       1.680  -1.575  -0.031  0.00  0.00    -0.223 N 
ATOM      4  N   UNL     1      -1.568   0.847   0.001  0.00  0.00    -0.196 N 
ATOM      5  N   UNL     1       2.634  -0.562   0.043  0.00  0.00    -0.185 N 
ATOM      6  N   UNL     1       2.005   0.669  -0.002  0.00  0.00    -0.159 NA
ATOM      7  N   UNL     1      -0.753  -1.437  -0.009  0.00  0.00    -0.303 NA
ATOM      8  C   UNL     1       0.732   0.439   0.001  0.00  0.00    +0.200 C 
ATOM      9  C   UNL     1       0.455  -1.002  -0.013  0.00  0.00    +0.235 C 
ATOM     10  C   UNL     1      -0.328   1.460  -0.004  0.00  0.00    +0.283 C 
ATOM     11  C   UNL     1      -1.817  -0.542   0.004  0.00  0.00    +0.273 C 
ATOM     12  H   UNL     1       1.865  -2.540  -0.088  0.00  0.00    +0.174 HD
ATOM     13  H   UNL     1      -2.355   1.438   0.002  0.00  0.00    +0.169 HD
ATOM     14  H   UNL     1       3.606  -0.701   0.117  0.00  0.00    +0.193 HD
ENDROOT
TORSDOF 0
