REMARK  Name = 27661
REMARK  3 active torsions:
REMARK  status: ('A' for Active; 'I' for Inactive)
REMARK    1  A    between atoms: C_5  and  O_11
REMARK    2  A    between atoms: C_6  and  O_9
REMARK    3  A    between atoms: O_11  and  N_14
REMARK                            x       y       z     vdW  Elec       q    Type
REMARK                         _______ _______ _______ _____ _____    ______ ____
ROOT
ATOM      1  O   UNL     1      -1.491  -1.774  -0.002  0.00  0.00    -0.347 OA
ATOM      2  O   UNL     1      -0.426   0.985  -0.782  0.00  0.00    -0.347 OA
ATOM      3  C   UNL     1      -0.257   0.210   0.418  0.00  0.00    +0.190 C 
ATOM      4  C   UNL     1      -1.571  -0.502   0.668  0.00  0.00    +0.175 C 
ATOM      5  C   UNL     1       0.700  -0.939   0.209  0.00  0.00    +0.259 C 
ATOM      6  C   UNL     1      -2.585   0.387  -0.009  0.00  0.00    +0.170 C 
ATOM      7  C   UNL     1      -0.163  -1.943  -0.521  0.00  0.00    +0.191 C 
ATOM      8  C   UNL     1      -1.805   0.942  -1.184  0.00  0.00    +0.174 C 
ENDROOT
BRANCH   6   9
ATOM      9  O   UNL     1      -2.937   1.462   0.854  0.00  0.00    -0.379 OA
ATOM     10  H   UNL     1      -3.437   1.118   1.611  0.00  0.00    +0.211 HD
ENDBRANCH   6   9
BRANCH   5  11
ATOM     11  O   UNL     1       1.848  -0.589  -0.531  0.00  0.00    -0.334 OA
BRANCH  11  14
ATOM     12  O   UNL     1       2.651   0.281   1.351  0.00  0.00    -0.090 OA
ATOM     13  O   UNL     1       3.344   1.121  -0.595  0.00  0.00    -0.090 OA
ATOM     14  N   UNL     1       2.692   0.359   0.122  0.00  0.00    +0.218 N 
ENDBRANCH  11  14
ENDBRANCH   5  11
TORSDOF 3
