REMARK  Name = 447256
REMARK  3 active torsions:
REMARK  status: ('A' for Active; 'I' for Inactive)
REMARK    1  A    between atoms: C_1  and  C_8
REMARK    2  A    between atoms: C_1  and  N_9
REMARK    3  A    between atoms: C_1  and  C_13
REMARK                            x       y       z     vdW  Elec       q    Type
REMARK                         _______ _______ _______ _____ _____    ______ ____
ROOT
ATOM      1  C   UNL     1       1.218  -0.009   0.670  0.00  0.00    +0.013 C 
ENDROOT
BRANCH   1   8
ATOM      2  O   UNL     1       0.285  -2.000  -0.246  0.00  0.00    -0.277 OA
ATOM      3  N   UNL     1      -1.141  -0.207   0.054  0.00  0.00    -0.281 N 
ATOM      4  C   UNL     1      -2.330  -0.871  -0.460  0.00  0.00    +0.093 C 
ATOM      5  C   UNL     1      -1.442   1.159   0.470  0.00  0.00    +0.093 C 
ATOM      6  C   UNL     1      -3.479   0.039  -0.053  0.00  0.00    +0.023 C 
ATOM      7  C   UNL     1      -2.839   1.422  -0.072  0.00  0.00    +0.023 C 
ATOM      8  C   UNL     1       0.087  -0.840   0.118  0.00  0.00    +0.205 C 
ENDBRANCH   1   8
BRANCH   1   9
ATOM      9  N   UNL     1       2.088  -0.934   1.384  0.00  0.00    +0.387 N 
ATOM     10  H   UNL     1       1.552  -1.422   2.101  0.00  0.00    -0.089 HD
ATOM     11  H   UNL     1       2.849  -0.416   1.822  0.00  0.00    -0.089 HD
ATOM     12  H   UNL     1       2.474  -1.613   0.727  0.00  0.00    -0.089 HD
ENDBRANCH   1   9
BRANCH   1  13
ATOM     13  C   UNL     1       1.961   0.766  -0.433  0.00  0.00    -0.011 C 
ATOM     14  C   UNL     1       3.098   1.655   0.083  0.00  0.00    -0.002 C 
ATOM     15  C   UNL     1       2.492  -0.179  -1.516  0.00  0.00    -0.002 C 
ENDBRANCH   1  13
TORSDOF 3
