REMARK  Name = 5463874
REMARK  3 active torsions:
REMARK  status: ('A' for Active; 'I' for Inactive)
REMARK    1  A    between atoms: C_10  and  O_23
REMARK    2  A    between atoms: C_18  and  O_21
REMARK    3  A    between atoms: O_23  and  C_25
REMARK                            x       y       z     vdW  Elec       q    Type
REMARK                         _______ _______ _______ _____ _____    ______ ____
ROOT
ATOM      1  O   UNL     1       1.066   0.542  -1.804  0.00  0.00    -0.472 OA
ATOM      2  N   UNL     1      -3.712  -0.514  -0.039  0.00  0.00    +0.387 N 
ATOM      3  C   UNL     1      -0.938  -0.483  -0.912  0.00  0.00    +0.058 C 
ATOM      4  C   UNL     1      -1.520  -1.582  -0.021  0.00  0.00    -0.011 C 
ATOM      5  C   UNL     1       0.390  -0.755  -1.645  0.00  0.00    +0.209 C 
ATOM      6  C   UNL     1      -2.611  -0.915   0.872  0.00  0.00    -0.053 C 
ATOM      7  C   UNL     1      -2.063   0.009  -1.854  0.00  0.00    -0.015 C 
ATOM      8  C   UNL     1      -0.460   0.665  -0.102  0.00  0.00    +0.014 C 
ATOM      9  C   UNL     1      -0.453  -2.367   0.744  0.00  0.00    +0.002 C 
ATOM     10  C   UNL     1       1.344  -1.766  -0.956  0.00  0.00    +0.209 C 
ATOM     11  C   UNL     1      -2.037   0.240   1.767  0.00  0.00    +0.005 C 
ATOM     12  C   UNL     1       0.606  -2.895  -0.232  0.00  0.00    +0.047 C 
ATOM     13  C   UNL     1      -3.323   0.444  -1.080  0.00  0.00    -0.077 C 
ATOM     14  C   UNL     1      -0.976   1.081   1.109  0.00  0.00    -0.025 C 
ATOM     15  C   UNL     1       0.628   1.260  -0.711  0.00  0.00    +0.168 C 
ATOM     16  C   UNL     1      -4.918  -0.083   0.660  0.00  0.00    -0.101 C 
ATOM     17  C   UNL     1      -0.400   2.216   1.678  0.00  0.00    -0.001 C 
ATOM     18  C   UNL     1       1.200   2.391  -0.176  0.00  0.00    +0.172 C 
ATOM     19  C   UNL     1       0.667   2.875   1.028  0.00  0.00    +0.040 C 
ATOM     20  H   UNL     1      -3.942  -1.379  -0.527  0.00  0.00    -0.080 HD
ENDROOT
BRANCH  18  21
ATOM     21  O   UNL     1       2.262   2.997  -0.760  0.00  0.00    -0.468 OA
ATOM     22  C   UNL     1       2.782   4.166  -0.123  0.00  0.00    +0.253 C 
ENDBRANCH  18  21
BRANCH  10  23
ATOM     23  O   UNL     1       2.234  -1.138  -0.030  0.00  0.00    -0.448 OA
BRANCH  23  25
ATOM     24  O   UNL     1       3.620  -2.982   0.088  0.00  0.00    -0.250 OA
ATOM     25  C   UNL     1       3.138  -1.965   0.568  0.00  0.00    +0.318 C 
ATOM     26  C   UNL     1       3.470  -1.442   1.933  0.00  0.00    +0.121 C 
ENDBRANCH  23  25
ENDBRANCH  10  23
TORSDOF 3
