REMARK  Name = 439213
REMARK  6 active torsions:
REMARK  status: ('A' for Active; 'I' for Inactive)
REMARK    1  A    between atoms: C_2  and  O_11
REMARK    2  A    between atoms: C_3  and  O_13
REMARK    3  A    between atoms: C_4  and  N_7
REMARK    4  A    between atoms: C_5  and  C_17
REMARK    5  A    between atoms: C_6  and  O_15
REMARK    6  A    between atoms: C_17  and  O_18
REMARK                            x       y       z     vdW  Elec       q    Type
REMARK                         _______ _______ _______ _____ _____    ______ ____
ROOT
ATOM      1  O   UNL     1       0.691   1.147  -0.253  0.00  0.00    -0.329 OA
ATOM      2  C   UNL     1      -1.091  -1.058   0.200  0.00  0.00    +0.125 C 
ATOM      3  C   UNL     1       0.365  -1.256  -0.233  0.00  0.00    +0.165 C 
ATOM      4  C   UNL     1      -1.596   0.336  -0.186  0.00  0.00    +0.022 C 
ATOM      5  C   UNL     1       1.232  -0.083   0.235  0.00  0.00    +0.176 C 
ATOM      6  C   UNL     1      -0.612   1.422   0.264  0.00  0.00    +0.213 C 
ENDROOT
BRANCH   4   7
ATOM      7  N   UNL     1      -2.912   0.568   0.418  0.00  0.00    +0.387 N 
ATOM      8  H   UNL     1      -3.559  -0.159   0.112  0.00  0.00    -0.089 HD
ATOM      9  H   UNL     1      -3.263   1.481   0.127  0.00  0.00    -0.089 HD
ATOM     10  H   UNL     1      -2.828   0.544   1.434  0.00  0.00    -0.089 HD
ENDBRANCH   4   7
BRANCH   2  11
ATOM     11  O   UNL     1      -1.902  -2.039  -0.449  0.00  0.00    -0.384 OA
ATOM     12  H   UNL     1      -1.589  -2.926  -0.210  0.00  0.00    +0.210 HD
ENDBRANCH   2  11
BRANCH   3  13
ATOM     13  O   UNL     1       0.832  -2.477   0.334  0.00  0.00    -0.380 OA
ATOM     14  H   UNL     1       0.274  -3.209   0.028  0.00  0.00    +0.211 HD
ENDBRANCH   3  13
BRANCH   6  15
ATOM     15  O   UNL     1      -1.062   2.680  -0.237  0.00  0.00    -0.362 OA
ATOM     16  H   UNL     1      -0.448   3.377   0.040  0.00  0.00    +0.213 HD
ENDBRANCH   6  15
BRANCH   5  17
ATOM     17  C   UNL     1       2.664  -0.182  -0.280  0.00  0.00    +0.169 C 
BRANCH  17  18
ATOM     18  O   UNL     1       3.390   0.941   0.187  0.00  0.00    -0.379 OA
ATOM     19  H   UNL     1       4.304   0.891  -0.134  0.00  0.00    +0.211 HD
ENDBRANCH  17  18
ENDBRANCH   5  17
TORSDOF 6
