REMARK  Name = 16028
REMARK  12 active torsions:
REMARK  status: ('A' for Active; 'I' for Inactive)
REMARK    1  A    between atoms: N_1  and  C_2
REMARK    2  A    between atoms: N_1  and  C_6
REMARK    3  A    between atoms: N_1  and  C_10
REMARK    4  A    between atoms: N_1  and  C_14
REMARK    5  A    between atoms: C_2  and  C_3
REMARK    6  A    between atoms: C_3  and  C_4
REMARK    7  A    between atoms: C_6  and  C_7
REMARK    8  A    between atoms: C_7  and  C_8
REMARK    9  A    between atoms: C_10  and  C_11
REMARK   10  A    between atoms: C_11  and  C_12
REMARK   11  A    between atoms: C_14  and  C_15
REMARK   12  A    between atoms: C_15  and  C_16
REMARK                            x       y       z     vdW  Elec       q    Type
REMARK                         _______ _______ _______ _____ _____    ______ ____
ROOT
ATOM      1  N   UNL     1       0.007   0.040  -0.032  0.00  0.00    +0.390 N 
ENDROOT
BRANCH   1   2
ATOM      2  C   UNL     1       0.859  -1.089   0.566  0.00  0.00    -0.073 C 
BRANCH   2   3
ATOM      3  C   UNL     1       1.708  -0.527   1.696  0.00  0.00    -0.022 C 
BRANCH   3   4
ATOM      4  C   UNL     1       2.610  -1.606   2.294  0.00  0.00    -0.002 C 
ATOM      5  C   UNL     1       3.490  -1.048   3.401  0.00  0.00    -0.000 C 
ENDBRANCH   3   4
ENDBRANCH   2   3
ENDBRANCH   1   2
BRANCH   1   6
ATOM      6  C   UNL     1      -0.919   0.573   1.071  0.00  0.00    -0.073 C 
BRANCH   6   7
ATOM      7  C   UNL     1      -1.804   1.667   0.493  0.00  0.00    -0.022 C 
BRANCH   7   8
ATOM      8  C   UNL     1      -2.714   2.262   1.567  0.00  0.00    -0.002 C 
ATOM      9  C   UNL     1      -3.579   3.381   1.009  0.00  0.00    -0.000 C 
ENDBRANCH   7   8
ENDBRANCH   6   7
ENDBRANCH   1   6
BRANCH   1  10
ATOM     10  C   UNL     1      -0.870  -0.561  -1.140  0.00  0.00    -0.073 C 
BRANCH  10  11
ATOM     11  C   UNL     1      -1.733  -1.665  -0.548  0.00  0.00    -0.022 C 
BRANCH  11  12
ATOM     12  C   UNL     1      -2.592  -2.327  -1.625  0.00  0.00    -0.002 C 
ATOM     13  C   UNL     1      -3.434  -3.456  -1.052  0.00  0.00    -0.000 C 
ENDBRANCH  11  12
ENDBRANCH  10  11
ENDBRANCH   1  10
BRANCH   1  14
ATOM     14  C   UNL     1       0.867   1.122  -0.568  0.00  0.00    -0.073 C 
BRANCH  14  15
ATOM     15  C   UNL     1       1.766   0.553  -1.655  0.00  0.00    -0.022 C 
BRANCH  15  16
ATOM     16  C   UNL     1       2.705   1.624  -2.208  0.00  0.00    -0.002 C 
ATOM     17  C   UNL     1       3.634   1.058  -3.270  0.00  0.00    -0.000 C 
ENDBRANCH  15  16
ENDBRANCH  14  15
ENDBRANCH   1  14
TORSDOF 12
