REMARK  Name = 62528
REMARK  8 active torsions:
REMARK  status: ('A' for Active; 'I' for Inactive)
REMARK    1  A    between atoms: N_1  and  C_13
REMARK    2  A    between atoms: C_3  and  C_21
REMARK    3  A    between atoms: C_8  and  N_12
REMARK    4  A    between atoms: C_13  and  C_14
REMARK    5  A    between atoms: C_14  and  N_15
REMARK    6  A    between atoms: N_15  and  C_17
REMARK    7  A    between atoms: N_15  and  C_19
REMARK    8  A    between atoms: C_21  and  C_23
REMARK                            x       y       z     vdW  Elec       q    Type
REMARK                         _______ _______ _______ _____ _____    ______ ____
ROOT
ATOM      1  N   UNL     1       0.770  -0.388  -0.533  0.00  0.00    -0.266 N 
ATOM      2  N   UNL     1      -0.864   1.053  -0.093  0.00  0.00    -0.390 NA
ATOM      3  C   UNL     1      -0.574  -0.199  -0.370  0.00  0.00    +0.168 C 
ATOM      4  C   UNL     1       1.388   0.822  -0.348  0.00  0.00    +0.079 C 
ATOM      5  C   UNL     1       0.347   1.705  -0.075  0.00  0.00    +0.147 C 
ATOM      6  C   UNL     1       2.728   1.208  -0.395  0.00  0.00    -0.002 C 
ATOM      7  C   UNL     1       0.642   3.057   0.169  0.00  0.00    +0.053 C 
ATOM      8  C   UNL     1       1.980   3.468   0.127  0.00  0.00    +0.127 C 
ATOM      9  C   UNL     1       3.003   2.558  -0.150  0.00  0.00    +0.078 C 
ENDROOT
BRANCH   8  12
ATOM     10  O   UNL     1       3.501   5.190   0.323  0.00  0.00    -0.126 OA
ATOM     11  O   UNL     1       1.371   5.638   0.614  0.00  0.00    -0.126 OA
ATOM     12  N   UNL     1       2.300   4.832   0.366  0.00  0.00    +0.054 N 
ENDBRANCH   8  12
BRANCH   1  13
ATOM     13  C   UNL     1       1.426  -1.638  -0.843  0.00  0.00    +0.075 C 
BRANCH  13  14
ATOM     14  C   UNL     1       1.812  -2.407   0.417  0.00  0.00    -0.055 C 
BRANCH  14  15
ATOM     15  N   UNL     1       2.446  -3.670   0.060  0.00  0.00    +0.388 N 
ATOM     16  H   UNL     1       1.774  -4.224  -0.470  0.00  0.00    -0.080 HD
BRANCH  15  17
ATOM     17  C   UNL     1       3.623  -3.437  -0.780  0.00  0.00    -0.077 C 
ATOM     18  C   UNL     1       4.234  -4.760  -1.200  0.00  0.00    -0.025 C 
ENDBRANCH  15  17
BRANCH  15  19
ATOM     19  C   UNL     1       2.821  -4.417   1.262  0.00  0.00    -0.077 C 
ATOM     20  C   UNL     1       1.601  -4.656   2.130  0.00  0.00    -0.025 C 
ENDBRANCH  15  19
ENDBRANCH  14  15
ENDBRANCH  13  14
ENDBRANCH   1  13
BRANCH   3  21
ATOM     21  C   UNL     1      -1.546  -1.304  -0.502  0.00  0.00    +0.101 C 
BRANCH  21  23
ATOM     22 CL   UNL     1      -7.249   0.360   0.356  0.00  0.00    -0.082 Cl
ATOM     23  C   UNL     1      -2.993  -0.882  -0.285  0.00  0.00    -0.014 C 
ATOM     24  C   UNL     1      -3.734  -0.462  -1.369  0.00  0.00    -0.003 C 
ATOM     25  C   UNL     1      -3.517  -0.933   0.990  0.00  0.00    -0.003 C 
ATOM     26  C   UNL     1      -5.060  -0.075  -1.170  0.00  0.00    +0.011 C 
ATOM     27  C   UNL     1      -4.843  -0.547   1.190  0.00  0.00    +0.011 C 
ATOM     28  C   UNL     1      -5.614  -0.118   0.110  0.00  0.00    +0.058 C 
ENDBRANCH  21  23
ENDBRANCH   3  21
TORSDOF 8
