REMARK  Name = 6228
REMARK  0 active torsions:
REMARK  status: ('A' for Active; 'I' for Inactive)
REMARK                            x       y       z     vdW  Elec       q    Type
REMARK                         _______ _______ _______ _____ _____    ______ ____
ROOT
ATOM      1  O   UNL     1       1.897  -0.005   0.000  0.00  0.00    -0.265 OA
ATOM      2  N   UNL     1      -0.446  -0.012   0.000  0.00  0.00    -0.269 N 
ATOM      3  C   UNL     1      -0.621   1.431   0.000  0.00  0.00    +0.115 C 
ATOM      4  C   UNL     1      -1.646  -0.832   0.000  0.00  0.00    +0.115 C 
ATOM      5  C   UNL     1       0.816  -0.583   0.000  0.00  0.00    +0.303 C 
ENDROOT
TORSDOF 0
