REMARK  Name = 4612
REMARK  6 active torsions:
REMARK  status: ('A' for Active; 'I' for Inactive)
REMARK    1  A    between atoms: C_2  and  C_15
REMARK    2  A    between atoms: C_9  and  C_22
REMARK    3  A    between atoms: C_10  and  N_14
REMARK    4  A    between atoms: C_15  and  N_16
REMARK    5  A    between atoms: N_16  and  C_19
REMARK    6  A    between atoms: C_22  and  O_23
REMARK                            x       y       z     vdW  Elec       q    Type
REMARK                         _______ _______ _______ _____ _____    ______ ____
ROOT
ATOM      1  N   UNL     1      -0.781  -1.486  -0.889  0.00  0.00    -0.336 N 
ATOM      2  C   UNL     1      -2.073  -0.881  -1.179  0.00  0.00    +0.048 C 
ATOM      3  C   UNL     1      -1.886   0.471  -1.874  0.00  0.00    +0.022 C 
ATOM      4  C   UNL     1      -0.970   1.402  -1.081  0.00  0.00    +0.029 C 
ATOM      5  C   UNL     1       0.294   0.695  -0.659  0.00  0.00    -0.009 C 
ATOM      6  C   UNL     1       0.324  -0.711  -0.564  0.00  0.00    +0.042 C 
ATOM      7  C   UNL     1       1.427   1.447  -0.319  0.00  0.00    -0.003 C 
ATOM      8  C   UNL     1       1.518  -1.332  -0.167  0.00  0.00    +0.038 C 
ATOM      9  C   UNL     1       2.600   0.812   0.085  0.00  0.00    +0.029 C 
ATOM     10  C   UNL     1       2.647  -0.577   0.157  0.00  0.00    +0.142 C 
ATOM     11  H   UNL     1      -0.689  -2.466  -0.925  0.00  0.00    +0.147 HD
ENDROOT
BRANCH  10  14
ATOM     12  O   UNL     1       3.834  -2.502   0.605  0.00  0.00    -0.126 OA
ATOM     13  O   UNL     1       4.847  -0.569   0.846  0.00  0.00    -0.126 OA
ATOM     14  N   UNL     1       3.835  -1.249   0.556  0.00  0.00    +0.057 N 
ENDBRANCH  10  14
BRANCH   2  15
ATOM     15  C   UNL     1      -2.897  -0.786   0.104  0.00  0.00    -0.062 C 
BRANCH  15  16
ATOM     16  N   UNL     1      -4.236  -0.287  -0.172  0.00  0.00    +0.386 N 
ATOM     17  H   UNL     1      -4.703  -0.927  -0.815  0.00  0.00    -0.084 HD
ATOM     18  H   UNL     1      -4.158   0.642  -0.586  0.00  0.00    -0.084 HD
BRANCH  16  19
ATOM     19  C   UNL     1      -5.019  -0.185   1.052  0.00  0.00    -0.062 C 
ATOM     20  C   UNL     1      -6.414   0.350   0.745  0.00  0.00    -0.023 C 
ATOM     21  C   UNL     1      -4.292   0.716   2.046  0.00  0.00    -0.023 C 
ENDBRANCH  16  19
ENDBRANCH  15  16
ENDBRANCH   2  15
BRANCH   9  22
ATOM     22  C   UNL     1       3.786   1.651   0.435  0.00  0.00    +0.165 C 
BRANCH  22  23
ATOM     23  O   UNL     1       3.454   3.023   0.274  0.00  0.00    -0.377 OA
ATOM     24  H   UNL     1       4.223   3.570   0.501  0.00  0.00    +0.211 HD
ENDBRANCH  22  23
ENDBRANCH   9  22
TORSDOF 6
