REMARK  Name = 5284516
REMARK  4 active torsions:
REMARK  status: ('A' for Active; 'I' for Inactive)
REMARK    1  A    between atoms: C_2  and  C_10
REMARK    2  A    between atoms: C_2  and  O_16
REMARK    3  A    between atoms: O_16  and  C_18
REMARK    4  A    between atoms: C_18  and  C_19
REMARK                            x       y       z     vdW  Elec       q    Type
REMARK                         _______ _______ _______ _____ _____    ______ ____
ROOT
ATOM      1  N   UNL     1      -3.253  -0.726  -0.328  0.00  0.00    +0.386 N 
ATOM      2  C   UNL     1      -0.345  -0.315   0.091  0.00  0.00    +0.150 C 
ATOM      3  C   UNL     1      -1.184  -1.322   0.941  0.00  0.00    +0.020 C 
ATOM      4  C   UNL     1      -1.046  -0.099  -1.271  0.00  0.00    +0.022 C 
ATOM      5  C   UNL     1      -2.662  -0.874   1.009  0.00  0.00    -0.074 C 
ATOM      6  C   UNL     1      -2.526   0.278  -1.114  0.00  0.00    -0.074 C 
ATOM      7  C   UNL     1      -1.089  -2.771   0.435  0.00  0.00    +0.002 C 
ATOM      8  C   UNL     1      -4.668  -0.370  -0.227  0.00  0.00    -0.101 C 
ATOM      9  H   UNL     1      -3.177  -1.622  -0.809  0.00  0.00    -0.080 HD
ENDROOT
BRANCH   2  10
ATOM     10  C   UNL     1       1.132  -0.697   0.003  0.00  0.00    +0.013 C 
ATOM     11  C   UNL     1       1.744  -0.826  -1.243  0.00  0.00    -0.001 C 
ATOM     12  C   UNL     1       1.865  -0.915   1.169  0.00  0.00    -0.001 C 
ATOM     13  C   UNL     1       3.092  -1.174  -1.323  0.00  0.00    -0.000 C 
ATOM     14  C   UNL     1       3.213  -1.264   1.088  0.00  0.00    -0.000 C 
ATOM     15  C   UNL     1       3.826  -1.393  -0.158  0.00  0.00    -0.000 C 
ENDBRANCH   2  10
BRANCH   2  16
ATOM     16  O   UNL     1      -0.373   0.978   0.732  0.00  0.00    -0.452 OA
BRANCH  16  18
ATOM     17  O   UNL     1       0.901   1.858  -0.978  0.00  0.00    -0.250 OA
ATOM     18  C   UNL     1       0.296   1.974   0.079  0.00  0.00    +0.317 C 
BRANCH  18  19
ATOM     19  C   UNL     1       0.171   3.252   0.875  0.00  0.00    +0.110 C 
ATOM     20  C   UNL     1       0.908   4.407   0.220  0.00  0.00    +0.012 C 
ENDBRANCH  18  19
ENDBRANCH  16  18
ENDBRANCH   2  16
TORSDOF 4
