REMARK  Name = 5583
REMARK  6 active torsions:
REMARK  status: ('A' for Active; 'I' for Inactive)
REMARK    1  A    between atoms: C_5  and  C_18
REMARK    2  A    between atoms: C_18  and  N_19
REMARK    3  A    between atoms: N_19  and  C_21
REMARK    4  A    between atoms: C_24  and  O_27
REMARK    5  A    between atoms: C_25  and  O_29
REMARK    6  A    between atoms: C_26  and  O_31
REMARK                            x       y       z     vdW  Elec       q    Type
REMARK                         _______ _______ _______ _____ _____    ______ ____
ROOT
ATOM      1  N   UNL     1      -5.619  -0.333  -1.183  0.00  0.00    -0.332 NA
ATOM      2  N   UNL     1      -5.935  -0.343   1.206  0.00  0.00    -0.317 NA
ATOM      3  N   UNL     1      -4.191   0.118   2.669  0.00  0.00    -0.335 N 
ATOM      4  N   UNL     1      -7.715  -0.813  -0.243  0.00  0.00    -0.283 N 
ATOM      5  C   UNL     1      -1.598   0.651  -0.696  0.00  0.00    -0.010 C 
ATOM      6  C   UNL     1      -2.410   0.486   0.421  0.00  0.00    -0.032 C 
ATOM      7  C   UNL     1      -3.767   0.154   0.261  0.00  0.00    +0.139 C 
ATOM      8  C   UNL     1      -4.323  -0.016  -1.018  0.00  0.00    +0.134 C 
ATOM      9  C   UNL     1      -2.137   0.486  -1.967  0.00  0.00    -0.001 C 
ATOM     10  C   UNL     1      -3.487   0.156  -2.118  0.00  0.00    +0.029 C 
ATOM     11  C   UNL     1      -1.752   0.681   1.754  0.00  0.00    +0.027 C 
ATOM     12  C   UNL     1      -4.633  -0.025   1.335  0.00  0.00    +0.178 C 
ATOM     13  C   UNL     1      -6.355  -0.480  -0.062  0.00  0.00    +0.197 C 
ATOM     14  H   UNL     1      -4.821  -0.014   3.414  0.00  0.00    +0.144 HD
ATOM     15  H   UNL     1      -3.252   0.349   2.854  0.00  0.00    +0.144 HD
ATOM     16  H   UNL     1      -8.077  -0.926  -1.151  0.00  0.00    +0.156 HD
ATOM     17  H   UNL     1      -8.301  -0.933   0.539  0.00  0.00    +0.156 HD
ENDROOT
BRANCH   5  18
ATOM     18  C   UNL     1      -0.152   1.004  -0.572  0.00  0.00    +0.114 C 
BRANCH  18  19
ATOM     19  N   UNL     1       0.664  -0.187  -0.492  0.00  0.00    -0.329 N 
ATOM     20  H   UNL     1       0.218  -1.062  -0.557  0.00  0.00    +0.147 HD
BRANCH  19  21
ATOM     21  C   UNL     1       2.039  -0.165  -0.331  0.00  0.00    +0.051 C 
ATOM     22  C   UNL     1       2.779  -1.361  -0.261  0.00  0.00    +0.055 C 
ATOM     23  C   UNL     1       2.737   1.054  -0.233  0.00  0.00    +0.055 C 
ATOM     24  C   UNL     1       4.122   1.076  -0.070  0.00  0.00    +0.177 C 
ATOM     25  C   UNL     1       4.164  -1.340  -0.098  0.00  0.00    +0.177 C 
ATOM     26  C   UNL     1       4.835  -0.121  -0.003  0.00  0.00    +0.206 C 
BRANCH  24  27
ATOM     27  O   UNL     1       4.766   2.273   0.022  0.00  0.00    -0.468 OA
ATOM     28  C   UNL     1       4.925   2.825   1.327  0.00  0.00    +0.253 C 
ENDBRANCH  24  27
BRANCH  25  29
ATOM     29  O   UNL     1       4.849  -2.516  -0.034  0.00  0.00    -0.468 OA
ATOM     30  C   UNL     1       5.027  -3.093   1.258  0.00  0.00    +0.253 C 
ENDBRANCH  25  29
BRANCH  26  31
ATOM     31  O   UNL     1       6.190  -0.100   0.156  0.00  0.00    -0.465 OA
ATOM     32  C   UNL     1       6.980  -0.072  -1.030  0.00  0.00    +0.253 C 
ENDBRANCH  26  31
ENDBRANCH  19  21
ENDBRANCH  18  19
ENDBRANCH   5  18
TORSDOF 6
