REMARK  Name = 60919
REMARK  4 active torsions:
REMARK  status: ('A' for Active; 'I' for Inactive)
REMARK    1  A    between atoms: C_1  and  C_19
REMARK    2  A    between atoms: C_4  and  C_7
REMARK    3  A    between atoms: C_8  and  C_17
REMARK    4  A    between atoms: C_19  and  N_21
REMARK                            x       y       z     vdW  Elec       q    Type
REMARK                         _______ _______ _______ _____ _____    ______ ____
ROOT
ATOM      1  C   UNL     1       0.299  -1.913  -0.256  0.00  0.00    -0.002 C 
ATOM      2  C   UNL     1      -0.603  -1.957  -1.310  0.00  0.00    -0.003 C 
ATOM      3  C   UNL     1      -0.090  -1.468   1.000  0.00  0.00    -0.003 C 
ATOM      4  C   UNL     1      -2.323  -1.100   0.154  0.00  0.00    +0.001 C 
ATOM      5  C   UNL     1      -1.921  -1.549  -1.104  0.00  0.00    -0.000 C 
ATOM      6  C   UNL     1      -1.408  -1.060   1.206  0.00  0.00    -0.000 C 
ENDROOT
BRANCH   4   7
ATOM      7  C   UNL     1      -3.690  -0.677   0.368  0.00  0.00    +0.009 C 
ATOM      8  C   UNL     1      -4.089   0.648   0.175  0.00  0.00    +0.065 C 
ATOM      9  C   UNL     1      -4.626  -1.629   0.778  0.00  0.00    +0.001 C 
ATOM     10  C   UNL     1      -5.417   1.018   0.391  0.00  0.00    +0.010 C 
ATOM     11  C   UNL     1      -5.954  -1.259   0.994  0.00  0.00    +0.000 C 
ATOM     12  C   UNL     1      -6.349   0.065   0.801  0.00  0.00    +0.001 C 
BRANCH   8  17
ATOM     13  N   UNL     1      -2.450   2.403   0.604  0.00  0.00    -0.110 NA
ATOM     14  N   UNL     1      -2.934   1.938  -1.559  0.00  0.00    -0.087 NA
ATOM     15  N   UNL     1      -1.776   3.153  -0.281  0.00  0.00    -0.140 N 
ATOM     16  N   UNL     1      -2.032   2.911  -1.574  0.00  0.00    -0.022 NA
ATOM     17  C   UNL     1      -3.158   1.662  -0.246  0.00  0.00    +0.073 C 
ATOM     18  H   UNL     1      -1.132   3.841   0.003  0.00  0.00    +0.197 HD
ENDBRANCH   8  17
ENDBRANCH   4   7
BRANCH   1  19
ATOM     19  C   UNL     1       1.721  -2.354  -0.478  0.00  0.00    +0.127 C 
BRANCH  19  21
ATOM     20  O   UNL     1       2.121  -1.528  -3.170  0.00  0.00    -0.274 OA
ATOM     21  N   UNL     1       2.574  -1.248  -0.902  0.00  0.00    -0.232 N 
ATOM     22  N   UNL     1       3.163  -0.920   1.409  0.00  0.00    -0.332 NA
ATOM     23  N   UNL     1       4.425   1.007   2.106  0.00  0.00    -0.352 NA
ATOM     24  C   UNL     1       3.833   1.212  -1.617  0.00  0.00    +0.025 C 
ATOM     25  C   UNL     1       3.861   0.694  -0.218  0.00  0.00    +0.118 C 
ATOM     26  C   UNL     1       3.807   0.052  -2.593  0.00  0.00    +0.087 C 
ATOM     27  C   UNL     1       3.219  -0.489   0.125  0.00  0.00    +0.184 C 
ATOM     28  C   UNL     1       2.728  -0.959  -2.260  0.00  0.00    +0.231 C 
ATOM     29  C   UNL     1       4.440   1.407   0.820  0.00  0.00    +0.107 C 
ATOM     30  C   UNL     1       3.777  -0.148   2.327  0.00  0.00    +0.115 C 
ATOM     31  C   UNL     1       5.123   2.713   0.573  0.00  0.00    +0.063 C 
ATOM     32  C   UNL     1       3.728  -0.626   3.738  0.00  0.00    +0.143 C 
ENDBRANCH  19  21
ENDBRANCH   1  19
TORSDOF 4
