REMARK  Name = 1649
REMARK  1 active torsions:
REMARK  status: ('A' for Active; 'I' for Inactive)
REMARK    1  A    between atoms: C_6  and  N_14
REMARK                            x       y       z     vdW  Elec       q    Type
REMARK                         _______ _______ _______ _____ _____    ______ ____
ROOT
ATOM      1 BR   UNL     1       4.112   0.214   0.000  0.00  0.00    -0.029 Br
ATOM      2  N   UNL     1       1.644   1.728   0.000  0.00  0.00    -0.269 N 
ATOM      3  N   UNL     1       0.298   1.691   0.000  0.00  0.00    -0.170 NA
ATOM      4  C   UNL     1       1.214  -0.388   0.000  0.00  0.00    +0.044 A 
ATOM      5  C   UNL     1      -0.007   0.381   0.000  0.00  0.00    +0.125 A 
ATOM      6  C   UNL     1      -1.258  -0.264   0.000  0.00  0.00    +0.162 C 
ATOM      7  C   UNL     1       1.338  -1.771   0.000  0.00  0.00    +0.004 C 
ATOM      8  C   UNL     1       2.249   0.504   0.000  0.00  0.00    +0.109 A 
ATOM      9  C   UNL     1      -1.166  -1.673   0.000  0.00  0.00    +0.026 C 
ATOM     10  C   UNL     1       0.072  -2.389   0.000  0.00  0.00    +0.002 C 
ATOM     11  H   UNL     1       2.152   2.571   0.000  0.00  0.00    +0.190 HD
ENDROOT
BRANCH   6  14
ATOM     12  O   UNL     1      -3.563  -0.189   0.000  0.00  0.00    -0.126 OA
ATOM     13  O   UNL     1      -2.456   1.707   0.000  0.00  0.00    -0.126 OA
ATOM     14  N   UNL     1      -2.477   0.448   0.000  0.00  0.00    +0.059 N 
ENDBRANCH   6  14
TORSDOF 1
