REMARK  Name = 444
REMARK  4 active torsions:
REMARK  status: ('A' for Active; 'I' for Inactive)
REMARK    1  A    between atoms: C_1  and  N_3
REMARK    2  A    between atoms: C_1  and  C_11
REMARK    3  A    between atoms: N_3  and  C_6
REMARK    4  A    between atoms: C_11  and  C_13
REMARK                            x       y       z     vdW  Elec       q    Type
REMARK                         _______ _______ _______ _____ _____    ______ ____
ROOT
ATOM      1  C   UNL     1       1.137  -0.463  -0.402  0.00  0.00    +0.002 C 
ATOM      2  C   UNL     1       1.869  -1.351  -1.401  0.00  0.00    -0.016 C 
ENDROOT
BRANCH   1   3
ATOM      3  N   UNL     1       2.039  -0.099   0.678  0.00  0.00    +0.392 N 
ATOM      4  H   UNL     1       1.541   0.488   1.347  0.00  0.00    -0.084 HD
ATOM      5  H   UNL     1       2.369  -0.950   1.132  0.00  0.00    -0.084 HD
BRANCH   3   6
ATOM      6  C   UNL     1       3.195   0.638   0.158  0.00  0.00    -0.045 C 
ATOM      7  C   UNL     1       3.690   1.601   1.243  0.00  0.00    -0.021 C 
ATOM      8  C   UNL     1       4.297  -0.367  -0.195  0.00  0.00    -0.021 C 
ATOM      9  C   UNL     1       2.778   1.423  -1.092  0.00  0.00    -0.021 C 
ENDBRANCH   3   6
ENDBRANCH   1   3
BRANCH   1  11
ATOM     10  O   UNL     1       0.119  -2.296   0.791  0.00  0.00    -0.294 OA
ATOM     11  C   UNL     1      -0.034  -1.218   0.217  0.00  0.00    +0.153 C 
BRANCH  11  13
ATOM     12 CL   UNL     1      -3.077   2.947  -0.111  0.00  0.00    -0.082 Cl
ATOM     13  C   UNL     1      -1.411  -0.652   0.114  0.00  0.00    +0.033 C 
ATOM     14  C   UNL     1      -1.560   0.715   0.059  0.00  0.00    +0.014 C 
ATOM     15  C   UNL     1      -2.478  -1.520   0.078  0.00  0.00    +0.003 C 
ATOM     16  C   UNL     1      -2.848   1.243  -0.039  0.00  0.00    +0.058 C 
ATOM     17  C   UNL     1      -3.766  -0.992  -0.019  0.00  0.00    +0.001 C 
ATOM     18  C   UNL     1      -3.950   0.390  -0.078  0.00  0.00    +0.011 C 
ENDBRANCH  11  13
ENDBRANCH   1  11
TORSDOF 4
