REMARK  Name = 5284543
REMARK  2 active torsions:
REMARK  status: ('A' for Active; 'I' for Inactive)
REMARK    1  A    between atoms: C_10  and  O_21
REMARK    2  A    between atoms: C_18  and  O_23
REMARK                            x       y       z     vdW  Elec       q    Type
REMARK                         _______ _______ _______ _____ _____    ______ ____
ROOT
ATOM      1  O   UNL     1       1.513   1.087   1.333  0.00  0.00    -0.474 OA
ATOM      2  N   UNL     1      -3.130  -1.088   0.460  0.00  0.00    +0.387 N 
ATOM      3  C   UNL     1      -0.773   0.598   0.706  0.00  0.00    +0.057 C 
ATOM      4  C   UNL     1      -1.931   0.916  -0.242  0.00  0.00    -0.011 C 
ATOM      5  C   UNL     1       0.214   1.724   1.066  0.00  0.00    +0.196 C 
ATOM      6  C   UNL     1      -2.511  -0.448  -0.727  0.00  0.00    -0.053 C 
ATOM      7  C   UNL     1      -1.359  -0.118   1.946  0.00  0.00    -0.015 C 
ATOM      8  C   UNL     1       0.215  -0.302   0.059  0.00  0.00    +0.013 C 
ATOM      9  C   UNL     1      -1.548   1.887  -1.360  0.00  0.00    +0.001 C 
ATOM     10  C   UNL     1       0.383   2.838  -0.001  0.00  0.00    +0.151 C 
ATOM     11  C   UNL     1      -1.447  -1.327  -1.474  0.00  0.00    +0.005 C 
ATOM     12  C   UNL     1      -0.910   3.147  -0.761  0.00  0.00    +0.033 C 
ATOM     13  C   UNL     1      -2.201  -1.351   1.565  0.00  0.00    -0.077 C 
ATOM     14  C   UNL     1      -0.056  -1.254  -0.904  0.00  0.00    -0.025 C 
ATOM     15  C   UNL     1       1.486  -0.031   0.528  0.00  0.00    +0.168 C 
ATOM     16  C   UNL     1      -3.925  -2.268   0.138  0.00  0.00    -0.101 C 
ATOM     17  C   UNL     1       1.022  -2.022  -1.343  0.00  0.00    -0.001 C 
ATOM     18  C   UNL     1       2.560  -0.788   0.120  0.00  0.00    +0.172 C 
ATOM     19  C   UNL     1       2.315  -1.802  -0.819  0.00  0.00    +0.040 C 
ATOM     20  H   UNL     1      -3.776  -0.376   0.803  0.00  0.00    -0.080 HD
ENDROOT
BRANCH  10  21
ATOM     21  O   UNL     1       1.408   2.539  -0.950  0.00  0.00    -0.381 OA
ATOM     22  H   UNL     1       2.234   2.341  -0.482  0.00  0.00    +0.210 HD
ENDBRANCH  10  21
BRANCH  18  23
ATOM     23  O   UNL     1       3.814  -0.547   0.572  0.00  0.00    -0.468 OA
ATOM     24  C   UNL     1       4.860  -1.392   0.086  0.00  0.00    +0.253 C 
ENDBRANCH  18  23
TORSDOF 2
