REMARK  Name = 10026
REMARK  5 active torsions:
REMARK  status: ('A' for Active; 'I' for Inactive)
REMARK    1  A    between atoms: C_1  and  C_2
REMARK    2  A    between atoms: C_1  and  C_5
REMARK    3  A    between atoms: C_2  and  C_3
REMARK    4  A    between atoms: C_5  and  O_6
REMARK    5  A    between atoms: O_6  and  N_8
REMARK                            x       y       z     vdW  Elec       q    Type
REMARK                         _______ _______ _______ _____ _____    ______ ____
ROOT
ATOM      1  C   UNL     1      -0.526   0.441   0.027  0.00  0.00    +0.034 C 
ENDROOT
BRANCH   1   2
ATOM      2  C   UNL     1      -1.817  -0.375   0.028  0.00  0.00    +0.003 C 
BRANCH   2   3
ATOM      3  C   UNL     1      -3.048   0.530  -0.004  0.00  0.00    +0.000 C 
ATOM      4  C   UNL     1      -4.334  -0.279  -0.037  0.00  0.00    +0.000 C 
ENDBRANCH   2   3
ENDBRANCH   1   2
BRANCH   1   5
ATOM      5  C   UNL     1       0.705  -0.454   0.017  0.00  0.00    +0.171 C 
BRANCH   5   6
ATOM      6  O   UNL     1       1.867   0.363   0.001  0.00  0.00    -0.240 OA
BRANCH   6   8
ATOM      7  O   UNL     1       4.138   0.250  -0.023  0.00  0.00    -0.070 OA
ATOM      8  N   UNL     1       3.016  -0.476  -0.008  0.00  0.00    +0.101 NA
ENDBRANCH   6   8
ENDBRANCH   5   6
ENDBRANCH   1   5
TORSDOF 5
