REMARK  Name = 3478
REMARK  7 active torsions:
REMARK  status: ('A' for Active; 'I' for Inactive)
REMARK    1  A    between atoms: C_1  and  S_7
REMARK    2  A    between atoms: C_2  and  C_22
REMARK    3  A    between atoms: S_7  and  N_12
REMARK    4  A    between atoms: N_11  and  C_16
REMARK    5  A    between atoms: C_22  and  C_23
REMARK    6  A    between atoms: C_23  and  N_25
REMARK    7  A    between atoms: C_26  and  C_30
REMARK                            x       y       z     vdW  Elec       q    Type
REMARK                         _______ _______ _______ _____ _____    ______ ____
ROOT
ATOM      1  C   UNL     1      -2.988   1.366  -0.334  0.00  0.00    +0.125 C 
ATOM      2  C   UNL     1      -1.340   3.515   0.333  0.00  0.00    -0.020 C 
ATOM      3  C   UNL     1      -3.168   2.034   0.877  0.00  0.00    +0.020 C 
ATOM      4  C   UNL     1      -1.984   1.772  -1.212  0.00  0.00    +0.020 C 
ATOM      5  C   UNL     1      -2.344   3.108   1.211  0.00  0.00    -0.003 C 
ATOM      6  C   UNL     1      -1.159   2.847  -0.878  0.00  0.00    -0.003 C 
ENDROOT
BRANCH   1   7
ATOM      7  S   UNL     1      -4.033   0.004  -0.757  0.00  0.00    +0.077 S 
ATOM      8  O   UNL     1      -4.056  -0.115  -2.202  0.00  0.00    -0.150 OA
ATOM      9  O   UNL     1      -5.266   0.175  -0.013  0.00  0.00    -0.150 OA
BRANCH   7  12
ATOM     10  O   UNL     1      -1.638  -1.651  -1.839  0.00  0.00    -0.251 OA
ATOM     11  N   UNL     1      -1.538  -2.991   0.042  0.00  0.00    -0.289 N 
ATOM     12  N   UNL     1      -3.152  -1.302  -0.095  0.00  0.00    -0.169 N 
ATOM     13  C   UNL     1      -2.057  -1.970  -0.730  0.00  0.00    +0.319 C 
ATOM     14  H   UNL     1      -1.946  -3.169   0.921  0.00  0.00    +0.151 HD
ATOM     15  H   UNL     1      -3.420  -1.622   0.797  0.00  0.00    +0.178 HD
BRANCH  11  16
ATOM     16  C   UNL     1      -0.424  -3.809  -0.381  0.00  0.00    +0.073 C 
ATOM     17  C   UNL     1      -0.543  -5.233   0.173  0.00  0.00    +0.020 C 
ATOM     18  C   UNL     1       0.911  -3.169   0.015  0.00  0.00    +0.020 C 
ATOM     19  C   UNL     1      -0.283  -5.298   1.678  0.00  0.00    +0.002 C 
ATOM     20  C   UNL     1       1.169  -3.237   1.520  0.00  0.00    +0.002 C 
ATOM     21  C   UNL     1       1.056  -4.665   2.046  0.00  0.00    +0.000 C 
ENDBRANCH  11  16
ENDBRANCH   7  12
ENDBRANCH   1   7
BRANCH   2  22
ATOM     22  C   UNL     1      -0.458   4.664   0.689  0.00  0.00    +0.048 C 
BRANCH  22  23
ATOM     23  C   UNL     1       0.805   4.252   1.456  0.00  0.00    +0.094 C 
BRANCH  23  25
ATOM     24  O   UNL     1       1.576   1.585   2.188  0.00  0.00    -0.269 OA
ATOM     25  N   UNL     1       1.639   3.360   0.696  0.00  0.00    -0.300 N 
ATOM     26  C   UNL     1       1.961   2.080   1.132  0.00  0.00    +0.261 C 
ATOM     27  H   UNL     1       1.997   3.669  -0.168  0.00  0.00    +0.150 HD
BRANCH  26  30
ATOM     28  N   UNL     1       3.264   1.897  -0.889  0.00  0.00    -0.262 NA
ATOM     29  N   UNL     1       4.054  -0.712  -0.227  0.00  0.00    -0.270 NA
ATOM     30  C   UNL     1       2.855   1.293   0.244  0.00  0.00    +0.132 C 
ATOM     31  C   UNL     1       3.243   0.012   0.570  0.00  0.00    +0.174 C 
ATOM     32  C   UNL     1       4.463  -0.109  -1.361  0.00  0.00    +0.057 C 
ATOM     33  C   UNL     1       4.075   1.173  -1.686  0.00  0.00    +0.166 C 
ATOM     34  C   UNL     1       5.361  -0.879  -2.265  0.00  0.00    +0.049 C 
ENDBRANCH  26  30
ENDBRANCH  23  25
ENDBRANCH  22  23
ENDBRANCH   2  22
TORSDOF 7
