REMARK  Name = 4747
REMARK  6 active torsions:
REMARK  status: ('A' for Active; 'I' for Inactive)
REMARK    1  A    between atoms: N_2  and  C_17
REMARK    2  A    between atoms: C_11  and  C_16
REMARK    3  A    between atoms: C_17  and  C_18
REMARK    4  A    between atoms: C_18  and  C_19
REMARK    5  A    between atoms: C_19  and  N_20
REMARK    6  A    between atoms: C_23  and  O_27
REMARK                            x       y       z     vdW  Elec       q    Type
REMARK                         _______ _______ _______ _____ _____    ______ ____
ROOT
ATOM      1  S   UNL     1      -4.505  -0.046   0.166  0.00  0.00    -0.084 S 
ATOM      2  N   UNL     1      -1.534   0.422  -0.622  0.00  0.00    -0.286 N 
ATOM      3  C   UNL     1      -1.883  -0.915  -0.303  0.00  0.00    +0.058 C 
ATOM      4  C   UNL     1      -2.248   1.573  -0.201  0.00  0.00    +0.058 C 
ATOM      5  C   UNL     1      -3.193  -1.249   0.092  0.00  0.00    +0.043 C 
ATOM      6  C   UNL     1      -3.594   1.485   0.203  0.00  0.00    +0.043 C 
ATOM      7  C   UNL     1      -0.935  -1.962  -0.330  0.00  0.00    +0.026 C 
ATOM      8  C   UNL     1      -1.640   2.845  -0.132  0.00  0.00    +0.015 C 
ATOM      9  C   UNL     1      -3.532  -2.576   0.415  0.00  0.00    +0.008 C 
ATOM     10  C   UNL     1      -4.295   2.628   0.627  0.00  0.00    +0.008 C 
ATOM     11  C   UNL     1      -1.276  -3.277  -0.003  0.00  0.00    +0.070 C 
ATOM     12  C   UNL     1      -2.339   3.978   0.294  0.00  0.00    +0.001 C 
ATOM     13  C   UNL     1      -2.576  -3.585   0.367  0.00  0.00    +0.011 C 
ATOM     14  C   UNL     1      -3.669   3.870   0.671  0.00  0.00    +0.001 C 
ENDROOT
BRANCH  11  16
ATOM     15  N   UNL     1       0.520  -5.143  -0.098  0.00  0.00    -0.191 NA
ATOM     16  C   UNL     1      -0.285  -4.306  -0.055  0.00  0.00    +0.100 C 
ENDBRANCH  11  16
BRANCH   2  17
ATOM     17  C   UNL     1      -0.301   0.634  -1.391  0.00  0.00    +0.093 C 
BRANCH  17  18
ATOM     18  C   UNL     1       0.893   0.776  -0.444  0.00  0.00    -0.001 C 
BRANCH  18  19
ATOM     19  C   UNL     1       2.212   1.017  -1.180  0.00  0.00    -0.076 C 
BRANCH  19  20
ATOM     20  N   UNL     1       3.341   1.131  -0.257  0.00  0.00    +0.387 N 
ATOM     21  C   UNL     1       3.475  -0.092   0.545  0.00  0.00    -0.075 C 
ATOM     22  C   UNL     1       4.579   1.423  -0.992  0.00  0.00    -0.075 C 
ATOM     23  C   UNL     1       5.938   0.419   0.906  0.00  0.00    +0.106 C 
ATOM     24  C   UNL     1       4.613   0.035   1.563  0.00  0.00    +0.006 C 
ATOM     25  C   UNL     1       5.760   1.609  -0.035  0.00  0.00    +0.006 C 
ATOM     26  H   UNL     1       3.164   1.907   0.382  0.00  0.00    -0.080 HD
BRANCH  23  27
ATOM     27  O   UNL     1       6.474  -0.694   0.195  0.00  0.00    -0.385 OA
ATOM     28  H   UNL     1       6.583  -1.443   0.801  0.00  0.00    +0.210 HD
ENDBRANCH  23  27
ENDBRANCH  19  20
ENDBRANCH  18  19
ENDBRANCH  17  18
ENDBRANCH   2  17
TORSDOF 6
