REMARK  Name = 439155
REMARK  11 active torsions:
REMARK  status: ('A' for Active; 'I' for Inactive)
REMARK    1  A    between atoms: C_2  and  O_18
REMARK    2  A    between atoms: C_3  and  O_20
REMARK    3  A    between atoms: C_4  and  C_22
REMARK    4  A    between atoms: C_5  and  N_6
REMARK    5  A    between atoms: C_22  and  S_23
REMARK    6  A    between atoms: S_23  and  C_24
REMARK    7  A    between atoms: C_24  and  C_25
REMARK    8  A    between atoms: C_25  and  C_26
REMARK    9  A    between atoms: C_26  and  N_27
REMARK   10  A    between atoms: C_26  and  C_32
REMARK   11  A    between atoms: C_32  and  O_33
REMARK                            x       y       z     vdW  Elec       q    Type
REMARK                         _______ _______ _______ _____ _____    ______ ____
ROOT
ATOM      1  O   UNK     1       0.002  -1.708   1.039  0.00  0.00    -0.335 OA
ATOM      2  C   UNK     1       0.056  -3.594  -0.413  0.00  0.00    +0.169 C 
ATOM      3  C   UNK     1      -0.839  -2.530  -1.017  0.00  0.00    +0.187 C 
ATOM      4  C   UNK     1       0.851  -2.802   0.620  0.00  0.00    +0.157 C 
ATOM      5  C   UNK     1      -1.171  -1.686   0.204  0.00  0.00    +0.225 C 
ENDROOT
BRANCH   5   6
ATOM      6  N   UNK     1      -1.529  -0.304  -0.107  0.00  0.00    -0.247 N 
ATOM      7  N   UNK     1      -1.351   1.762  -0.931  0.00  0.00    -0.242 NA
ATOM      8  N   UNK     1      -3.715  -0.145   0.939  0.00  0.00    -0.228 NA
ATOM      9  N   UNK     1      -4.685   2.074   0.638  0.00  0.00    -0.229 NA
ATOM     10  C   UNK     1      -2.680   0.346   0.242  0.00  0.00    +0.152 C 
ATOM     11  C   UNK     1      -0.763   0.590  -0.810  0.00  0.00    +0.223 C 
ATOM     12  C   UNK     1      -2.550   1.623  -0.279  0.00  0.00    +0.140 C 
ATOM     13  C   UNK     1      -3.605   2.502  -0.059  0.00  0.00    +0.143 C 
ATOM     14  C   UNK     1      -4.673   0.796   1.087  0.00  0.00    +0.253 C 
ATOM     15  N   UNK     1      -3.559   3.818  -0.553  0.00  0.00    -0.342 N 
ATOM     16  H   UNK     1      -4.312   4.431  -0.391  0.00  0.00    +0.144 HD
ATOM     17  H   UNK     1      -2.773   4.126  -1.060  0.00  0.00    +0.144 HD
ENDBRANCH   5   6
BRANCH   2  18
ATOM     18  O   UNK     1      -0.745  -4.561   0.265  0.00  0.00    -0.379 OA
ATOM     19  H   UNK     1      -1.255  -5.071  -0.384  0.00  0.00    +0.211 HD
ENDBRANCH   2  18
BRANCH   3  20
ATOM     20  O   UNK     1      -2.000  -3.062  -1.622  0.00  0.00    -0.378 OA
ATOM     21  H   UNK     1      -1.748  -3.592  -2.395  0.00  0.00    +0.211 HD
ENDBRANCH   3  20
BRANCH   4  22
ATOM     22  C   UNK     1       2.141  -2.221   0.059  0.00  0.00    +0.090 C 
BRANCH  22  23
ATOM     23  S   UNK     1       3.033  -1.306   1.343  0.00  0.00    -0.138 S 
BRANCH  23  24
ATOM     24  C   UNK     1       4.454  -0.779   0.357  0.00  0.00    +0.056 C 
BRANCH  24  25
ATOM     25  C   UNK     1       4.066   0.088  -0.844  0.00  0.00    +0.001 C 
BRANCH  25  26
ATOM     26  C   UNK     1       3.312   1.383  -0.509  0.00  0.00    +0.037 C 
BRANCH  26  27
ATOM     27  N   UNK     1       3.085   2.142  -1.743  0.00  0.00    +0.389 N 
ATOM     28  H   UNK     1       2.533   1.581  -2.391  0.00  0.00    -0.088 HD
ATOM     29  H   UNK     1       3.982   2.372  -2.170  0.00  0.00    -0.088 HD
ATOM     30  H   UNK     1       2.582   3.003  -1.525  0.00  0.00    -0.088 HD
ENDBRANCH  26  27
BRANCH  26  32
ATOM     31  O   UNK     1       5.272   2.664   0.167  0.00  0.00    -0.253 OA
ATOM     32  C   UNK     1       4.134   2.276   0.403  0.00  0.00    +0.293 C 
BRANCH  32  33
ATOM     33  O   UNK     1       3.456   2.634   1.524  0.00  0.00    -0.482 OA
ATOM     34  H   UNK     1       2.587   2.316   1.667  0.00  0.00    +0.295 HD
ENDBRANCH  32  33
ENDBRANCH  26  32
ENDBRANCH  25  26
ENDBRANCH  24  25
ENDBRANCH  23  24
ENDBRANCH  22  23
ENDBRANCH   4  22
TORSDOF 11
