REMARK  Name = 17754117
REMARK  8 active torsions:
REMARK  status: ('A' for Active; 'I' for Inactive)
REMARK    1  A    between atoms: C_2  and  C_20
REMARK    2  A    between atoms: C_5  and  N_10
REMARK    3  A    between atoms: C_7  and  O_8
REMARK    4  A    between atoms: N_10  and  N_12
REMARK    5  A    between atoms: C_20  and  CA_21
REMARK    6  A    between atoms: CA_21  and  N_22
REMARK    7  A    between atoms: CA_21  and  C_27
REMARK    8  A    between atoms: C_27  and  O_28
REMARK                            x       y       z     vdW  Elec       q    Type
REMARK                         _______ _______ _______ _____ _____    ______ ____
ROOT
ATOM      1  O   UNL     1       3.985  -1.778   0.500  0.00  0.00    -0.291 OA
ATOM      2  C   UNL     1       2.134  -0.578  -0.474  0.00  0.00    +0.084 C 
ATOM      3  C   UNL     1       0.664  -0.771  -0.721  0.00  0.00    +0.000 C 
ATOM      4  C   UNL     1       2.784  -1.767   0.228  0.00  0.00    +0.180 C 
ATOM      5  C   UNL     1      -0.041  -1.860  -0.365  0.00  0.00    +0.091 C 
ATOM      6  C   UNL     1       1.954  -2.939   0.594  0.00  0.00    +0.076 C 
ATOM      7  C   UNL     1       0.645  -2.953   0.309  0.00  0.00    +0.151 C 
ENDROOT
BRANCH   7   8
ATOM      8  O   UNL     1      -0.155  -4.031   0.641  0.00  0.00    -0.504 OA
ATOM      9  H   UNL     1      -1.068  -4.018   0.432  0.00  0.00    +0.292 HD
ENDBRANCH   7   8
BRANCH   5  10
ATOM     10  N   UNL     1      -1.382  -1.981  -0.618  0.00  0.00    -0.262 N 
ATOM     11  H   UNL     1      -1.823  -2.819  -0.348  0.00  0.00    +0.170 HD
BRANCH  10  12
ATOM     12  N   UNL     1      -2.139  -1.042  -1.208  0.00  0.00    -0.250 N 
ATOM     13  H   UNL     1      -2.115  -0.992  -2.191  0.00  0.00    +0.171 HD
ATOM     14  N   UNL     1      -3.620   0.810  -1.253  0.00  0.00    -0.228 NA
ATOM     15  C   UNL     1      -2.962  -0.126  -0.533  0.00  0.00    +0.144 C 
ATOM     16  C   UNL     1      -3.046  -0.245   0.845  0.00  0.00    +0.036 C 
ATOM     17  C   UNL     1      -3.858   0.654   1.528  0.00  0.00    +0.005 C 
ATOM     18  C   UNL     1      -4.399   1.667  -0.556  0.00  0.00    +0.100 C 
ATOM     19  C   UNL     1      -4.550   1.632   0.821  0.00  0.00    +0.021 C 
ENDBRANCH  10  12
ENDBRANCH   5  10
BRANCH   2  20
ATOM     20  C   UNL     1       2.378   0.691   0.339  0.00  0.00    +0.001 C 
BRANCH  20  21
ATOM     21  CA  UNL     1       2.301   1.957  -0.517  0.00  0.00    +0.036 C 
BRANCH  21  22
ATOM     22  N   UNL     1       3.554   2.155  -1.247  0.00  0.00    +0.389 N 
ATOM     23  H1  UNL     1       3.744   1.336  -1.824  0.00  0.00    -0.088 HD
ATOM     24  H2  UNL     1       4.316   2.288  -0.583  0.00  0.00    -0.088 HD
ATOM     25  H3  UNL     1       3.473   2.979  -1.842  0.00  0.00    -0.088 HD
ENDBRANCH  21  22
BRANCH  21  27
ATOM     26  OXT UNL     1       2.838   4.130   0.391  0.00  0.00    -0.253 OA
ATOM     27  C   UNL     1       2.054   3.191   0.326  0.00  0.00    +0.293 C 
BRANCH  27  28
ATOM     28  O   UNL     1       0.861   3.184   0.972  0.00  0.00    -0.482 OA
ATOM     29  H   UNL     1       0.290   2.444   0.895  0.00  0.00    +0.295 HD
ENDBRANCH  27  28
ENDBRANCH  21  27
ENDBRANCH  20  21
ENDBRANCH   2  20
TORSDOF 8
