REMARK  Name = 4829
REMARK  7 active torsions:
REMARK  status: ('A' for Active; 'I' for Inactive)
REMARK    1  A    between atoms: C_1  and  C_18
REMARK    2  A    between atoms: C_4  and  O_7
REMARK    3  A    between atoms: O_7  and  C_8
REMARK    4  A    between atoms: C_8  and  C_9
REMARK    5  A    between atoms: C_9  and  C_11
REMARK    6  A    between atoms: C_12  and  C_16
REMARK    7  A    between atoms: C_18  and  C_23
REMARK                            x       y       z     vdW  Elec       q    Type
REMARK                         _______ _______ _______ _____ _____    ______ ____
ROOT
ATOM      1  C   UNL     1      -1.874  -0.183   0.150  0.00  0.00    -0.021 C 
ATOM      2  C   UNL     1      -1.571   1.040   0.729  0.00  0.00    -0.001 C 
ATOM      3  C   UNL     1      -1.026  -0.768  -0.779  0.00  0.00    -0.001 C 
ATOM      4  C   UNL     1       0.470   1.118  -0.561  0.00  0.00    +0.139 C 
ATOM      5  C   UNL     1      -0.392   1.694   0.371  0.00  0.00    +0.037 C 
ATOM      6  C   UNL     1       0.153  -0.113  -1.136  0.00  0.00    +0.037 C 
ENDROOT
BRANCH   4   7
ATOM      7  O   UNL     1       1.620   1.756  -0.912  0.00  0.00    -0.475 OA
BRANCH   7   8
ATOM      8  C   UNL     1       2.229   2.585   0.076  0.00  0.00    +0.212 C 
BRANCH   8   9
ATOM      9  C   UNL     1       3.738   2.621  -0.140  0.00  0.00    +0.093 C 
BRANCH   9  11
ATOM     10  N   UNL     1       4.452   0.530  -1.130  0.00  0.00    -0.248 NA
ATOM     11  C   UNL     1       4.370   1.257  -0.002  0.00  0.00    +0.063 C 
ATOM     12  C   UNL     1       5.496  -1.202   0.194  0.00  0.00    -0.003 C 
ATOM     13  C   UNL     1       4.811   0.853   1.239  0.00  0.00    +0.015 C 
ATOM     14  C   UNL     1       5.387  -0.409   1.331  0.00  0.00    -0.002 C 
ATOM     15  C   UNL     1       5.017  -0.691  -1.002  0.00  0.00    +0.094 C 
BRANCH  12  16
ATOM     16  C   UNL     1       6.109  -2.556   0.259  0.00  0.00    +0.028 C 
ATOM     17  C   UNL     1       5.082  -3.649   0.553  0.00  0.00    +0.005 C 
ENDBRANCH  12  16
ENDBRANCH   9  11
ENDBRANCH   8   9
ENDBRANCH   7   8
ENDBRANCH   4   7
BRANCH   1  18
ATOM     18  C   UNL     1      -3.147  -0.891   0.537  0.00  0.00    +0.047 C 
BRANCH  18  23
ATOM     19  S   UNL     1      -5.029   1.087   0.177  0.00  0.00    -0.048 S 
ATOM     20  O   UNL     1      -5.293  -2.697  -0.531  0.00  0.00    -0.274 OA
ATOM     21  O   UNL     1      -7.599   1.100   0.731  0.00  0.00    -0.263 OA
ATOM     22  N   UNL     1      -6.619  -0.910   0.100  0.00  0.00    -0.246 N 
ATOM     23  C   UNL     1      -4.310  -0.496  -0.356  0.00  0.00    +0.137 C 
ATOM     24  C   UNL     1      -5.433  -1.505  -0.280  0.00  0.00    +0.239 C 
ATOM     25  C   UNL     1      -6.639   0.430   0.383  0.00  0.00    +0.279 C 
ATOM     26  H   UNL     1      -7.443  -1.444   0.167  0.00  0.00    +0.158 HD
ENDBRANCH  18  23
ENDBRANCH   1  18
TORSDOF 7
