REMARK  Name = 10007
REMARK  3 active torsions:
REMARK  status: ('A' for Active; 'I' for Inactive)
REMARK    1  A    between atoms: C_1  and  C_3
REMARK    2  A    between atoms: C_1  and  C_9
REMARK    3  A    between atoms: C_9  and  N_12
REMARK                            x       y       z     vdW  Elec       q    Type
REMARK                         _______ _______ _______ _____ _____    ______ ____
ROOT
ATOM      1  C   UNL     1       1.437  -0.002  -0.998  0.00  0.00    +0.006 C 
ENDROOT
BRANCH   1   3
ATOM      2 CL   UNL     1      -4.351   0.001   0.592  0.00  0.00    -0.082 Cl
ATOM      3  C   UNL     1      -0.021  -0.002  -0.596  0.00  0.00    -0.024 C 
ATOM      4  C   UNL     1      -0.674  -1.209  -0.415  0.00  0.00    -0.003 C 
ATOM      5  C   UNL     1      -0.674   1.207  -0.418  0.00  0.00    -0.003 C 
ATOM      6  C   UNL     1      -2.019  -1.208  -0.046  0.00  0.00    +0.011 C 
ATOM      7  C   UNL     1      -2.019   1.208  -0.049  0.00  0.00    +0.011 C 
ATOM      8  C   UNL     1      -2.691   0.000   0.138  0.00  0.00    +0.058 C 
ENDBRANCH   1   3
BRANCH   1   9
ATOM      9  C   UNL     1       2.470   0.000   0.160  0.00  0.00    -0.045 C 
ATOM     10  C   UNL     1       2.328   1.232   1.065  0.00  0.00    -0.022 C 
ATOM     11  C   UNL     1       2.399  -1.278   1.006  0.00  0.00    -0.022 C 
BRANCH   9  12
ATOM     12  N   UNL     1       3.815   0.052  -0.438  0.00  0.00    +0.383 N 
ATOM     13  H   UNL     1       3.901   0.892  -1.011  0.00  0.00    -0.089 HD
ATOM     14  H   UNL     1       3.961  -0.772  -1.020  0.00  0.00    -0.089 HD
ATOM     15  H   UNL     1       4.516   0.073   0.303  0.00  0.00    -0.089 HD
ENDBRANCH   9  12
ENDBRANCH   1   9
TORSDOF 3
