REMARK  Name = 4347
REMARK  5 active torsions:
REMARK  status: ('A' for Active; 'I' for Inactive)
REMARK    1  A    between atoms: C_1  and  C_9
REMARK    2  A    between atoms: C_2  and  S_18
REMARK    3  A    between atoms: N_8  and  C_11
REMARK    4  A    between atoms: C_11  and  C_12
REMARK    5  A    between atoms: S_18  and  N_21
REMARK                            x       y       z     vdW  Elec       q    Type
REMARK                         _______ _______ _______ _____ _____    ______ ____
ROOT
ATOM      1  C   UNL     1       0.732  -0.752  -0.063  0.00  0.00    +0.053 C 
ATOM      2  C   UNL     1       3.359   0.176   0.065  0.00  0.00    +0.122 C 
ATOM      3  C   UNL     1       1.421  -0.774   1.150  0.00  0.00    +0.006 C 
ATOM      4  C   UNL     1       1.356  -0.267  -1.211  0.00  0.00    +0.006 C 
ATOM      5  C   UNL     1       2.735  -0.309   1.213  0.00  0.00    +0.020 C 
ATOM      6  C   UNL     1       2.670   0.198  -1.148  0.00  0.00    +0.020 C 
ENDROOT
BRANCH   1   9
ATOM      7  O   UNL     1      -1.050  -2.080   0.688  0.00  0.00    -0.270 OA
ATOM      8  N   UNL     1      -1.456  -0.694  -1.127  0.00  0.00    -0.297 N 
ATOM      9  C   UNL     1      -0.638  -1.237  -0.129  0.00  0.00    +0.246 C 
ATOM     10  H   UNL     1      -1.065  -0.031  -1.740  0.00  0.00    +0.150 HD
BRANCH   8  11
ATOM     11  C   UNL     1      -2.844  -1.056  -1.306  0.00  0.00    +0.117 C 
BRANCH  11  12
ATOM     12  C   UNL     1      -3.762  -0.173  -0.510  0.00  0.00    -0.003 C 
ATOM     13  C   UNL     1      -4.105  -0.531   0.788  0.00  0.00    -0.003 C 
ATOM     14  C   UNL     1      -4.260   0.993  -1.080  0.00  0.00    -0.003 C 
ATOM     15  C   UNL     1      -4.957   0.289   1.528  0.00  0.00    -0.000 C 
ATOM     16  C   UNL     1      -5.112   1.813  -0.341  0.00  0.00    -0.000 C 
ATOM     17  C   UNL     1      -5.461   1.460   0.963  0.00  0.00    -0.000 C 
ENDBRANCH  11  12
ENDBRANCH   8  11
ENDBRANCH   1   9
BRANCH   2  18
ATOM     18  S   UNL     1       5.004   0.757   0.144  0.00  0.00    +0.057 S 
ATOM     19  O   UNL     1       5.213   1.697  -0.949  0.00  0.00    -0.153 OA
ATOM     20  O   UNL     1       5.284   1.167   1.514  0.00  0.00    -0.153 OA
BRANCH  18  21
ATOM     21  N   UNL     1       5.872  -0.677  -0.188  0.00  0.00    -0.203 NA
ATOM     22  H   UNL     1       6.873  -0.479  -0.173  0.00  0.00    +0.144 HD
ATOM     23  H   UNL     1       5.608  -1.028  -1.108  0.00  0.00    +0.144 HD
ENDBRANCH  18  21
ENDBRANCH   2  18
TORSDOF 5
