REMARK  Name = 3463
REMARK  7 active torsions:
REMARK  status: ('A' for Active; 'I' for Inactive)
REMARK    1  A    between atoms: C_1  and  O_2
REMARK    2  A    between atoms: C_1  and  C_11
REMARK    3  A    between atoms: O_2  and  C_3
REMARK    4  A    between atoms: C_11  and  C_12
REMARK    5  A    between atoms: C_12  and  C_13
REMARK    6  A    between atoms: C_13  and  C_17
REMARK    7  A    between atoms: C_17  and  O_18
REMARK                            x       y       z     vdW  Elec       q    Type
REMARK                         _______ _______ _______ _____ _____    ______ ____
ROOT
ATOM      1  C   UNL     1      -0.116   1.431   0.628  0.00  0.00    +0.205 C 
ENDROOT
BRANCH   1   2
ATOM      2  O   UNL     1      -0.663   0.144   0.884  0.00  0.00    -0.476 OA
BRANCH   2   3
ATOM      3  C   UNL     1      -1.931  -0.091   0.420  0.00  0.00    +0.134 C 
ATOM      4  C   UNL     1      -2.320  -1.374   0.050  0.00  0.00    +0.012 C 
ATOM      5  C   UNL     1      -2.822   0.973   0.327  0.00  0.00    +0.032 C 
ATOM      6  C   UNL     1      -4.117   0.751  -0.143  0.00  0.00    -0.019 C 
ATOM      7  C   UNL     1      -3.615  -1.595  -0.420  0.00  0.00    -0.002 C 
ATOM      8  C   UNL     1      -4.513  -0.533  -0.516  0.00  0.00    -0.004 C 
ATOM      9  C   UNL     1      -1.371  -2.523   0.145  0.00  0.00    +0.034 C 
ATOM     10  C   UNL     1      -5.078   1.887  -0.246  0.00  0.00    +0.031 C 
ENDBRANCH   2   3
ENDBRANCH   1   2
BRANCH   1  11
ATOM     11  C   UNL     1       1.403   1.336   0.522  0.00  0.00    +0.048 C 
BRANCH  11  12
ATOM     12  C   UNL     1       1.825   0.383  -0.601  0.00  0.00    +0.014 C 
BRANCH  12  13
ATOM     13  C   UNL     1       3.355   0.181  -0.747  0.00  0.00    +0.090 C 
ATOM     14  C   UNL     1       4.038   1.510  -1.125  0.00  0.00    +0.011 C 
ATOM     15  C   UNL     1       3.636  -0.825  -1.879  0.00  0.00    +0.011 C 
BRANCH  13  17
ATOM     16  O   UNL     1       4.871   0.214   1.171  0.00  0.00    -0.250 OA
ATOM     17  C   UNL     1       3.976  -0.349   0.553  0.00  0.00    +0.313 C 
BRANCH  17  18
ATOM     18  O   UNL     1       3.443  -1.524   0.976  0.00  0.00    -0.480 OA
ATOM     19  H   UNL     1       2.759  -1.933   0.484  0.00  0.00    +0.295 HD
ENDBRANCH  17  18
ENDBRANCH  13  17
ENDBRANCH  12  13
ENDBRANCH  11  12
ENDBRANCH   1  11
TORSDOF 7
