REMARK  Name = 5359421
REMARK  2 active torsions:
REMARK  status: ('A' for Active; 'I' for Inactive)
REMARK    1  A    between atoms: C_10  and  O_21
REMARK    2  A    between atoms: C_18  and  O_23
REMARK                            x       y       z     vdW  Elec       q    Type
REMARK                         _______ _______ _______ _____ _____    ______ ____
ROOT
ATOM      1  O   UNL     1       1.927   0.593   1.345  0.00  0.00    -0.474 OA
ATOM      2  N   UNL     1      -3.091  -0.439   0.448  0.00  0.00    +0.387 N 
ATOM      3  C   UNL     1      -0.406   0.649   0.703  0.00  0.00    +0.057 C 
ATOM      4  C   UNL     1      -1.452   1.222  -0.256  0.00  0.00    -0.011 C 
ATOM      5  C   UNL     1       0.815   1.515   1.064  0.00  0.00    +0.196 C 
ATOM      6  C   UNL     1      -2.332   0.029  -0.738  0.00  0.00    -0.053 C 
ATOM      7  C   UNL     1      -1.152   0.099   1.942  0.00  0.00    -0.015 C 
ATOM      8  C   UNL     1       0.347  -0.462   0.069  0.00  0.00    +0.013 C 
ATOM      9  C   UNL     1      -0.844   2.069  -1.376  0.00  0.00    +0.001 C 
ATOM     10  C   UNL     1       1.247   2.551  -0.007  0.00  0.00    +0.151 C 
ATOM     11  C   UNL     1      -1.499  -1.080  -1.471  0.00  0.00    +0.005 C 
ATOM     12  C   UNL     1       0.067   3.148  -0.778  0.00  0.00    +0.033 C 
ATOM     13  C   UNL     1      -2.256  -0.905   1.561  0.00  0.00    -0.077 C 
ATOM     14  C   UNL     1      -0.133  -1.331  -0.891  0.00  0.00    -0.025 C 
ATOM     15  C   UNL     1       1.643  -0.493   0.546  0.00  0.00    +0.168 C 
ATOM     16  C   UNL     1      -4.139  -1.403   0.126  0.00  0.00    -0.101 C 
ATOM     17  C   UNL     1       0.738  -2.333  -1.318  0.00  0.00    -0.001 C 
ATOM     18  C   UNL     1       2.513  -1.484   0.151  0.00  0.00    +0.167 C 
ATOM     19  C   UNL     1       2.043  -2.418  -0.785  0.00  0.00    +0.039 C 
ATOM     20  H   UNL     1      -3.554   0.406   0.781  0.00  0.00    -0.080 HD
ENDROOT
BRANCH  10  21
ATOM     21  O   UNL     1       2.179   2.013  -0.946  0.00  0.00    -0.381 OA
ATOM     22  H   UNL     1       2.933   1.631  -0.471  0.00  0.00    +0.210 HD
ENDBRANCH  10  21
BRANCH  18  23
ATOM     23  O   UNL     1       3.786  -1.540   0.611  0.00  0.00    -0.503 OA
ATOM     24  H   UNL     1       4.086  -0.909   1.236  0.00  0.00    +0.292 HD
ENDBRANCH  18  23
TORSDOF 2
