REMARK  Name = 8515
REMARK  0 active torsions:
REMARK  status: ('A' for Active; 'I' for Inactive)
REMARK                            x       y       z     vdW  Elec       q    Type
REMARK                         _______ _______ _______ _____ _____    ______ ____
ROOT
ATOM      1  O   UNL     1       0.447   2.888  -0.001  0.00  0.00    -0.287 OA
ATOM      2  N   UNL     1      -1.873  -2.304   0.000  0.00  0.00    -0.276 N 
ATOM      3  N   UNL     1      -0.522  -2.462   0.000  0.00  0.00    -0.173 NA
ATOM      4  C   UNL     1      -1.115  -0.285   0.000  0.00  0.00    +0.039 A 
ATOM      5  C   UNL     1      -0.065  -1.206  -0.001  0.00  0.00    +0.102 A 
ATOM      6  C   UNL     1      -1.076   1.101   0.000  0.00  0.00    +0.042 C 
ATOM      7  C   UNL     1       1.296  -0.701   0.000  0.00  0.00    +0.022 C 
ATOM      8  C   UNL     1      -2.289  -0.998   0.000  0.00  0.00    +0.075 A 
ATOM      9  C   UNL     1       1.475   0.715   0.000  0.00  0.00    +0.040 C 
ATOM     10  C   UNL     1       0.293   1.674   0.000  0.00  0.00    +0.196 C 
ATOM     11  C   UNL     1      -2.286   1.788   0.000  0.00  0.00    +0.003 C 
ATOM     12  C   UNL     1      -3.524  -0.352   0.001  0.00  0.00    +0.019 C 
ATOM     13  C   UNL     1       2.405  -1.548   0.000  0.00  0.00    +0.002 C 
ATOM     14  C   UNL     1       2.768   1.245   0.001  0.00  0.00    +0.003 C 
ATOM     15  C   UNL     1      -3.491   1.060   0.001  0.00  0.00    +0.002 C 
ATOM     16  C   UNL     1       3.688  -1.000   0.000  0.00  0.00    +0.000 C 
ATOM     17  C   UNL     1       3.868   0.386   0.001  0.00  0.00    +0.000 C 
ATOM     18  H   UNL     1      -2.499  -3.064   0.000  0.00  0.00    +0.189 HD
ENDROOT
TORSDOF 0
