REMARK  Name = 19527
REMARK  6 active torsions:
REMARK  status: ('A' for Active; 'I' for Inactive)
REMARK    1  A    between atoms: C_1  and  N_4
REMARK    2  A    between atoms: C_1  and  C_15
REMARK    3  A    between atoms: C_15  and  N_16
REMARK    4  A    between atoms: N_16  and  C_19
REMARK    5  A    between atoms: C_19  and  C_21
REMARK    6  A    between atoms: C_21  and  C_22
REMARK                            x       y       z     vdW  Elec       q    Type
REMARK                         _______ _______ _______ _____ _____    ______ ____
ROOT
ATOM      1  C   UNL     1      -0.613   0.884   1.427  0.00  0.00    +0.051 C 
ENDROOT
BRANCH   1   4
ATOM      2  O   UNL     1      -2.128  -1.741   1.140  0.00  0.00    -0.272 OA
ATOM      3  O   UNL     1      -6.244  -1.290  -1.067  0.00  0.00    -0.252 OA
ATOM      4  N   UNL     1      -1.837   1.209   0.735  0.00  0.00    -0.242 NA
ATOM      5  N   UNL     1      -4.949   0.619  -0.760  0.00  0.00    -0.228 N 
ATOM      6  N   UNL     1      -4.193  -1.540   0.037  0.00  0.00    -0.211 N 
ATOM      7  N   UNL     1      -3.375   2.452  -0.293  0.00  0.00    -0.240 NA
ATOM      8  C   UNL     1      -2.841   0.356   0.378  0.00  0.00    +0.192 C 
ATOM      9  C   UNL     1      -3.769   1.142  -0.249  0.00  0.00    +0.136 C 
ATOM     10  C   UNL     1      -2.204   2.459   0.309  0.00  0.00    +0.203 C 
ATOM     11  C   UNL     1      -2.973  -1.052   0.575  0.00  0.00    +0.254 C 
ATOM     12  C   UNL     1      -5.210  -0.769  -0.633  0.00  0.00    +0.318 C 
ATOM     13  C   UNL     1      -5.912   1.489  -1.422  0.00  0.00    +0.123 C 
ATOM     14  C   UNL     1      -4.443  -2.971   0.177  0.00  0.00    +0.124 C 
ENDBRANCH   1   4
BRANCH   1  15
ATOM     15  C   UNL     1       0.510   0.521   0.460  0.00  0.00    -0.064 C 
BRANCH  15  16
ATOM     16  N   UNL     1       1.732   0.226   1.197  0.00  0.00    +0.386 N 
ATOM     17  H   UNL     1       1.998   1.044   1.744  0.00  0.00    -0.084 HD
ATOM     18  H   UNL     1       1.559  -0.572   1.809  0.00  0.00    -0.084 HD
BRANCH  16  19
ATOM     19  C   UNL     1       2.819  -0.113   0.288  0.00  0.00    -0.058 C 
ATOM     20  C   UNL     1       2.409  -1.349  -0.512  0.00  0.00    -0.023 C 
BRANCH  19  21
ATOM     21  C   UNL     1       4.113  -0.334   1.092  0.00  0.00    +0.005 C 
BRANCH  21  22
ATOM     22  C   UNL     1       5.370  -0.176   0.271  0.00  0.00    -0.024 C 
ATOM     23  C   UNL     1       5.904  -1.282  -0.372  0.00  0.00    -0.004 C 
ATOM     24  C   UNL     1       5.966   1.071   0.174  0.00  0.00    -0.004 C 
ATOM     25  C   UNL     1       7.065  -1.137  -1.131  0.00  0.00    -0.000 C 
ATOM     26  C   UNL     1       7.127   1.216  -0.586  0.00  0.00    -0.000 C 
ATOM     27  C   UNL     1       7.677   0.112  -1.238  0.00  0.00    -0.000 C 
ENDBRANCH  21  22
ENDBRANCH  19  21
ENDBRANCH  16  19
ENDBRANCH  15  16
ENDBRANCH   1  15
TORSDOF 6
