REMARK  Name = 445237
REMARK  6 active torsions:
REMARK  status: ('A' for Active; 'I' for Inactive)
REMARK    1  A    between atoms: C_2  and  S_7
REMARK    2  A    between atoms: C_3  and  O_11
REMARK    3  A    between atoms: C_4  and  C_15
REMARK    4  A    between atoms: C_5  and  O_13
REMARK    5  A    between atoms: C_6  and  S_9
REMARK    6  A    between atoms: C_15  and  O_16
REMARK                            x       y       z     vdW  Elec       q    Type
REMARK                         _______ _______ _______ _____ _____    ______ ____
ROOT
ATOM      1  O   UNL     1       0.760   1.123  -0.588  0.00  0.00    -0.342 OA
ATOM      2  C   UNL     1       0.261  -1.238  -0.138  0.00  0.00    +0.103 C 
ATOM      3  C   UNL     1      -1.201  -0.867   0.157  0.00  0.00    +0.153 C 
ATOM      4  C   UNL     1       1.207  -0.049   0.114  0.00  0.00    +0.157 C 
ATOM      5  C   UNL     1      -1.570   0.436  -0.556  0.00  0.00    +0.175 C 
ATOM      6  C   UNL     1      -0.566   1.555  -0.268  0.00  0.00    +0.188 C 
ENDROOT
BRANCH   2   7
ATOM      7  S   UNL     1       0.734  -2.691   0.877  0.00  0.00    -0.164 S 
ATOM      8  H   UNL     1      -0.123  -3.716   0.627  0.00  0.00    +0.102 HD
ENDBRANCH   2   7
BRANCH   6   9
ATOM      9  S   UNL     1      -0.703   2.276   1.409  0.00  0.00    -0.137 S 
ATOM     10  H   UNL     1       0.229   3.256   1.560  0.00  0.00    +0.105 HD
ENDBRANCH   6   9
BRANCH   3  11
ATOM     11  O   UNL     1      -2.072  -1.901  -0.310  0.00  0.00    -0.381 OA
ATOM     12  H   UNL     1      -1.851  -2.735   0.133  0.00  0.00    +0.210 HD
ENDBRANCH   3  11
BRANCH   5  13
ATOM     13  O   UNL     1      -2.895   0.821  -0.205  0.00  0.00    -0.379 OA
ATOM     14  H   UNL     1      -3.505   0.093  -0.399  0.00  0.00    +0.211 HD
ENDBRANCH   5  13
BRANCH   4  15
ATOM     15  C   UNL     1       2.631  -0.308  -0.379  0.00  0.00    +0.168 C 
BRANCH  15  16
ATOM     16  O   UNL     1       3.412   0.842  -0.113  0.00  0.00    -0.379 OA
ATOM     17  H   UNL     1       4.321   0.693  -0.419  0.00  0.00    +0.211 HD
ENDBRANCH  15  16
ENDBRANCH   4  15
TORSDOF 6
