REMARK  Name = 49866822
REMARK  7 active torsions:
REMARK  status: ('A' for Active; 'I' for Inactive)
REMARK    1  A    between atoms: N_2  and  C_17
REMARK    2  A    between atoms: C_4  and  O_8
REMARK    3  A    between atoms: C_4  and  C_12
REMARK    4  A    between atoms: C_5  and  O_10
REMARK    5  A    between atoms: C_12  and  N_13
REMARK    6  A    between atoms: C_17  and  C_19
REMARK    7  A    between atoms: C_19  and  O_20
REMARK                            x       y       z     vdW  Elec       q    Type
REMARK                         _______ _______ _______ _____ _____    ______ ____
ROOT
ATOM      1  O   UNL     1      -2.320   2.327  -0.415  0.00  0.00    -0.271 OA
ATOM      2  N   UNL     1       0.219   0.157   0.450  0.00  0.00    -0.200 NA
ATOM      3  N   UNL     1      -1.861   0.005  -0.574  0.00  0.00    -0.272 N 
ATOM      4  C   UNL     1      -0.743  -0.833  -0.156  0.00  0.00    +0.183 C 
ATOM      5  C   UNL     1      -0.305   1.320   0.383  0.00  0.00    +0.255 C 
ATOM      6  C   UNL     1      -1.654   1.330  -0.256  0.00  0.00    +0.268 C 
ATOM      7  H   UNL     1      -2.666  -0.335  -1.028  0.00  0.00    +0.153 HD
ENDROOT
BRANCH   4   8
ATOM      8  O   UNL     1      -0.291  -1.569  -1.287  0.00  0.00    -0.360 OA
ATOM      9  H   UNL     1      -0.005  -0.954  -1.980  0.00  0.00    +0.213 HD
ENDBRANCH   4   8
BRANCH   5  10
ATOM     10  O   UNL     1       0.303   2.394   0.831  0.00  0.00    -0.363 OA
ATOM     11  H   UNL     1       1.151   2.323   1.223  0.00  0.00    +0.212 HD
ENDBRANCH   5  10
BRANCH   4  12
ATOM     12  C   UNL     1      -1.189  -1.816   0.923  0.00  0.00    -0.021 C 
BRANCH  12  13
ATOM     13  N   UNL     1      -2.233  -2.698   0.424  0.00  0.00    +0.384 N 
ATOM     14  H   UNL     1      -2.513  -3.344   1.162  0.00  0.00    -0.089 HD
ATOM     15  H   UNL     1      -1.879  -3.226  -0.374  0.00  0.00    -0.089 HD
ATOM     16  H   UNL     1      -3.037  -2.143   0.134  0.00  0.00    -0.089 HD
ENDBRANCH  12  13
ENDBRANCH   4  12
BRANCH   2  17
ATOM     17  C   UNL     1       1.542  -0.229   0.959  0.00  0.00    +0.188 C 
BRANCH  17  19
ATOM     18  O   UNL     1       2.227   0.225  -1.305  0.00  0.00    -0.249 OA
ATOM     19  C   UNL     1       2.524  -0.125  -0.169  0.00  0.00    +0.331 C 
BRANCH  19  20
ATOM     20  O   UNL     1       3.781  -0.487   0.191  0.00  0.00    -0.479 OA
ATOM     21  H   UNL     1       3.959  -0.748   1.073  0.00  0.00    +0.295 HD
ENDBRANCH  19  20
ENDBRANCH  17  19
ENDBRANCH   2  17
TORSDOF 7
