REMARK  Name = 26721
REMARK  6 active torsions:
REMARK  status: ('A' for Active; 'I' for Inactive)
REMARK    1  A    between atoms: C_6  and  O_23
REMARK    2  A    between atoms: C_9  and  C_27
REMARK    3  A    between atoms: C_20  and  O_25
REMARK    4  A    between atoms: C_27  and  O_29
REMARK    5  A    between atoms: C_27  and  C_31
REMARK    6  A    between atoms: C_31  and  C_32
REMARK                            x       y       z     vdW  Elec       q    Type
REMARK                         _______ _______ _______ _____ _____    ______ ____
ROOT
ATOM      1  O   UNL     1      -1.358  -1.894   1.104  0.00  0.00    -0.474 OA
ATOM      2  N   UNL     1      -0.461   3.272   0.236  0.00  0.00    +0.387 N 
ATOM      3  C   UNL     1      -0.697   0.429   0.686  0.00  0.00    +0.057 C 
ATOM      4  C   UNL     1       0.014   0.996  -0.577  0.00  0.00    -0.010 C 
ATOM      5  C   UNL     1      -0.211  -0.987   1.058  0.00  0.00    +0.194 C 
ATOM      6  C   UNL     1       0.881  -1.404   0.025  0.00  0.00    +0.132 C 
ATOM      7  C   UNL     1      -0.716   2.342  -0.889  0.00  0.00    -0.053 C 
ATOM      8  C   UNL     1       1.540   1.067  -0.277  0.00  0.00    +0.003 C 
ATOM      9  C   UNL     1       2.048  -0.356   0.157  0.00  0.00    +0.053 C 
ATOM     10  C   UNL     1      -0.650   1.406   1.876  0.00  0.00    -0.015 C 
ATOM     11  C   UNL     1      -2.093   0.121   0.292  0.00  0.00    +0.013 C 
ATOM     12  C   UNL     1      -0.068  -0.039  -1.714  0.00  0.00    +0.001 C 
ATOM     13  C   UNL     1      -2.258   2.125  -1.185  0.00  0.00    +0.005 C 
ATOM     14  C   UNL     1       0.341  -1.277  -1.387  0.00  0.00    +0.031 C 
ATOM     15  C   UNL     1      -1.067   2.835   1.498  0.00  0.00    -0.077 C 
ATOM     16  C   UNL     1      -2.883   0.915  -0.523  0.00  0.00    -0.025 C 
ATOM     17  C   UNL     1      -2.422  -1.175   0.619  0.00  0.00    +0.168 C 
ATOM     18  C   UNL     1      -0.806   4.657  -0.070  0.00  0.00    -0.101 C 
ATOM     19  C   UNL     1      -4.158   0.437  -0.825  0.00  0.00    -0.001 C 
ATOM     20  C   UNL     1      -3.672  -1.673   0.323  0.00  0.00    +0.167 C 
ATOM     21  C   UNL     1      -4.557  -0.840  -0.378  0.00  0.00    +0.039 C 
ATOM     22  H   UNL     1       0.549   3.244   0.370  0.00  0.00    -0.080 HD
ENDROOT
BRANCH   6  23
ATOM     23  O   UNL     1       1.341  -2.716   0.293  0.00  0.00    -0.352 OA
ATOM     24  C   UNL     1       0.301  -3.678   0.153  0.00  0.00    +0.174 C 
ENDBRANCH   6  23
BRANCH  20  25
ATOM     25  O   UNL     1      -4.026  -2.940   0.649  0.00  0.00    -0.503 OA
ATOM     26  H   UNL     1      -3.428  -3.488   1.117  0.00  0.00    +0.292 HD
ENDBRANCH  20  25
BRANCH   9  27
ATOM     27  C   UNL     1       3.312  -0.744  -0.619  0.00  0.00    +0.091 C 
ATOM     28  C   UNL     1       3.787  -2.132  -0.179  0.00  0.00    +0.029 C 
BRANCH  27  29
ATOM     29  O   UNL     1       2.986  -0.809  -2.008  0.00  0.00    -0.387 OA
ATOM     30  H   UNL     1       2.682   0.061  -2.310  0.00  0.00    +0.210 HD
ENDBRANCH  27  29
BRANCH  27  31
ATOM     31  C   UNL     1       4.451   0.278  -0.434  0.00  0.00    +0.027 C 
BRANCH  31  32
ATOM     32  C   UNL     1       4.962   0.410   1.006  0.00  0.00    +0.002 C 
ATOM     33  C   UNL     1       6.137   1.373   1.090  0.00  0.00    +0.000 C 
ENDBRANCH  31  32
ENDBRANCH  27  31
ENDBRANCH   9  27
TORSDOF 6
