REMARK  Name = 1628
REMARK  5 active torsions:
REMARK  status: ('A' for Active; 'I' for Inactive)
REMARK    1  A    between atoms: C_3  and  N_12
REMARK    2  A    between atoms: C_4  and  C_20
REMARK    3  A    between atoms: C_13  and  C_16
REMARK    4  A    between atoms: C_16  and  O_17
REMARK    5  A    between atoms: C_20  and  O_21
REMARK                            x       y       z     vdW  Elec       q    Type
REMARK                         _______ _______ _______ _____ _____    ______ ____
ROOT
ATOM      1  C   UNL     1      -1.836   0.936  -0.002  0.00  0.00    +0.001 C 
ATOM      2  C   UNL     1      -2.459  -0.334  -0.028  0.00  0.00    +0.000 C 
ATOM      3  C   UNL     1       0.343  -0.146  -0.007  0.00  0.00    +0.057 C 
ATOM      4  C   UNL     1      -0.270  -1.395  -0.032  0.00  0.00    +0.089 C 
ATOM      5  C   UNL     1      -0.433   1.013   0.008  0.00  0.00    +0.015 C 
ATOM      6  C   UNL     1      -1.662  -1.490  -0.042  0.00  0.00    +0.008 C 
ATOM      7  C   UNL     1      -2.633   2.092   0.012  0.00  0.00    +0.000 C 
ATOM      8  C   UNL     1      -3.861  -0.411  -0.038  0.00  0.00    +0.000 C 
ATOM      9  C   UNL     1      -4.025   1.997   0.002  0.00  0.00    +0.000 C 
ATOM     10  C   UNL     1      -4.638   0.748  -0.023  0.00  0.00    +0.000 C 
ENDROOT
BRANCH   3  12
ATOM     11  O   UNL     1       2.122   2.301   0.046  0.00  0.00    -0.263 OA
ATOM     12  N   UNL     1       1.736  -0.028   0.004  0.00  0.00    -0.275 N 
ATOM     13  C   UNL     1       2.493   1.139   0.028  0.00  0.00    +0.325 C 
ATOM     14  H   UNL     1       2.242  -0.873  -0.007  0.00  0.00    +0.155 HD
BRANCH  13  16
ATOM     15  O   UNL     1       4.450  -0.262   0.014  0.00  0.00    -0.240 OA
ATOM     16  C   UNL     1       3.983   0.859   0.033  0.00  0.00    +0.393 C 
BRANCH  16  17
ATOM     17  O   UNL     1       4.671   2.011   0.057  0.00  0.00    -0.474 OA
ATOM     18  H   UNL     1       4.214   2.830   0.070  0.00  0.00    +0.296 HD
ENDBRANCH  16  17
ENDBRANCH  13  16
ENDBRANCH   3  12
BRANCH   4  20
ATOM     19  O   UNL     1       1.635  -2.749  -0.546  0.00  0.00    -0.245 OA
ATOM     20  C   UNL     1       0.514  -2.625  -0.048  0.00  0.00    +0.339 C 
BRANCH  20  21
ATOM     21  O   UNL     1      -0.131  -3.656   0.561  0.00  0.00    -0.477 OA
ATOM     22  H   UNL     1      -0.983  -3.524   0.929  0.00  0.00    +0.295 HD
ENDBRANCH  20  21
ENDBRANCH   4  20
TORSDOF 5
