REMARK  Name = 192785
REMARK  8 active torsions:
REMARK  status: ('A' for Active; 'I' for Inactive)
REMARK    1  A    between atoms: C_2  and  O_17
REMARK    2  A    between atoms: C_3  and  O_19
REMARK    3  A    between atoms: C_4  and  C_21
REMARK    4  A    between atoms: C_5  and  N_7
REMARK    5  A    between atoms: C_21  and  O_22
REMARK    6  A    between atoms: O_22  and  P_23
REMARK    7  A    between atoms: P_23  and  O_25
REMARK    8  A    between atoms: P_23  and  O_27
REMARK                            x       y       z     vdW  Elec       q    Type
REMARK                         _______ _______ _______ _____ _____    ______ ____
ROOT
ATOM      1  O   UNL     1       0.449   1.136  -1.132  0.00  0.00    -0.332 OA
ATOM      2  C   UNL     1       0.901   2.818   0.473  0.00  0.00    +0.171 C 
ATOM      3  C   UNL     1      -0.420   2.162   0.819  0.00  0.00    +0.188 C 
ATOM      4  C   UNL     1       1.540   1.783  -0.443  0.00  0.00    +0.176 C 
ATOM      5  C   UNL     1      -0.788   1.486  -0.491  0.00  0.00    +0.236 C 
ENDROOT
BRANCH   5   7
ATOM      6  O   UNL     1      -3.600   1.354  -0.537  0.00  0.00    -0.193 OA
ATOM      7  N   UNL     1      -1.565   0.296  -0.294  0.00  0.00    -0.178 N 
ATOM      8  N   UNL     1      -3.662  -0.877  -0.134  0.00  0.00    -0.306 NA
ATOM      9  N   UNL     1      -3.767  -3.148   0.276  0.00  0.00    -0.332 N 
ATOM     10  C   UNL     1      -0.903  -0.899  -0.059  0.00  0.00    +0.079 C 
ATOM     11  C   UNL     1      -2.980   0.309  -0.332  0.00  0.00    +0.275 C 
ATOM     12  C   UNL     1      -1.532  -2.062   0.137  0.00  0.00    +0.038 C 
ATOM     13  C   UNL     1      -3.028  -2.001   0.087  0.00  0.00    +0.189 C 
ATOM     14  C   UNL     1      -0.831  -3.355   0.391  0.00  0.00    +0.037 C 
ATOM     15  H   UNL     1      -4.750  -3.111   0.244  0.00  0.00    +0.145 HD
ATOM     16  H   UNL     1      -3.312  -4.005   0.443  0.00  0.00    +0.145 HD
ENDBRANCH   5   7
BRANCH   2  17
ATOM     17  O   UNL     1       0.680   4.004  -0.289  0.00  0.00    -0.379 OA
ATOM     18  H   UNL     1       0.272   4.680   0.274  0.00  0.00    +0.211 HD
ENDBRANCH   2  17
BRANCH   3  19
ATOM     19  O   UNL     1      -1.390   3.100   1.238  0.00  0.00    -0.378 OA
ATOM     20  H   UNL     1      -1.110   3.502   2.075  0.00  0.00    +0.211 HD
ENDBRANCH   3  19
BRANCH   4  21
ATOM     21  C   UNL     1       2.325   0.716   0.310  0.00  0.00    +0.186 C 
BRANCH  21  22
ATOM     22  O   UNL     1       2.866  -0.196  -0.630  0.00  0.00    -0.271 OA
BRANCH  22  23
ATOM     23  P   UNL     1       3.751  -1.436  -0.082  0.00  0.00    +0.473 P 
ATOM     24  O   UNL     1       4.285  -2.352  -1.144  0.00  0.00    -0.227 OA
BRANCH  23  25
ATOM     25  O   UNL     1       2.793  -2.135   1.018  0.00  0.00    -0.303 OA
ATOM     26  H   UNL     1       2.498  -1.470   1.659  0.00  0.00    +0.222 HD
ENDBRANCH  23  25
BRANCH  23  27
ATOM     27  O   UNL     1       4.878  -0.705   0.819  0.00  0.00    -0.303 OA
ATOM     28  H   UNL     1       4.448  -0.135   1.476  0.00  0.00    +0.222 HD
ENDBRANCH  23  27
ENDBRANCH  22  23
ENDBRANCH  21  22
ENDBRANCH   4  21
TORSDOF 8
