REMARK  Name = 11885
REMARK  1 active torsions:
REMARK  status: ('A' for Active; 'I' for Inactive)
REMARK    1  A    between atoms: C_7  and  N_15
REMARK                            x       y       z     vdW  Elec       q    Type
REMARK                         _______ _______ _______ _____ _____    ______ ____
ROOT
ATOM      1  C   UNL     1       1.103   0.413   0.000  0.00  0.00    +0.013 C 
ATOM      2  C   UNL     1       0.966  -0.992   0.000  0.00  0.00    +0.001 C 
ATOM      3  C   UNL     1      -1.335   0.652   0.000  0.00  0.00    +0.000 C 
ATOM      4  C   UNL     1      -1.473  -0.753   0.000  0.00  0.00    +0.000 C 
ATOM      5  C   UNL     1      -0.049   1.217   0.000  0.00  0.00    +0.001 C 
ATOM      6  C   UNL     1      -0.320  -1.557   0.000  0.00  0.00    +0.000 C 
ATOM      7  C   UNL     1       2.390   0.978   0.000  0.00  0.00    +0.041 C 
ATOM      8  C   UNL     1       2.119  -1.795   0.000  0.00  0.00    +0.000 C 
ATOM      9  C   UNL     1      -2.488   1.455   0.000  0.00  0.00    +0.000 C 
ATOM     10  C   UNL     1      -2.759  -1.318   0.000  0.00  0.00    +0.000 C 
ATOM     11  C   UNL     1       3.524   0.166   0.000  0.00  0.00    +0.014 C 
ATOM     12  C   UNL     1       3.389  -1.219   0.000  0.00  0.00    +0.001 C 
ATOM     13  C   UNL     1      -3.758   0.879   0.000  0.00  0.00    +0.000 C 
ATOM     14  C   UNL     1      -3.894  -0.506   0.000  0.00  0.00    +0.000 C 
ENDROOT
BRANCH   7  15
ATOM     15  N   UNL     1       2.585   2.381   0.000  0.00  0.00    -0.357 N 
ATOM     16  H   UNL     1       1.809   2.986   0.000  0.00  0.00    +0.142 HD
ATOM     17  H   UNL     1       3.498   2.750   0.000  0.00  0.00    +0.142 HD
ENDBRANCH   7  15
TORSDOF 1
