REMARK  Name = 5359271
REMARK  3 active torsions:
REMARK  status: ('A' for Active; 'I' for Inactive)
REMARK    1  A    between atoms: C_12  and  O_21
REMARK    2  A    between atoms: C_18  and  O_23
REMARK    3  A    between atoms: O_23  and  C_24
REMARK                            x       y       z     vdW  Elec       q    Type
REMARK                         _______ _______ _______ _____ _____    ______ ____
ROOT
ATOM      1  O   UNL     1      -1.309  -1.218   1.036  0.00  0.00    -0.473 OA
ATOM      2  N   UNL     1       3.374   1.112   0.648  0.00  0.00    +0.387 N 
ATOM      3  C   UNL     1       1.020  -0.584   0.712  0.00  0.00    +0.061 C 
ATOM      4  C   UNL     1       2.208  -0.853  -0.224  0.00  0.00    +0.010 C 
ATOM      5  C   UNL     1       2.812   0.540  -0.599  0.00  0.00    -0.049 C 
ATOM      6  C   UNL     1       0.058  -1.758   1.009  0.00  0.00    +0.200 C 
ATOM      7  C   UNL     1       1.525   0.112   1.992  0.00  0.00    -0.015 C 
ATOM      8  C   UNL     1       0.048   0.295  -0.002  0.00  0.00    +0.014 C 
ATOM      9  C   UNL     1       1.787   1.462  -1.345  0.00  0.00    +0.006 C 
ATOM     10  C   UNL     1       2.377   1.357   1.694  0.00  0.00    -0.077 C 
ATOM     11  C   UNL     1       0.357   1.292  -0.910  0.00  0.00    -0.025 C 
ATOM     12  C   UNL     1       0.166  -2.943   0.014  0.00  0.00    +0.172 C 
ATOM     13  C   UNL     1       1.806  -1.702  -1.402  0.00  0.00    -0.030 C 
ATOM     14  C   UNL     1      -1.247  -0.082   0.274  0.00  0.00    +0.168 C 
ATOM     15  C   UNL     1       0.857  -2.643  -1.290  0.00  0.00    +0.002 C 
ATOM     16  C   UNL     1      -0.710   2.007  -1.458  0.00  0.00    -0.001 C 
ATOM     17  C   UNL     1       4.208   2.288   0.421  0.00  0.00    -0.101 C 
ATOM     18  C   UNL     1      -2.316   0.614  -0.248  0.00  0.00    +0.172 C 
ATOM     19  C   UNL     1      -2.036   1.681  -1.111  0.00  0.00    +0.040 C 
ATOM     20  H   UNL     1       3.987   0.377   1.001  0.00  0.00    -0.080 HD
ENDROOT
BRANCH  12  21
ATOM     21  O   UNL     1      -1.125  -3.497  -0.225  0.00  0.00    -0.377 OA
ATOM     22  H   UNL     1      -1.558  -3.685   0.623  0.00  0.00    +0.211 HD
ENDBRANCH  12  21
BRANCH  18  23
ATOM     23  O   UNL     1      -3.595   0.264   0.031  0.00  0.00    -0.472 OA
BRANCH  23  24
ATOM     24  C   UNL     1      -4.578   1.301   0.005  0.00  0.00    +0.206 C 
ATOM     25  C   UNL     1      -5.685   0.956   0.978  0.00  0.00    +0.051 C 
ENDBRANCH  23  24
ENDBRANCH  18  23
TORSDOF 3
