REMARK  Name = 4932
REMARK  12 active torsions:
REMARK  status: ('A' for Active; 'I' for Inactive)
REMARK    1  A    between atoms: C_1  and  C_8
REMARK    2  A    between atoms: C_2  and  O_17
REMARK    3  A    between atoms: C_8  and  C_9
REMARK    4  A    between atoms: C_9  and  C_10
REMARK    5  A    between atoms: C_10  and  C_11
REMARK    6  A    between atoms: O_17  and  C_18
REMARK    7  A    between atoms: C_18  and  C_19
REMARK    8  A    between atoms: C_19  and  O_20
REMARK    9  A    between atoms: C_19  and  C_22
REMARK   10  A    between atoms: C_22  and  N_23
REMARK   11  A    between atoms: N_23  and  C_26
REMARK   12  A    between atoms: C_26  and  C_27
REMARK                            x       y       z     vdW  Elec       q    Type
REMARK                         _______ _______ _______ _____ _____    ______ ____
ROOT
ATOM      1  C   UNL     1       1.424  -1.871   0.260  0.00  0.00    +0.069 C 
ATOM      2  C   UNL     1       2.702  -1.367   0.021  0.00  0.00    +0.141 C 
ATOM      3  C   UNL     1       1.125  -3.196  -0.061  0.00  0.00    +0.006 C 
ATOM      4  C   UNL     1       3.682  -2.187  -0.539  0.00  0.00    +0.037 C 
ATOM      5  C   UNL     1       2.105  -4.015  -0.621  0.00  0.00    +0.000 C 
ATOM      6  C   UNL     1       3.383  -3.511  -0.861  0.00  0.00    +0.003 C 
ENDROOT
BRANCH   1   8
ATOM      7  O   UNL     1       0.680  -0.108   1.626  0.00  0.00    -0.291 OA
ATOM      8  C   UNL     1       0.386  -1.032   0.843  0.00  0.00    +0.176 C 
BRANCH   8   9
ATOM      9  C   UNL     1      -1.091  -1.284   0.492  0.00  0.00    +0.074 C 
BRANCH   9  10
ATOM     10  C   UNL     1      -1.955  -0.023   0.560  0.00  0.00    +0.034 C 
BRANCH  10  11
ATOM     11  C   UNL     1      -3.394  -0.313   0.220  0.00  0.00    -0.022 C 
ATOM     12  C   UNL     1      -3.828  -0.226  -1.103  0.00  0.00    -0.004 C 
ATOM     13  C   UNL     1      -4.291  -0.669   1.226  0.00  0.00    -0.004 C 
ATOM     14  C   UNL     1      -5.160  -0.495  -1.419  0.00  0.00    -0.000 C 
ATOM     15  C   UNL     1      -5.623  -0.939   0.910  0.00  0.00    -0.000 C 
ATOM     16  C   UNL     1      -6.057  -0.852  -0.412  0.00  0.00    -0.000 C 
ENDBRANCH  10  11
ENDBRANCH   9  10
ENDBRANCH   8   9
ENDBRANCH   1   8
BRANCH   2  17
ATOM     17  O   UNL     1       3.014  -0.069   0.328  0.00  0.00    -0.473 OA
BRANCH  17  18
ATOM     18  C   UNL     1       3.439   0.759  -0.751  0.00  0.00    +0.232 C 
BRANCH  18  19
ATOM     19  C   UNL     1       3.721   2.161  -0.214  0.00  0.00    +0.133 C 
BRANCH  19  20
ATOM     20  O   UNL     1       4.731   2.067   0.794  0.00  0.00    -0.383 OA
ATOM     21  H   UNL     1       4.921   2.952   1.144  0.00  0.00    +0.210 HD
ENDBRANCH  19  20
BRANCH  19  22
ATOM     22  C   UNL     1       2.491   2.833   0.401  0.00  0.00    -0.048 C 
BRANCH  22  23
ATOM     23  N   UNL     1       1.391   2.937  -0.548  0.00  0.00    +0.385 N 
ATOM     24  H   UNL     1       1.155   2.004  -0.888  0.00  0.00    -0.084 HD
ATOM     25  H   UNL     1       1.684   3.534  -1.321  0.00  0.00    -0.084 HD
BRANCH  23  26
ATOM     26  C   UNL     1       0.217   3.528   0.078  0.00  0.00    -0.082 C 
BRANCH  26  27
ATOM     27  C   UNL     1      -0.930   3.619  -0.926  0.00  0.00    -0.023 C 
ATOM     28  C   UNL     1      -2.163   4.254  -0.302  0.00  0.00    -0.002 C 
ENDBRANCH  26  27
ENDBRANCH  23  26
ENDBRANCH  22  23
ENDBRANCH  19  22
ENDBRANCH  18  19
ENDBRANCH  17  18
ENDBRANCH   2  17
TORSDOF 12
