REMARK  Name = 9565
REMARK  6 active torsions:
REMARK  status: ('A' for Active; 'I' for Inactive)
REMARK    1  A    between atoms: N_1  and  S_9
REMARK    2  A    between atoms: C_5  and  O_18
REMARK    3  A    between atoms: S_9  and  C_12
REMARK    4  A    between atoms: O_18  and  C_19
REMARK    5  A    between atoms: C_19  and  C_20
REMARK    6  A    between atoms: C_20  and  O_21
REMARK                            x       y       z     vdW  Elec       q    Type
REMARK                         _______ _______ _______ _____ _____    ______ ____
ROOT
ATOM      1  N   UNL     1       2.083  -1.881   0.632  0.00  0.00    -0.158 N 
ATOM      2  N   UNL     1       0.098  -0.909   1.456  0.00  0.00    -0.199 NA
ATOM      3  N   UNL     1       0.140  -1.980  -0.702  0.00  0.00    -0.176 NA
ATOM      4  C   UNL     1       0.690  -1.572   0.452  0.00  0.00    +0.106 C 
ATOM      5  C   UNL     1      -1.899  -0.995   0.115  0.00  0.00    +0.161 C 
ATOM      6  C   UNL     1      -1.208  -0.634   1.254  0.00  0.00    +0.203 C 
ATOM      7  C   UNL     1      -1.167  -1.673  -0.838  0.00  0.00    +0.145 C 
ATOM      8  H   UNL     1       2.374  -2.524   1.318  0.00  0.00    +0.186 HD
ENDROOT
BRANCH   1   9
ATOM      9  S   UNL     1       3.227  -1.093  -0.387  0.00  0.00    +0.081 S 
ATOM     10  O   UNL     1       4.554  -1.289   0.186  0.00  0.00    -0.149 OA
ATOM     11  O   UNL     1       2.996  -1.484  -1.772  0.00  0.00    -0.149 OA
BRANCH   9  12
ATOM     12  C   UNL     1       2.812   0.593  -0.204  0.00  0.00    +0.126 C 
ATOM     13  C   UNL     1       3.413   1.355   0.798  0.00  0.00    +0.020 C 
ATOM     14  C   UNL     1       1.879   1.178  -1.061  0.00  0.00    +0.020 C 
ATOM     15  C   UNL     1       3.081   2.701   0.944  0.00  0.00    +0.001 C 
ATOM     16  C   UNL     1       1.547   2.525  -0.915  0.00  0.00    +0.001 C 
ATOM     17  C   UNL     1       2.148   3.287   0.088  0.00  0.00    +0.000 C 
ENDBRANCH   9  12
ENDBRANCH   1   9
BRANCH   5  18
ATOM     18  O   UNL     1      -3.207  -0.704  -0.055  0.00  0.00    -0.473 OA
BRANCH  18  19
ATOM     19  C   UNL     1      -3.868   0.003   1.000  0.00  0.00    +0.237 C 
BRANCH  19  20
ATOM     20  C   UNL     1      -5.311   0.249   0.602  0.00  0.00    +0.189 C 
BRANCH  20  21
ATOM     21  O   UNL     1      -5.338   1.040  -0.580  0.00  0.00    -0.347 OA
ATOM     22  C   UNL     1      -6.669   1.284  -1.012  0.00  0.00    +0.174 C 
ENDBRANCH  20  21
ENDBRANCH  19  20
ENDBRANCH  18  19
ENDBRANCH   5  18
TORSDOF 6
