REMARK  Name = 23576
REMARK  4 active torsions:
REMARK  status: ('A' for Active; 'I' for Inactive)
REMARK    1  A    between atoms: N_3  and  C_13
REMARK    2  A    between atoms: N_4  and  C_20
REMARK    3  A    between atoms: C_13  and  C_14
REMARK    4  A    between atoms: C_20  and  C_21
REMARK                            x       y       z     vdW  Elec       q    Type
REMARK                         _______ _______ _______ _____ _____    ______ ____
ROOT
ATOM      1  S   UNL     1      -0.520   3.793  -0.508  0.00  0.00    -0.177 S 
ATOM      2  O   UNL     1       0.333  -0.817  -2.421  0.00  0.00    -0.252 OA
ATOM      3  N   UNL     1      -1.154   0.058  -0.812  0.00  0.00    -0.259 N 
ATOM      4  N   UNL     1       0.960   0.851  -0.871  0.00  0.00    -0.259 N 
ATOM      5  C   UNL     1      -1.138   1.174   0.128  0.00  0.00    +0.105 C 
ATOM      6  C   UNL     1      -1.769   2.428  -0.510  0.00  0.00    +0.059 C 
ATOM      7  C   UNL     1       0.361   1.406   0.335  0.00  0.00    +0.106 C 
ATOM      8  C   UNL     1       0.590   2.877   0.603  0.00  0.00    +0.070 C 
ATOM      9  C   UNL     1      -2.983   2.950   0.258  0.00  0.00    +0.013 C 
ATOM     10  C   UNL     1      -1.427   4.725   0.780  0.00  0.00    +0.048 C 
ATOM     11  C   UNL     1      -2.445   3.787   1.406  0.00  0.00    +0.012 C 
ATOM     12  C   UNL     1       0.078  -0.063  -1.490  0.00  0.00    +0.308 C 
ENDROOT
BRANCH   3  13
ATOM     13  C   UNL     1      -2.354  -0.699  -1.099  0.00  0.00    +0.122 C 
BRANCH  13  14
ATOM     14  C   UNL     1      -2.415  -1.975  -0.303  0.00  0.00    -0.002 C 
ATOM     15  C   UNL     1      -1.865  -3.136  -0.828  0.00  0.00    -0.003 C 
ATOM     16  C   UNL     1      -3.022  -1.973   0.945  0.00  0.00    -0.003 C 
ATOM     17  C   UNL     1      -1.922  -4.318  -0.090  0.00  0.00    -0.000 C 
ATOM     18  C   UNL     1      -3.080  -3.155   1.683  0.00  0.00    -0.000 C 
ATOM     19  C   UNL     1      -2.530  -4.328   1.165  0.00  0.00    -0.000 C 
ENDBRANCH  13  14
ENDBRANCH   3  13
BRANCH   4  20
ATOM     20  C   UNL     1       2.370   0.974  -1.180  0.00  0.00    +0.122 C 
BRANCH  20  21
ATOM     21  C   UNL     1       3.213   0.070  -0.321  0.00  0.00    -0.002 C 
ATOM     22  C   UNL     1       3.701   0.539   0.891  0.00  0.00    -0.003 C 
ATOM     23  C   UNL     1       3.492  -1.219  -0.753  0.00  0.00    -0.003 C 
ATOM     24  C   UNL     1       4.483  -0.298   1.687  0.00  0.00    -0.000 C 
ATOM     25  C   UNL     1       4.274  -2.056   0.042  0.00  0.00    -0.000 C 
ATOM     26  C   UNL     1       4.769  -1.596   1.262  0.00  0.00    -0.000 C 
ENDBRANCH  20  21
ENDBRANCH   4  20
TORSDOF 4
