REMARK  Name = 2337
REMARK  4 active torsions:
REMARK  status: ('A' for Active; 'I' for Inactive)
REMARK    1  A    between atoms: C_1  and  C_11
REMARK    2  A    between atoms: C_4  and  N_7
REMARK    3  A    between atoms: C_11  and  O_12
REMARK    4  A    between atoms: O_12  and  C_13
REMARK                            x       y       z     vdW  Elec       q    Type
REMARK                         _______ _______ _______ _____ _____    ______ ____
ROOT
ATOM      1  C   UNL     1       0.108   0.362   0.001  0.00  0.00    +0.076 C 
ATOM      2  C   UNL     1       1.096   1.347   0.000  0.00  0.00    +0.008 C 
ATOM      3  C   UNL     1       0.467  -0.986   0.001  0.00  0.00    +0.008 C 
ATOM      4  C   UNL     1       2.802  -0.365   0.000  0.00  0.00    +0.042 C 
ATOM      5  C   UNL     1       2.443   0.983  -0.001  0.00  0.00    +0.014 C 
ATOM      6  C   UNL     1       1.814  -1.349   0.001  0.00  0.00    +0.014 C 
ENDROOT
BRANCH   4   7
ATOM      7  N   UNL     1       4.163  -0.732  -0.001  0.00  0.00    -0.357 N 
ATOM      8  H   UNL     1       4.861  -0.037  -0.002  0.00  0.00    +0.142 HD
ATOM      9  H   UNL     1       4.417  -1.683  -0.001  0.00  0.00    +0.142 HD
ENDBRANCH   4   7
BRANCH   1  11
ATOM     10  O   UNL     1      -1.706   1.909   0.000  0.00  0.00    -0.245 OA
ATOM     11  C   UNL     1      -1.296   0.741   0.001  0.00  0.00    +0.341 C 
BRANCH  11  12
ATOM     12  O   UNL     1      -2.113  -0.357   0.001  0.00  0.00    -0.445 OA
BRANCH  12  13
ATOM     13  C   UNL     1      -3.524  -0.113  -0.001  0.00  0.00    +0.209 C 
ATOM     14  C   UNL     1      -4.253  -1.440  -0.001  0.00  0.00    +0.051 C 
ENDBRANCH  12  13
ENDBRANCH  11  12
ENDBRANCH   1  11
TORSDOF 4
