23576
  -OEChem-10051719303D

 51 55  0     1  0  0  0  0  0999 V2000
   -0.5196    3.7933   -0.5078 S   0  3  2  0  0  0  0  0  0  0  0  0
    0.3328   -0.8170   -2.4207 O   0  0  0  0  0  0  0  0  0  0  0  0
   -1.1536    0.0583   -0.8121 N   0  0  0  0  0  0  0  0  0  0  0  0
    0.9603    0.8514   -0.8707 N   0  0  0  0  0  0  0  0  0  0  0  0
   -1.1384    1.1743    0.1275 C   0  0  2  0  0  0  0  0  0  0  0  0
   -1.7694    2.4283   -0.5096 C   0  0  1  0  0  0  0  0  0  0  0  0
    0.3607    1.4061    0.3351 C   0  0  2  0  0  0  0  0  0  0  0  0
    0.5899    2.8770    0.6030 C   0  0  0  0  0  0  0  0  0  0  0  0
   -2.9828    2.9504    0.2582 C   0  0  0  0  0  0  0  0  0  0  0  0
   -1.4272    4.7247    0.7804 C   0  0  0  0  0  0  0  0  0  0  0  0
   -2.4447    3.7870    1.4058 C   0  0  0  0  0  0  0  0  0  0  0  0
    0.0777   -0.0630   -1.4905 C   0  0  0  0  0  0  0  0  0  0  0  0
   -2.3536   -0.6990   -1.0990 C   0  0  0  0  0  0  0  0  0  0  0  0
    2.3697    0.9739   -1.1803 C   0  0  0  0  0  0  0  0  0  0  0  0
   -2.4153   -1.9752   -0.3026 C   0  0  0  0  0  0  0  0  0  0  0  0
    3.2134    0.0702   -0.3211 C   0  0  0  0  0  0  0  0  0  0  0  0
   -1.8649   -3.1358   -0.8280 C   0  0  0  0  0  0  0  0  0  0  0  0
   -3.0222   -1.9730    0.9454 C   0  0  0  0  0  0  0  0  0  0  0  0
    3.7008    0.5389    0.8908 C   0  0  0  0  0  0  0  0  0  0  0  0
    3.4921   -1.2188   -0.7535 C   0  0  0  0  0  0  0  0  0  0  0  0
   -1.9223   -4.3182   -0.0902 C   0  0  0  0  0  0  0  0  0  0  0  0
   -3.0797   -3.1553    1.6832 C   0  0  0  0  0  0  0  0  0  0  0  0
    4.4828   -0.2984    1.6865 C   0  0  0  0  0  0  0  0  0  0  0  0
    4.2739   -2.0561    0.0423 C   0  0  0  0  0  0  0  0  0  0  0  0
   -2.5297   -4.3280    1.1655 C   0  0  0  0  0  0  0  0  0  0  0  0
    4.7692   -1.5959    1.2624 C   0  0  0  0  0  0  0  0  0  0  0  0
   -1.6308    0.8751    1.0587 H   0  0  0  0  0  0  0  0  0  0  0  0
   -2.0461    2.2554   -1.5559 H   0  0  0  0  0  0  0  0  0  0  0  0
    0.7271    0.7993    1.1723 H   0  0  0  0  0  0  0  0  0  0  0  0
    0.3444    3.1031    1.6446 H   0  0  0  0  0  0  0  0  0  0  0  0
    1.6145    3.2095    0.4250 H   0  0  0  0  0  0  0  0  0  0  0  0
   -3.6283    2.1401    0.6123 H   0  0  0  0  0  0  0  0  0  0  0  0
   -3.5908    3.5850   -0.3995 H   0  0  0  0  0  0  0  0  0  0  0  0
   -1.9387    5.5436    0.2632 H   0  0  0  0  0  0  0  0  0  0  0  0
   -0.7359    5.1581    1.5077 H   0  0  0  0  0  0  0  0  0  0  0  0
   -3.2424    4.3466    1.9042 H   0  0  0  0  0  0  0  0  0  0  0  0
   -1.9746    3.1458    2.1599 H   0  0  0  0  0  0  0  0  0  0  0  0
   -2.3617   -0.9379   -2.1696 H   0  0  0  0  0  0  0  0  0  0  0  0
   -3.2342   -0.0743   -0.9106 H   0  0  0  0  0  0  0  0  0  0  0  0
    2.6816    2.0187   -1.0866 H   0  0  0  0  0  0  0  0  0  0  0  0
    2.5135    0.7069   -2.2347 H   0  0  0  0  0  0  0  0  0  0  0  0
   -1.3896   -3.1406   -1.8047 H   0  0  0  0  0  0  0  0  0  0  0  0
   -3.4534   -1.0650    1.3576 H   0  0  0  0  0  0  0  0  0  0  0  0
    3.4861    1.5479    1.2306 H   0  0  0  0  0  0  0  0  0  0  0  0
    3.1120   -1.5885   -1.7015 H   0  0  0  0  0  0  0  0  0  0  0  0
   -1.4939   -5.2312   -0.4933 H   0  0  0  0  0  0  0  0  0  0  0  0
   -3.5525   -3.1629    2.6610 H   0  0  0  0  0  0  0  0  0  0  0  0
    4.8687    0.0601    2.6363 H   0  0  0  0  0  0  0  0  0  0  0  0
    4.4969   -3.0665   -0.2879 H   0  0  0  0  0  0  0  0  0  0  0  0
   -2.5743   -5.2486    1.7400 H   0  0  0  0  0  0  0  0  0  0  0  0
    5.3779   -2.2479    1.8820 H   0  0  0  0  0  0  0  0  0  0  0  0
  1  6  1  0  0  0  0
  1  8  1  0  0  0  0
  1 10  1  0  0  0  0
  2 12  2  0  0  0  0
  3  5  1  0  0  0  0
  3 12  1  0  0  0  0
  3 13  1  0  0  0  0
  4  7  1  0  0  0  0
  4 12  1  0  0  0  0
  4 14  1  0  0  0  0
  5  6  1  0  0  0  0
  5  7  1  0  0  0  0
  5 27  1  0  0  0  0
  6  9  1  0  0  0  0
  6 28  1  0  0  0  0
  7  8  1  0  0  0  0
  7 29  1  0  0  0  0
  8 30  1  0  0  0  0
  8 31  1  0  0  0  0
  9 11  1  0  0  0  0
  9 32  1  0  0  0  0
  9 33  1  0  0  0  0
 10 11  1  0  0  0  0
 10 34  1  0  0  0  0
 10 35  1  0  0  0  0
 11 36  1  0  0  0  0
 11 37  1  0  0  0  0
 13 15  1  0  0  0  0
 13 38  1  0  0  0  0
 13 39  1  0  0  0  0
 14 16  1  0  0  0  0
 14 40  1  0  0  0  0
 14 41  1  0  0  0  0
 15 17  2  0  0  0  0
 15 18  1  0  0  0  0
 16 19  2  0  0  0  0
 16 20  1  0  0  0  0
 17 21  1  0  0  0  0
 17 42  1  0  0  0  0
 18 22  2  0  0  0  0
 18 43  1  0  0  0  0
 19 23  1  0  0  0  0
 19 44  1  0  0  0  0
 20 24  2  0  0  0  0
 20 45  1  0  0  0  0
 21 25  2  0  0  0  0
 21 46  1  0  0  0  0
 22 25  1  0  0  0  0
 22 47  1  0  0  0  0
 23 26  2  0  0  0  0
 23 48  1  0  0  0  0
 24 26  1  0  0  0  0
 24 49  1  0  0  0  0
 25 50  1  0  0  0  0
 26 51  1  0  0  0  0
M  CHG  1   1   1
M  END
> <DATABASE_ID>
DB01116

> <DATABASE_NAME>
drugbank

> <ORIGINAL_SOURCE>
PUBCHEM

> <ORIGINAL_SOURCE_URL>
https://pubchem.ncbi.nlm.nih.gov/rest/pug/compound/inchikey/CHQOEHPMXSHGCL-UHFFFAOYSA-N/SDF?record_type=3d

> <SMILES>
O=C1N(CC2=CC=CC=C2)C2C[S+]3CCCC3C2N1CC1=CC=CC=C1

> <INCHI_IDENTIFIER>
InChI=1S/C22H25N2OS/c25-22-23(14-17-8-3-1-4-9-17)19-16-26-13-7-12-20(26)21(19)24(22)15-18-10-5-2-6-11-18/h1-6,8-11,19-21H,7,12-16H2/q+1

> <INCHI_KEY>
CHQOEHPMXSHGCL-UHFFFAOYSA-N

> <FORMULA>
C22H25N2OS

> <MOLECULAR_WEIGHT>
365.512

> <EXACT_MASS>
365.168759122

> <JCHEM_ACCEPTOR_COUNT>
1

> <JCHEM_AVERAGE_POLARIZABILITY>
40.13415435906711

> <JCHEM_BIOAVAILABILITY>
1

> <JCHEM_DONOR_COUNT>
0

> <JCHEM_FORMAL_CHARGE>
1

> <JCHEM_GHOSE_FILTER>
1

> <JCHEM_IUPAC>
3,5-dibenzyl-4-oxo-8λ⁴-thia-3,5-diazatricyclo[6.3.0.0²,⁶]undecan-8-ylium

> <ALOGPS_LOGP>
4.40

> <JCHEM_LOGP>
2.324136726457387

> <ALOGPS_LOGS>
-4.78

> <JCHEM_MDDR_LIKE_RULE>
0

> <JCHEM_NUMBER_OF_RINGS>
5

> <JCHEM_PHYSIOLOGICAL_CHARGE>
1

> <JCHEM_PKA_STRONGEST_BASIC>
-1.99444997108513

> <JCHEM_POLAR_SURFACE_AREA>
23.550000000000004

> <JCHEM_REFRACTIVITY>
105.43010000000004

> <JCHEM_ROTATABLE_BOND_COUNT>
4

> <JCHEM_RULE_OF_FIVE>
1

> <ALOGPS_SOLUBILITY>
6.65e-03 g/l

> <JCHEM_TRADITIONAL_IUPAC>
trimethaphan

> <JCHEM_VEBER_RULE>
1

> <DRUGBANK_ID>
DB01116

> <SECONDARY_ACCESSION_NUMBERS>
APRD00044

> <DRUG_GROUPS>
approved; investigational

> <GENERIC_NAME>
Trimethaphan

> <SYNONYMS>
Thimethaphan; Trimetaphan; Trimetaphanum

> <SALTS>
Trimethaphan camsylate

$$$$
