REMARK  Name = 6971051
REMARK  5 active torsions:
REMARK  status: ('A' for Active; 'I' for Inactive)
REMARK    1  A    between atoms: C_1  and  N_2
REMARK    2  A    between atoms: C_1  and  C_8
REMARK    3  A    between atoms: C_1  and  C_9
REMARK    4  A    between atoms: C_9  and  O_10
REMARK    5  A    between atoms: O_10  and  C_12
REMARK                            x       y       z     vdW  Elec       q    Type
REMARK                         _______ _______ _______ _____ _____    ______ ____
ROOT
ATOM      1  C   UNK     1       1.282   0.753   0.450  0.00  0.00    +0.085 C 
ENDROOT
BRANCH   1   2
ATOM      2  N   UNK     1       1.399   1.790  -0.624  0.00  0.00    +0.391 N 
ATOM      3  H   UNK     1       0.907   2.636  -0.335  0.00  0.00    -0.088 HD
ATOM      4  H   UNK     1       0.985   1.434  -1.486  0.00  0.00    -0.088 HD
ATOM      5  H   UNK     1       2.383   2.006  -0.783  0.00  0.00    -0.088 HD
ENDBRANCH   1   2
BRANCH   1   8
ATOM      6  O   UNK     1       2.933  -0.481  -0.749  0.00  0.00    -0.248 OA
ATOM      7  O   UNK     1       1.546  -1.584   0.688  0.00  0.00    -0.248 OA
ATOM      8  C   UNK     1       1.998  -0.562   0.096  0.00  0.00    +0.348 C 
ENDBRANCH   1   8
BRANCH   1   9
ATOM      9  C   UNK     1      -0.194   0.623   0.814  0.00  0.00    +0.198 C 
BRANCH   9  10
ATOM     10  O   UNK     1      -0.923   0.067  -0.273  0.00  0.00    -0.450 OA
BRANCH  10  12
ATOM     11  O   UNK     1      -2.877   0.185   0.954  0.00  0.00    -0.250 OA
ATOM     12  C   UNK     1      -2.264  -0.100  -0.067  0.00  0.00    +0.317 C 
ATOM     13  C   UNK     1      -2.899  -0.691  -1.289  0.00  0.00    +0.121 C 
ENDBRANCH  10  12
ENDBRANCH   9  10
ENDBRANCH   1   9
TORSDOF 5
