REMARK  Name = 62787
REMARK  5 active torsions:
REMARK  status: ('A' for Active; 'I' for Inactive)
REMARK    1  A    between atoms: C_1  and  C_11
REMARK    2  A    between atoms: C_2  and  O_7
REMARK    3  A    between atoms: C_4  and  O_9
REMARK    4  A    between atoms: C_11  and  C_12
REMARK    5  A    between atoms: C_12  and  N_14
REMARK                            x       y       z     vdW  Elec       q    Type
REMARK                         _______ _______ _______ _____ _____    ______ ____
ROOT
ATOM      1  C   UNL     1      -0.279  -0.030  -0.422  0.00  0.00    +0.013 C 
ATOM      2  C   UNL     1      -0.163  -1.385  -0.150  0.00  0.00    +0.135 C 
ATOM      3  C   UNL     1       0.814   0.818  -0.324  0.00  0.00    +0.036 C 
ATOM      4  C   UNL     1       2.052   0.298   0.055  0.00  0.00    +0.139 C 
ATOM      5  C   UNL     1       1.075  -1.904   0.228  0.00  0.00    +0.040 C 
ATOM      6  C   UNL     1       2.183  -1.062   0.331  0.00  0.00    +0.040 C 
ENDROOT
BRANCH   2   7
ATOM      7  O   UNL     1      -1.235  -2.221  -0.245  0.00  0.00    -0.472 OA
ATOM      8  C   UNL     1      -1.011  -3.597   0.055  0.00  0.00    +0.252 C 
ENDBRANCH   2   7
BRANCH   4   9
ATOM      9  O   UNL     1       3.133   1.119   0.154  0.00  0.00    -0.471 OA
ATOM     10  C   UNL     1       2.929   2.500  -0.142  0.00  0.00    +0.252 C 
ENDBRANCH   4   9
BRANCH   1  11
ATOM     11  C   UNL     1      -1.611   0.549  -0.832  0.00  0.00    +0.008 C 
BRANCH  11  12
ATOM     12  C   UNL     1      -2.131   1.638   0.125  0.00  0.00    -0.061 C 
ATOM     13  C   UNL     1      -2.354   1.113   1.544  0.00  0.00    -0.024 C 
BRANCH  12  14
ATOM     14  N   UNL     1      -3.403   2.163  -0.378  0.00  0.00    +0.382 N 
ATOM     15  H   UNL     1      -3.274   2.519  -1.325  0.00  0.00    -0.089 HD
ATOM     16  H   UNL     1      -3.722   2.919   0.228  0.00  0.00    -0.089 HD
ATOM     17  H   UNL     1      -4.100   1.418  -0.387  0.00  0.00    -0.089 HD
ENDBRANCH  12  14
ENDBRANCH  11  12
ENDBRANCH   1  11
TORSDOF 5
