REMARK  Name = 34328
REMARK  9 active torsions:
REMARK  status: ('A' for Active; 'I' for Inactive)
REMARK    1  A    between atoms: N_1  and  C_18
REMARK    2  A    between atoms: C_2  and  C_8
REMARK    3  A    between atoms: C_2  and  C_15
REMARK    4  A    between atoms: C_15  and  O_16
REMARK    5  A    between atoms: C_18  and  C_19
REMARK    6  A    between atoms: C_19  and  C_20
REMARK    7  A    between atoms: C_20  and  C_21
REMARK    8  A    between atoms: C_20  and  C_27
REMARK    9  A    between atoms: C_20  and  C_34
REMARK                            x       y       z     vdW  Elec       q    Type
REMARK                         _______ _______ _______ _____ _____    ______ ____
ROOT
ATOM      1  N   UNL     1      -0.807   0.027   0.987  0.00  0.00    +0.387 N 
ATOM      2  C   UNL     1      -3.634  -0.212   0.069  0.00  0.00    +0.104 C 
ATOM      3  C   UNL     1      -3.175  -0.406   1.537  0.00  0.00    -0.008 C 
ATOM      4  C   UNL     1      -2.558   0.633  -0.661  0.00  0.00    -0.008 C 
ATOM      5  C   UNL     1      -1.727  -0.891   1.664  0.00  0.00    -0.076 C 
ATOM      6  C   UNL     1      -1.128   0.126  -0.440  0.00  0.00    -0.076 C 
ATOM      7  H   UNL     1      -0.916   0.952   1.403  0.00  0.00    -0.080 HD
ENDROOT
BRANCH   2   8
ATOM      8  C   UNL     1      -5.018   0.443  -0.075  0.00  0.00    -0.013 C 
ATOM      9  C   UNL     1      -5.727   0.821   1.062  0.00  0.00    -0.004 C 
ATOM     10  C   UNL     1      -5.556   0.654  -1.342  0.00  0.00    -0.004 C 
ATOM     11  C   UNL     1      -6.983   1.414   0.931  0.00  0.00    -0.000 C 
ATOM     12  C   UNL     1      -6.811   1.248  -1.473  0.00  0.00    -0.000 C 
ATOM     13  C   UNL     1      -7.525   1.628  -0.336  0.00  0.00    -0.000 C 
ENDBRANCH   2   8
BRANCH   2  15
ATOM     14  O   UNL     1      -3.034  -1.962  -1.511  0.00  0.00    -0.250 OA
ATOM     15  C   UNL     1      -3.716  -1.584  -0.570  0.00  0.00    +0.316 C 
BRANCH  15  16
ATOM     16  O   UNL     1      -4.655  -2.343   0.045  0.00  0.00    -0.480 OA
ATOM     17  H   UNL     1      -5.145  -1.992   0.763  0.00  0.00    +0.295 HD
ENDBRANCH  15  16
ENDBRANCH   2  15
BRANCH   1  18
ATOM     18  C   UNL     1       0.578  -0.404   1.172  0.00  0.00    -0.076 C 
BRANCH  18  19
ATOM     19  C   UNL     1       1.534   0.590   0.490  0.00  0.00    -0.000 C 
BRANCH  19  20
ATOM     20  C   UNL     1       3.065   0.244   0.616  0.00  0.00    +0.115 C 
BRANCH  20  21
ATOM     21  C   UNL     1       3.986   1.308  -0.038  0.00  0.00    -0.006 C 
ATOM     22  C   UNL     1       5.337   1.143   0.084  0.00  0.00    -0.003 C 
ATOM     23  C   UNL     1       3.393   2.346  -0.698  0.00  0.00    -0.003 C 
ATOM     24  C   UNL     1       6.165   2.099  -0.503  0.00  0.00    -0.000 C 
ATOM     25  C   UNL     1       4.221   3.302  -1.285  0.00  0.00    -0.000 C 
ATOM     26  C   UNL     1       5.607   3.179  -1.188  0.00  0.00    -0.000 C 
ENDBRANCH  20  21
BRANCH  20  27
ATOM     27  C   UNL     1       3.313  -1.129  -0.054  0.00  0.00    -0.006 C 
ATOM     28  C   UNL     1       3.775  -2.151   0.729  0.00  0.00    -0.003 C 
ATOM     29  C   UNL     1       3.056  -1.245  -1.393  0.00  0.00    -0.003 C 
ATOM     30  C   UNL     1       3.999  -3.388   0.125  0.00  0.00    -0.000 C 
ATOM     31  C   UNL     1       3.280  -2.482  -1.997  0.00  0.00    -0.000 C 
ATOM     32  C   UNL     1       3.751  -3.554  -1.238  0.00  0.00    -0.000 C 
ENDBRANCH  20  27
BRANCH  20  34
ATOM     33  N   UNL     1       3.617   0.286   3.214  0.00  0.00    -0.195 NA
ATOM     34  C   UNL     1       3.378   0.259   2.078  0.00  0.00    +0.079 C 
ENDBRANCH  20  34
ENDBRANCH  19  20
ENDBRANCH  18  19
ENDBRANCH   1  18
TORSDOF 9
