REMARK  Name = 8376
REMARK  3 active torsions:
REMARK  status: ('A' for Active; 'I' for Inactive)
REMARK    1  A    between atoms: C_2  and  N_10
REMARK    2  A    between atoms: C_3  and  N_13
REMARK    3  A    between atoms: C_4  and  N_16
REMARK                            x       y       z     vdW  Elec       q    Type
REMARK                         _______ _______ _______ _____ _____    ______ ____
ROOT
ATOM      1  C   UNL     1       1.225  -0.001  -0.001  0.00  0.00    +0.023 C 
ATOM      2  C   UNL     1       0.527  -1.208  -0.001  0.00  0.00    +0.142 C 
ATOM      3  C   UNL     1       0.528   1.208  -0.001  0.00  0.00    +0.142 C 
ATOM      4  C   UNL     1      -1.565   0.001   0.000  0.00  0.00    +0.146 C 
ATOM      5  C   UNL     1      -0.868  -1.207  -0.001  0.00  0.00    +0.048 C 
ATOM      6  C   UNL     1      -0.867   1.208  -0.001  0.00  0.00    +0.048 C 
ATOM      7  C   UNL     1       2.724  -0.002   0.001  0.00  0.00    +0.035 C 
ENDROOT
BRANCH   2  10
ATOM      8  O   UNL     1       0.545  -3.514   0.001  0.00  0.00    -0.126 OA
ATOM      9  O   UNL     1       2.468  -2.454  -0.001  0.00  0.00    -0.126 OA
ATOM     10  N   UNL     1       1.214  -2.454   0.000  0.00  0.00    +0.057 N 
ENDBRANCH   2  10
BRANCH   3  13
ATOM     11  O   UNL     1       0.549   3.514   0.001  0.00  0.00    -0.126 OA
ATOM     12  O   UNL     1       2.470   2.451   0.000  0.00  0.00    -0.126 OA
ATOM     13  N   UNL     1       1.217   2.453   0.000  0.00  0.00    +0.057 N 
ENDBRANCH   3  13
BRANCH   4  16
ATOM     14  O   UNL     1      -3.593  -1.096   0.000  0.00  0.00    -0.126 OA
ATOM     15  O   UNL     1      -3.592   1.099   0.001  0.00  0.00    -0.126 OA
ATOM     16  N   UNL     1      -2.985   0.002   0.000  0.00  0.00    +0.058 N 
ENDBRANCH   4  16
TORSDOF 3
