REMARK  Name = 2403
REMARK  6 active torsions:
REMARK  status: ('A' for Active; 'I' for Inactive)
REMARK    1  A    between atoms: C_4  and  C_20
REMARK    2  A    between atoms: C_5  and  C_10
REMARK    3  A    between atoms: N_19  and  C_28
REMARK    4  A    between atoms: C_28  and  C_29
REMARK    5  A    between atoms: C_29  and  C_30
REMARK    6  A    between atoms: C_30  and  N_31
REMARK                            x       y       z     vdW  Elec       q    Type
REMARK                         _______ _______ _______ _____ _____    ______ ____
ROOT
ATOM      1  O   UNL     1       0.102   4.123  -1.012  0.00  0.00    -0.270 OA
ATOM      2  O   UNL     1      -3.842   1.878  -1.610  0.00  0.00    -0.270 OA
ATOM      3  N   UNL     1      -2.046   3.337  -1.417  0.00  0.00    -0.248 N 
ATOM      4  C   UNL     1      -0.492   1.803  -0.754  0.00  0.00    +0.059 C 
ATOM      5  C   UNL     1      -1.654   1.145  -0.919  0.00  0.00    +0.059 C 
ATOM      6  C   UNL     1      -0.731   3.234  -1.071  0.00  0.00    +0.252 C 
ATOM      7  C   UNL     1      -2.677   2.130  -1.355  0.00  0.00    +0.252 C 
ATOM      8  H   UNL     1      -2.484   4.178  -1.680  0.00  0.00    +0.158 HD
ENDROOT
BRANCH   5  10
ATOM      9  N   UNL     1      -2.198  -2.398  -1.230  0.00  0.00    -0.284 N 
ATOM     10  C   UNL     1      -1.944  -0.245  -0.753  0.00  0.00    +0.021 C 
ATOM     11  C   UNL     1      -2.378  -0.914   0.426  0.00  0.00    +0.015 C 
ATOM     12  C   UNL     1      -2.529  -2.263   0.099  0.00  0.00    +0.052 C 
ATOM     13  C   UNL     1      -1.843  -1.184  -1.754  0.00  0.00    +0.066 C 
ATOM     14  C   UNL     1      -2.657  -0.500   1.744  0.00  0.00    +0.001 C 
ATOM     15  C   UNL     1      -2.947  -3.223   1.028  0.00  0.00    +0.015 C 
ATOM     16  C   UNL     1      -2.215  -3.636  -1.980  0.00  0.00    +0.117 C 
ATOM     17  C   UNL     1      -3.075  -1.449   2.683  0.00  0.00    +0.000 C 
ATOM     18  C   UNL     1      -3.218  -2.789   2.329  0.00  0.00    +0.001 C 
ENDBRANCH   5  10
BRANCH   4  20
ATOM     19  N   UNL     1       2.827   0.444  -0.427  0.00  0.00    -0.286 N 
ATOM     20  C   UNL     1       0.782   1.309  -0.332  0.00  0.00    +0.021 C 
ATOM     21  C   UNL     1       1.292   1.218   0.996  0.00  0.00    +0.015 C 
ATOM     22  C   UNL     1       2.575   0.673   0.907  0.00  0.00    +0.052 C 
ATOM     23  C   UNL     1       1.751   0.825  -1.183  0.00  0.00    +0.066 C 
ATOM     24  C   UNL     1       0.782   1.550   2.267  0.00  0.00    +0.001 C 
ATOM     25  C   UNL     1       3.377   0.442   2.031  0.00  0.00    +0.015 C 
ATOM     26  C   UNL     1       1.573   1.324   3.400  0.00  0.00    +0.000 C 
ATOM     27  C   UNL     1       2.850   0.778   3.281  0.00  0.00    +0.001 C 
BRANCH  19  28
ATOM     28  C   UNL     1       4.047  -0.115  -0.969  0.00  0.00    +0.093 C 
BRANCH  28  29
ATOM     29  C   UNL     1       3.988  -1.639  -1.065  0.00  0.00    -0.002 C 
BRANCH  29  30
ATOM     30  C   UNL     1       5.290  -2.204  -1.628  0.00  0.00    -0.084 C 
BRANCH  30  31
ATOM     31  N   UNL     1       5.210  -3.656  -1.733  0.00  0.00    +0.380 N 
ATOM     32  H   UNL     1       6.086  -4.018  -2.110  0.00  0.00    -0.089 HD
ATOM     33  H   UNL     1       4.441  -3.910  -2.354  0.00  0.00    -0.089 HD
ATOM     34  H   UNL     1       5.046  -4.055  -0.808  0.00  0.00    -0.089 HD
ENDBRANCH  30  31
ENDBRANCH  29  30
ENDBRANCH  28  29
ENDBRANCH  19  28
ENDBRANCH   4  20
TORSDOF 6
