REMARK  Name = 5180212
REMARK  10 active torsions:
REMARK  status: ('A' for Active; 'I' for Inactive)
REMARK    1  A    between atoms: N_2  and  C_7
REMARK    2  A    between atoms: C_4  and  C_18
REMARK    3  A    between atoms: C_7  and  C_9
REMARK    4  A    between atoms: C_18  and  C_19
REMARK    5  A    between atoms: C_19  and  O_20
REMARK    6  A    between atoms: O_20  and  P_21
REMARK    7  A    between atoms: P_21  and  O_23
REMARK    8  A    between atoms: P_21  and  O_25
REMARK    9  A    between atoms: O_25  and  P_26
REMARK   10  A    between atoms: P_26  and  O_29
REMARK                            x       y       z     vdW  Elec       q    Type
REMARK                         _______ _______ _______ _____ _____    ______ ____
ROOT
ATOM      1  S   UNL     1      -0.737   2.712   2.069  0.00  0.00    -0.095 S 
ATOM      2  N   UNL     1       1.213   2.262   0.560  0.00  0.00    -0.297 N 
ATOM      3  C   UNL     1       0.135   2.358  -0.292  0.00  0.00    +0.028 C 
ATOM      4  C   UNL     1      -1.007   2.603   0.391  0.00  0.00    +0.016 C 
ATOM      5  C   UNL     1       0.932   2.422   1.835  0.00  0.00    +0.154 C 
ATOM      6  C   UNL     1       0.368   2.190  -1.734  0.00  0.00    +0.047 C 
ENDROOT
BRANCH   2   7
ATOM      7  C   UNL     1       2.561   2.005   0.114  0.00  0.00    +0.122 C 
BRANCH   7   9
ATOM      8  N   UNL     1       3.674  -1.424  -1.040  0.00  0.00    -0.396 NA
ATOM      9  C   UNL     1       2.810   0.522   0.083  0.00  0.00    +0.037 C 
ATOM     10  C   UNL     1       3.436  -0.094  -0.980  0.00  0.00    +0.173 C 
ATOM     11  C   UNL     1       2.397  -0.252   1.153  0.00  0.00    -0.018 C 
ATOM     12  C   UNL     1       2.623  -1.624   1.128  0.00  0.00    +0.080 C 
ATOM     13  C   UNL     1       3.260  -2.156   0.019  0.00  0.00    +0.093 C 
ATOM     14  C   UNL     1       3.518  -3.624  -0.044  0.00  0.00    +0.062 C 
ATOM     15  N   UNL     1       3.857   0.704  -2.073  0.00  0.00    -0.333 N 
ATOM     16  H   UNL     1       4.307   0.286  -2.843  0.00  0.00    +0.145 HD
ATOM     17  H   UNL     1       3.700   1.675  -2.063  0.00  0.00    +0.145 HD
ENDBRANCH   7   9
ENDBRANCH   2   7
BRANCH   4  18
ATOM     18  C   UNL     1      -2.409   2.780  -0.141  0.00  0.00    +0.066 C 
BRANCH  18  19
ATOM     19  C   UNL     1      -3.164   1.456  -0.218  0.00  0.00    +0.159 C 
BRANCH  19  20
ATOM     20  O   UNL     1      -2.507   0.552  -1.090  0.00  0.00    -0.273 OA
BRANCH  20  21
ATOM     21  P   UNL     1      -3.120  -0.925  -1.336  0.00  0.00    +0.484 P 
ATOM     22  O   UNL     1      -2.332  -1.785  -2.280  0.00  0.00    -0.227 OA
BRANCH  21  23
ATOM     23  O   UNL     1      -4.648  -0.656  -1.795  0.00  0.00    -0.302 OA
ATOM     24  H   UNL     1      -5.090  -0.096  -1.138  0.00  0.00    +0.222 HD
ENDBRANCH  21  23
BRANCH  21  25
ATOM     25  O   UNL     1      -3.284  -1.549   0.148  0.00  0.00    -0.185 OA
BRANCH  25  26
ATOM     26  P   UNL     1      -2.156  -1.961   1.252  0.00  0.00    +0.511 P 
ATOM     27  O   UNL     1      -2.831  -2.658   2.413  0.00  0.00    -0.116 OA
ATOM     28  O   UNL     1      -1.241  -0.779   1.482  0.00  0.00    -0.225 OA
BRANCH  26  29
ATOM     29  O   UNL     1      -1.350  -3.078   0.375  0.00  0.00    -0.301 OA
ATOM     30  H   UNL     1      -1.925  -3.844   0.220  0.00  0.00    +0.222 HD
ENDBRANCH  26  29
ENDBRANCH  25  26
ENDBRANCH  21  25
ENDBRANCH  20  21
ENDBRANCH  19  20
ENDBRANCH  18  19
ENDBRANCH   4  18
TORSDOF 10
