REMARK  Name = 441199
REMARK  9 active torsions:
REMARK  status: ('A' for Active; 'I' for Inactive)
REMARK    1  A    between atoms: C_4  and  N_11
REMARK    2  A    between atoms: C_4  and  O_20
REMARK    3  A    between atoms: C_7  and  C_23
REMARK    4  A    between atoms: C_8  and  C_26
REMARK    5  A    between atoms: C_12  and  C_14
REMARK    6  A    between atoms: C_14  and  C_16
REMARK    7  A    between atoms: C_23  and  O_24
REMARK    8  A    between atoms: C_26  and  O_27
REMARK    9  A    between atoms: O_27  and  C_30
REMARK                            x       y       z     vdW  Elec       q    Type
REMARK                         _______ _______ _______ _____ _____    ______ ____
ROOT
ATOM      1  S   UNL     1      -0.559   0.899  -2.099  0.00  0.00    -0.112 S 
ATOM      2  O   UNL     1       0.971   0.759   2.290  0.00  0.00    -0.270 OA
ATOM      3  N   UNL     1      -0.624   0.809   0.554  0.00  0.00    -0.238 N 
ATOM      4  C   UNL     1       0.967   2.002   0.043  0.00  0.00    +0.250 C 
ATOM      5  C   UNL     1      -0.453   1.771  -0.520  0.00  0.00    +0.180 C 
ATOM      6  C   UNL     1       0.504   1.114   1.233  0.00  0.00    +0.275 C 
ATOM      7  C   UNL     1      -1.678  -0.041   0.644  0.00  0.00    +0.127 C 
ATOM      8  C   UNL     1      -2.501  -0.263  -0.409  0.00  0.00    +0.030 C 
ATOM      9  C   UNL     1      -2.266   0.330  -1.797  0.00  0.00    +0.086 C 
ENDROOT
BRANCH   4  11
ATOM     10  O   UNL     1       3.568   1.115   0.929  0.00  0.00    -0.275 OA
ATOM     11  N   UNL     1       2.003   1.348  -0.768  0.00  0.00    -0.277 N 
ATOM     12  C   UNL     1       3.229   0.958  -0.243  0.00  0.00    +0.229 C 
ATOM     13  H   UNL     1       1.821   1.179  -1.720  0.00  0.00    +0.152 HD
BRANCH  12  14
ATOM     14  C   UNL     1       4.133   0.288  -1.258  0.00  0.00    +0.118 C 
BRANCH  14  16
ATOM     15  S   UNL     1       6.044  -1.579  -0.490  0.00  0.00    -0.090 S 
ATOM     16  C   UNL     1       4.425  -1.115  -0.805  0.00  0.00    +0.016 C 
ATOM     17  C   UNL     1       3.541  -2.149  -0.591  0.00  0.00    +0.003 C 
ATOM     18  C   UNL     1       4.200  -3.337  -0.163  0.00  0.00    +0.007 C 
ATOM     19  C   UNL     1       5.563  -3.167  -0.066  0.00  0.00    +0.035 C 
ENDBRANCH  14  16
ENDBRANCH  12  14
ENDBRANCH   4  11
BRANCH   4  20
ATOM     20  O   UNL     1       1.324   3.332   0.470  0.00  0.00    -0.330 OA
ATOM     21  C   UNL     1       1.328   4.320  -0.549  0.00  0.00    +0.176 C 
ENDBRANCH   4  20
BRANCH   7  23
ATOM     22  O   UNL     1      -1.789  -1.968   2.033  0.00  0.00    -0.244 OA
ATOM     23  C   UNL     1      -1.848  -0.760   1.916  0.00  0.00    +0.352 C 
BRANCH  23  24
ATOM     24  O   UNL     1      -2.076   0.127   2.904  0.00  0.00    -0.476 OA
ATOM     25  H   UNL     1      -2.104   1.044   2.713  0.00  0.00    +0.295 HD
ENDBRANCH  23  24
ENDBRANCH   7  23
BRANCH   8  26
ATOM     26  C   UNL     1      -3.737  -1.128  -0.364  0.00  0.00    +0.235 C 
BRANCH  26  27
ATOM     27  O   UNL     1      -4.865  -0.348  -0.701  0.00  0.00    -0.430 OA
BRANCH  27  30
ATOM     28  O   UNL     1      -6.232  -2.183  -0.441  0.00  0.00    -0.227 OA
ATOM     29  N   UNL     1      -7.094  -0.139  -1.046  0.00  0.00    -0.295 N 
ATOM     30  C   UNL     1      -6.077  -0.995  -0.706  0.00  0.00    +0.399 C 
ATOM     31  H   UNL     1      -6.897   0.805  -1.246  0.00  0.00    +0.148 HD
ATOM     32  H   UNL     1      -8.021  -0.468  -1.089  0.00  0.00    +0.148 HD
ENDBRANCH  27  30
ENDBRANCH  26  27
ENDBRANCH   8  26
TORSDOF 9
