REMARK  Name = 3475
REMARK  3 active torsions:
REMARK  status: ('A' for Active; 'I' for Inactive)
REMARK    1  A    between atoms: N_2  and  N_7
REMARK    2  A    between atoms: N_3  and  S_15
REMARK    3  A    between atoms: S_15  and  C_18
REMARK                            x       y       z     vdW  Elec       q    Type
REMARK                         _______ _______ _______ _____ _____    ______ ____
ROOT
ATOM      1  O   UNL     1      -0.065   1.208  -1.739  0.00  0.00    -0.250 OA
ATOM      2  N   UNL     1      -1.702   0.452  -0.289  0.00  0.00    -0.230 N 
ATOM      3  N   UNL     1       0.304   1.285   0.566  0.00  0.00    -0.168 N 
ATOM      4  C   UNL     1      -0.473   0.993  -0.601  0.00  0.00    +0.333 C 
ATOM      5  H   UNL     1      -1.959   0.308   0.650  0.00  0.00    +0.171 HD
ATOM      6  H   UNL     1      -0.099   1.079   1.440  0.00  0.00    +0.178 HD
ENDROOT
BRANCH   2   7
ATOM      7  N   UNL     1      -2.574   0.111  -1.312  0.00  0.00    -0.205 NA
ATOM      8  C   UNL     1      -4.078  -1.488  -0.327  0.00  0.00    +0.019 C 
ATOM      9  C   UNL     1      -4.720  -0.094  -0.244  0.00  0.00    +0.019 C 
ATOM     10  C   UNL     1      -3.705  -1.864   1.109  0.00  0.00    +0.001 C 
ATOM     11  C   UNL     1      -4.696   0.290   1.238  0.00  0.00    +0.001 C 
ATOM     12  C   UNL     1      -2.897  -1.326  -1.279  0.00  0.00    +0.092 C 
ATOM     13  C   UNL     1      -3.871   0.790  -1.152  0.00  0.00    +0.092 C 
ATOM     14  C   UNL     1      -4.656  -1.044   1.965  0.00  0.00    +0.000 C 
ENDBRANCH   2   7
BRANCH   3  15
ATOM     15  S   UNL     1       1.874   1.962   0.567  0.00  0.00    +0.077 S 
ATOM     16  O   UNL     1       2.024   2.833  -0.583  0.00  0.00    -0.150 OA
ATOM     17  O   UNL     1       2.186   2.442   1.899  0.00  0.00    -0.150 OA
BRANCH  15  18
ATOM     18  C   UNL     1       2.863   0.522   0.299  0.00  0.00    +0.125 C 
ATOM     19  C   UNL     1       3.168   0.144  -0.998  0.00  0.00    +0.020 C 
ATOM     20  C   UNL     1       3.315  -0.202   1.389  0.00  0.00    +0.020 C 
ATOM     21  C   UNL     1       4.412  -1.734  -0.124  0.00  0.00    -0.022 C 
ATOM     22  C   UNL     1       3.948  -0.993  -1.211  0.00  0.00    -0.003 C 
ATOM     23  C   UNL     1       4.095  -1.338   1.176  0.00  0.00    -0.003 C 
ATOM     24  C   UNL     1       5.246  -2.949  -0.351  0.00  0.00    +0.031 C 
ENDBRANCH  15  18
ENDBRANCH   3  15
TORSDOF 3
