REMARK  Name = 5288607
REMARK  4 active torsions:
REMARK  status: ('A' for Active; 'I' for Inactive)
REMARK    1  A    between atoms: N_2  and  C_19
REMARK    2  A    between atoms: C_3  and  C_6
REMARK    3  A    between atoms: C_5  and  C_16
REMARK    4  A    between atoms: C_19  and  C_21
REMARK                            x       y       z     vdW  Elec       q    Type
REMARK                         _______ _______ _______ _____ _____    ______ ____
ROOT
ATOM      1  O   UNL     1       1.126  -3.594  -0.965  0.00  0.00    -0.270 OA
ATOM      2  N   UNL     1       2.493  -2.351   0.445  0.00  0.00    -0.270 N 
ATOM      3  C   UNL     1       1.266  -2.710  -0.119  0.00  0.00    +0.249 C 
ATOM      4  C   UNL     1       3.703  -3.047   0.026  0.00  0.00    +0.116 C 
ENDROOT
BRANCH   3   6
ATOM      5  C   UNL     1      -0.948  -1.687  -0.509  0.00  0.00    +0.006 C 
ATOM      6  C   UNL     1       0.079  -1.928   0.340  0.00  0.00    +0.058 C 
BRANCH   5  16
ATOM      7  O   UNL     1      -7.662   1.944   0.526  0.00  0.00    -0.275 OA
ATOM      8  N   UNL     1      -5.460   1.360   0.811  0.00  0.00    -0.270 N 
ATOM      9  N   UNL     1      -3.211   0.739   1.203  0.00  0.00    -0.229 NA
ATOM     10  C   UNL     1      -5.673  -0.346  -1.443  0.00  0.00    +0.039 C 
ATOM     11  C   UNL     1      -4.430  -0.302  -0.606  0.00  0.00    +0.010 C 
ATOM     12  C   UNL     1      -6.901  -0.029  -0.603  0.00  0.00    +0.090 C 
ATOM     13  C   UNL     1      -4.340   0.576   0.473  0.00  0.00    +0.130 C 
ATOM     14  C   UNL     1      -3.300  -1.051  -0.938  0.00  0.00    +0.000 C 
ATOM     15  C   UNL     1      -6.717   1.200   0.263  0.00  0.00    +0.227 C 
ATOM     16  C   UNL     1      -2.137  -0.917  -0.190  0.00  0.00    +0.019 C 
ATOM     17  C   UNL     1      -2.143  -0.014   0.859  0.00  0.00    +0.100 C 
ATOM     18  H   UNL     1      -5.338   2.069   1.483  0.00  0.00    +0.156 HD
ENDBRANCH   5  16
ENDBRANCH   3   6
BRANCH   2  19
ATOM     19  C   UNL     1       2.688  -1.284   1.424  0.00  0.00    +0.122 C 
BRANCH  19  21
ATOM     20  N   UNL     1       2.671   1.940  -0.289  0.00  0.00    -0.284 N 
ATOM     21  C   UNL     1       2.965  -0.001   0.719  0.00  0.00    +0.014 C 
ATOM     22  C   UNL     1       4.240   0.488   0.348  0.00  0.00    +0.013 C 
ATOM     23  C   UNL     1       4.029   1.714  -0.286  0.00  0.00    +0.051 C 
ATOM     24  C   UNL     1       2.018   0.902   0.319  0.00  0.00    +0.063 C 
ATOM     25  C   UNL     1       5.560   0.015   0.487  0.00  0.00    +0.001 C 
ATOM     26  C   UNL     1       5.076   2.494  -0.790  0.00  0.00    +0.015 C 
ATOM     27  C   UNL     1       2.014   3.102  -0.850  0.00  0.00    +0.117 C 
ATOM     28  C   UNL     1       6.617   0.783  -0.013  0.00  0.00    +0.000 C 
ATOM     29  C   UNL     1       6.377   2.003  -0.641  0.00  0.00    +0.001 C 
ENDBRANCH  19  21
ENDBRANCH   2  19
TORSDOF 4
