62156
  -OEChem-10051719373D

 59 61  0     0  0  0  0  0  0999 V2000
   -0.8036    2.7009    0.7448 O   0  0  0  0  0  0  0  0  0  0  0  0
   -2.1698    1.5219    2.1873 O   0  0  0  0  0  0  0  0  0  0  0  0
   -3.0701    2.3826   -1.1691 O   0  0  0  0  0  0  0  0  0  0  0  0
    1.5416   -0.2758    0.0399 N   0  0  0  0  0  0  0  0  0  0  0  0
   -2.6421    0.2359   -0.2616 N   0  0  0  0  0  0  0  0  0  0  0  0
   -1.2938    0.4755    0.1979 C   0  0  0  0  0  0  0  0  0  0  0  0
   -0.7288   -0.7645    0.8975 C   0  0  0  0  0  0  0  0  0  0  0  0
   -0.3907    0.9026   -0.9632 C   0  0  0  0  0  0  0  0  0  0  0  0
    0.7576   -0.6136    1.2348 C   0  0  0  0  0  0  0  0  0  0  0  0
    1.0822    0.9871   -0.5520 C   0  0  0  0  0  0  0  0  0  0  0  0
    2.9651   -0.1987    0.3675 C   0  0  0  0  0  0  0  0  0  0  0  0
   -1.4907    1.6036    1.1727 C   0  0  0  0  0  0  0  0  0  0  0  0
   -3.2278   -1.0847   -0.0443 C   0  0  0  0  0  0  0  0  0  0  0  0
    3.8266   -0.4676   -0.8669 C   0  0  0  0  0  0  0  0  0  0  0  0
   -3.4284    1.2293   -0.9178 C   0  0  0  0  0  0  0  0  0  0  0  0
   -4.8446    0.7931   -1.2828 C   0  0  0  0  0  0  0  0  0  0  0  0
    5.2973   -0.4131   -0.5379 C   0  0  0  0  0  0  0  0  0  0  0  0
   -3.0783   -2.0812   -1.0090 C   0  0  0  0  0  0  0  0  0  0  0  0
   -3.9360   -1.3497    1.1280 C   0  0  0  0  0  0  0  0  0  0  0  0
   -5.6329    1.8833   -1.9924 C   0  0  0  0  0  0  0  0  0  0  0  0
   -0.9047    3.8555    1.5843 C   0  0  0  0  0  0  0  0  0  0  0  0
   -3.6370   -3.3423   -0.8016 C   0  0  0  0  0  0  0  0  0  0  0  0
   -4.4947   -2.6109    1.3354 C   0  0  0  0  0  0  0  0  0  0  0  0
    5.9893    0.7942   -0.6345 C   0  0  0  0  0  0  0  0  0  0  0  0
    5.9657   -1.5699   -0.1367 C   0  0  0  0  0  0  0  0  0  0  0  0
   -4.3451   -3.6072    0.3705 C   0  0  0  0  0  0  0  0  0  0  0  0
    7.3497    0.8447   -0.3300 C   0  0  0  0  0  0  0  0  0  0  0  0
    7.3260   -1.5192    0.1679 C   0  0  0  0  0  0  0  0  0  0  0  0
    8.0179   -0.3118    0.0712 C   0  0  0  0  0  0  0  0  0  0  0  0
   -1.2557   -0.9868    1.8338 H   0  0  0  0  0  0  0  0  0  0  0  0
   -0.7947   -1.6543    0.2600 H   0  0  0  0  0  0  0  0  0  0  0  0
   -0.4765    0.1552   -1.7661 H   0  0  0  0  0  0  0  0  0  0  0  0
   -0.6841    1.8483   -1.4333 H   0  0  0  0  0  0  0  0  0  0  0  0
    0.8892    0.1466    2.0161 H   0  0  0  0  0  0  0  0  0  0  0  0
    1.1039   -1.5678    1.6517 H   0  0  0  0  0  0  0  0  0  0  0  0
    1.6509    1.2030   -1.4637 H   0  0  0  0  0  0  0  0  0  0  0  0
    1.2708    1.8241    0.1287 H   0  0  0  0  0  0  0  0  0  0  0  0
    3.2232    0.7608    0.8358 H   0  0  0  0  0  0  0  0  0  0  0  0
    3.2180   -0.9692    1.1094 H   0  0  0  0  0  0  0  0  0  0  0  0
    3.6218    0.2561   -1.6647 H   0  0  0  0  0  0  0  0  0  0  0  0
    3.5855   -1.4517   -1.2905 H   0  0  0  0  0  0  0  0  0  0  0  0
   -5.3862    0.5222   -0.3711 H   0  0  0  0  0  0  0  0  0  0  0  0
   -4.7990   -0.0742   -1.9485 H   0  0  0  0  0  0  0  0  0  0  0  0
   -2.5285   -1.8847   -1.9257 H   0  0  0  0  0  0  0  0  0  0  0  0
   -4.0618   -0.5812    1.8858 H   0  0  0  0  0  0  0  0  0  0  0  0
   -5.7324    2.7721   -1.3604 H   0  0  0  0  0  0  0  0  0  0  0  0
   -5.1387    2.1845   -2.9220 H   0  0  0  0  0  0  0  0  0  0  0  0
   -6.6377    1.5268   -2.2397 H   0  0  0  0  0  0  0  0  0  0  0  0
   -0.3136    4.6564    1.1325 H   0  0  0  0  0  0  0  0  0  0  0  0
   -0.5007    3.6376    2.5775 H   0  0  0  0  0  0  0  0  0  0  0  0
   -1.9464    4.1830    1.6529 H   0  0  0  0  0  0  0  0  0  0  0  0
   -3.5206   -4.1180   -1.5528 H   0  0  0  0  0  0  0  0  0  0  0  0
   -5.0466   -2.8170    2.2478 H   0  0  0  0  0  0  0  0  0  0  0  0
    5.4791    1.7025   -0.9437 H   0  0  0  0  0  0  0  0  0  0  0  0
    5.4371   -2.5161   -0.0558 H   0  0  0  0  0  0  0  0  0  0  0  0
   -4.7802   -4.5890    0.5320 H   0  0  0  0  0  0  0  0  0  0  0  0
    7.8883    1.7848   -0.4046 H   0  0  0  0  0  0  0  0  0  0  0  0
    7.8465   -2.4197    0.4808 H   0  0  0  0  0  0  0  0  0  0  0  0
    9.0770   -0.2724    0.3086 H   0  0  0  0  0  0  0  0  0  0  0  0
  1 12  1  0  0  0  0
  1 21  1  0  0  0  0
  2 12  2  0  0  0  0
  3 15  2  0  0  0  0
  4  9  1  0  0  0  0
  4 10  1  0  0  0  0
  4 11  1  0  0  0  0
  5  6  1  0  0  0  0
  5 13  1  0  0  0  0
  5 15  1  0  0  0  0
  6  7  1  0  0  0  0
  6  8  1  0  0  0  0
  6 12  1  0  0  0  0
  7  9  1  0  0  0  0
  7 30  1  0  0  0  0
  7 31  1  0  0  0  0
  8 10  1  0  0  0  0
  8 32  1  0  0  0  0
  8 33  1  0  0  0  0
  9 34  1  0  0  0  0
  9 35  1  0  0  0  0
 10 36  1  0  0  0  0
 10 37  1  0  0  0  0
 11 14  1  0  0  0  0
 11 38  1  0  0  0  0
 11 39  1  0  0  0  0
 13 18  2  0  0  0  0
 13 19  1  0  0  0  0
 14 17  1  0  0  0  0
 14 40  1  0  0  0  0
 14 41  1  0  0  0  0
 15 16  1  0  0  0  0
 16 20  1  0  0  0  0
 16 42  1  0  0  0  0
 16 43  1  0  0  0  0
 17 24  2  0  0  0  0
 17 25  1  0  0  0  0
 18 22  1  0  0  0  0
 18 44  1  0  0  0  0
 19 23  2  0  0  0  0
 19 45  1  0  0  0  0
 20 46  1  0  0  0  0
 20 47  1  0  0  0  0
 20 48  1  0  0  0  0
 21 49  1  0  0  0  0
 21 50  1  0  0  0  0
 21 51  1  0  0  0  0
 22 26  2  0  0  0  0
 22 52  1  0  0  0  0
 23 26  1  0  0  0  0
 23 53  1  0  0  0  0
 24 27  1  0  0  0  0
 24 54  1  0  0  0  0
 25 28  2  0  0  0  0
 25 55  1  0  0  0  0
 26 56  1  0  0  0  0
 27 29  2  0  0  0  0
 27 57  1  0  0  0  0
 28 29  1  0  0  0  0
 28 58  1  0  0  0  0
 29 59  1  0  0  0  0
M  END
> <DATABASE_ID>
DB01535

> <DATABASE_NAME>
drugbank

> <ORIGINAL_SOURCE>
PUBCHEM

> <ORIGINAL_SOURCE_URL>
https://pubchem.ncbi.nlm.nih.gov/rest/pug/compound/inchikey/YDSDEBIZUNNPOB-UHFFFAOYSA-N/SDF?record_type=3d

> <SMILES>
CCC(=O)N(C1=CC=CC=C1)C1(CCN(CCC2=CC=CC=C2)CC1)C(=O)OC

> <INCHI_IDENTIFIER>
InChI=1S/C24H30N2O3/c1-3-22(27)26(21-12-8-5-9-13-21)24(23(28)29-2)15-18-25(19-16-24)17-14-20-10-6-4-7-11-20/h4-13H,3,14-19H2,1-2H3

> <INCHI_KEY>
YDSDEBIZUNNPOB-UHFFFAOYSA-N

> <FORMULA>
C24H30N2O3

> <MOLECULAR_WEIGHT>
394.5066

> <EXACT_MASS>
394.225642836

> <JCHEM_ACCEPTOR_COUNT>
3

> <JCHEM_AVERAGE_POLARIZABILITY>
44.60143647468159

> <JCHEM_BIOAVAILABILITY>
1

> <JCHEM_DONOR_COUNT>
0

> <JCHEM_FORMAL_CHARGE>
0

> <JCHEM_GHOSE_FILTER>
1

> <JCHEM_IUPAC>
methyl 1-(2-phenylethyl)-4-(N-phenylpropanamido)piperidine-4-carboxylate

> <ALOGPS_LOGP>
3.70

> <JCHEM_LOGP>
3.6675230616666665

> <ALOGPS_LOGS>
-4.18

> <JCHEM_MDDR_LIKE_RULE>
1

> <JCHEM_NUMBER_OF_RINGS>
3

> <JCHEM_PHYSIOLOGICAL_CHARGE>
1

> <JCHEM_PKA_STRONGEST_BASIC>
8.045435263576643

> <JCHEM_POLAR_SURFACE_AREA>
49.85000000000001

> <JCHEM_REFRACTIVITY>
114.37600000000003

> <JCHEM_ROTATABLE_BOND_COUNT>
8

> <JCHEM_RULE_OF_FIVE>
1

> <ALOGPS_SOLUBILITY>
2.59e-02 g/l

> <JCHEM_TRADITIONAL_IUPAC>
carfentanil

> <JCHEM_VEBER_RULE>
0

> <DRUGBANK_ID>
DB01535

> <DRUG_GROUPS>
illicit; investigational; vet_approved

> <GENERIC_NAME>
Carfentanil

> <SYNONYMS>
Carfentanil; carfentanila; Carfentanyl

> <SALTS>
Carfentanil citrate

$$$$
