REMARK  Name = 547
REMARK  5 active torsions:
REMARK  status: ('A' for Active; 'I' for Inactive)
REMARK    1  A    between atoms: C_1  and  C_11
REMARK    2  A    between atoms: C_4  and  O_7
REMARK    3  A    between atoms: C_6  and  O_9
REMARK    4  A    between atoms: C_11  and  C_13
REMARK    5  A    between atoms: C_13  and  O_14
REMARK                            x       y       z     vdW  Elec       q    Type
REMARK                         _______ _______ _______ _____ _____    ______ ____
ROOT
ATOM      1  C   UNL     1       0.460  -0.179  -0.549  0.00  0.00    -0.008 C 
ATOM      2  C   UNL     1      -0.337   0.960  -0.436  0.00  0.00    +0.036 C 
ATOM      3  C   UNL     1      -0.088  -1.440  -0.312  0.00  0.00    -0.000 C 
ATOM      4  C   UNL     1      -1.682   0.838  -0.086  0.00  0.00    +0.167 C 
ATOM      5  C   UNL     1      -1.432  -1.562   0.039  0.00  0.00    +0.039 C 
ATOM      6  C   UNL     1      -2.230  -0.423   0.151  0.00  0.00    +0.167 C 
ENDROOT
BRANCH   4   7
ATOM      7  O   UNL     1      -2.451   1.958   0.019  0.00  0.00    -0.503 OA
ATOM      8  H   UNL     1      -2.075   2.801  -0.142  0.00  0.00    +0.292 HD
ENDBRANCH   4   7
BRANCH   6   9
ATOM      9  O   UNL     1      -3.541  -0.554   0.493  0.00  0.00    -0.503 OA
ATOM     10  H   UNL     1      -4.084   0.205   0.571  0.00  0.00    +0.292 HD
ENDBRANCH   6   9
BRANCH   1  11
ATOM     11  C   UNL     1       1.898  -0.050  -0.922  0.00  0.00    +0.136 C 
BRANCH  11  13
ATOM     12  O   UNL     1       2.458   0.172   1.437  0.00  0.00    -0.250 OA
ATOM     13  C   UNL     1       2.820   0.108   0.271  0.00  0.00    +0.318 C 
BRANCH  13  14
ATOM     14  O   UNL     1       4.125   0.173  -0.103  0.00  0.00    -0.480 OA
ATOM     15  H   UNL     1       4.356   0.119  -1.010  0.00  0.00    +0.295 HD
ENDBRANCH  13  14
ENDBRANCH  11  13
ENDBRANCH   1  11
TORSDOF 5
