REMARK  Name = 342
REMARK  1 active torsions:
REMARK  status: ('A' for Active; 'I' for Inactive)
REMARK    1  A    between atoms: C_4  and  O_8
REMARK                            x       y       z     vdW  Elec       q    Type
REMARK                         _______ _______ _______ _____ _____    ______ ____
ROOT
ATOM      1  C   UNL     1      -1.204  -0.308   0.000  0.00  0.00    -0.019 C 
ATOM      2  C   UNL     1      -0.018  -1.042   0.000  0.00  0.00    +0.032 C 
ATOM      3  C   UNL     1      -1.161   1.087   0.000  0.00  0.00    -0.004 C 
ATOM      4  C   UNL     1       1.211  -0.383   0.000  0.00  0.00    +0.133 C 
ATOM      5  C   UNL     1      -2.518  -1.013   0.000  0.00  0.00    +0.031 C 
ATOM      6  C   UNL     1       0.068   1.746   0.000  0.00  0.00    +0.003 C 
ATOM      7  C   UNL     1       1.254   1.012   0.000  0.00  0.00    +0.037 C 
ENDROOT
BRANCH   4   8
ATOM      8  O   UNL     1       2.368  -1.099   0.000  0.00  0.00    -0.506 OA
ATOM      9  H   UNL     1       2.339  -2.036   0.000  0.00  0.00    +0.292 HD
ENDBRANCH   4   8
TORSDOF 1
