REMARK  Name = 26757
REMARK  5 active torsions:
REMARK  status: ('A' for Active; 'I' for Inactive)
REMARK    1  A    between atoms: C_1  and  N_3
REMARK    2  A    between atoms: C_1  and  C_9
REMARK    3  A    between atoms: N_3  and  C_6
REMARK    4  A    between atoms: C_6  and  C_7
REMARK    5  A    between atoms: C_9  and  C_10
REMARK                            x       y       z     vdW  Elec       q    Type
REMARK                         _______ _______ _______ _____ _____    ______ ____
ROOT
ATOM      1  C   UNL     1      -0.712   0.146   0.230  0.00  0.00    -0.052 C 
ATOM      2  C   UNL     1      -0.555   1.650   0.456  0.00  0.00    -0.023 C 
ENDROOT
BRANCH   1   3
ATOM      3  N   UNL     1      -2.076  -0.110  -0.242  0.00  0.00    +0.395 N 
ATOM      4  C   UNL     1      -2.273  -1.540  -0.472  0.00  0.00    -0.099 C 
ATOM      5  H   UNL     1      -2.214   0.381  -1.125  0.00  0.00    -0.078 HD
BRANCH   3   6
ATOM      6  C   UNL     1      -3.050   0.394   0.724  0.00  0.00    +0.003 C 
BRANCH   6   7
ATOM      7  C   UNL     1      -4.419   0.194   0.239  0.00  0.00    -0.101 C 
ATOM      8  C   UNL     1      -5.543   0.033  -0.153  0.00  0.00    -0.016 C 
ENDBRANCH   6   7
ENDBRANCH   3   6
ENDBRANCH   1   3
BRANCH   1   9
ATOM      9  C   UNL     1       0.298  -0.405  -0.793  0.00  0.00    +0.006 C 
BRANCH   9  10
ATOM     10  C   UNL     1       1.739  -0.225  -0.378  0.00  0.00    -0.024 C 
ATOM     11  C   UNL     1       2.412   0.929  -0.744  0.00  0.00    -0.004 C 
ATOM     12  C   UNL     1       2.361  -1.218   0.362  0.00  0.00    -0.004 C 
ATOM     13  C   UNL     1       3.743   1.096  -0.361  0.00  0.00    -0.000 C 
ATOM     14  C   UNL     1       3.692  -1.051   0.746  0.00  0.00    -0.000 C 
ATOM     15  C   UNL     1       4.383   0.105   0.385  0.00  0.00    -0.000 C 
ENDBRANCH   9  10
ENDBRANCH   1   9
TORSDOF 5
