REMARK  Name = 5287720
REMARK  4 active torsions:
REMARK  status: ('A' for Active; 'I' for Inactive)
REMARK    1  A    between atoms: N_2  and  C_16
REMARK    2  A    between atoms: C_4  and  C_5
REMARK    3  A    between atoms: C_6  and  C_9
REMARK    4  A    between atoms: C_16  and  C_18
REMARK                            x       y       z     vdW  Elec       q    Type
REMARK                         _______ _______ _______ _____ _____    ______ ____
ROOT
ATOM      1  O   UNL     1      -0.916  -3.501  -1.125  0.00  0.00    -0.270 OA
ATOM      2  N   UNL     1       0.663  -2.739   0.401  0.00  0.00    -0.269 N 
ATOM      3  C   UNL     1       1.508  -3.916   0.244  0.00  0.00    +0.116 C 
ATOM      4  C   UNL     1      -0.522  -2.642  -0.334  0.00  0.00    +0.249 C 
ENDROOT
BRANCH   4   5
ATOM      5  C   UNL     1      -1.314  -1.392  -0.141  0.00  0.00    +0.058 C 
ATOM      6  C   UNL     1      -2.642  -1.416  -0.330  0.00  0.00    +0.006 C 
BRANCH   6   9
ATOM      7  N   UNL     1      -3.879   1.962   0.671  0.00  0.00    -0.230 NA
ATOM      8  N   UNL     1      -5.937   3.075   0.217  0.00  0.00    -0.343 N 
ATOM      9  C   UNL     1      -3.526  -0.245  -0.200  0.00  0.00    +0.019 C 
ATOM     10  C   UNL     1      -4.772  -0.245  -0.793  0.00  0.00    +0.004 C 
ATOM     11  C   UNL     1      -3.118   0.857   0.513  0.00  0.00    +0.100 C 
ATOM     12  C   UNL     1      -5.585   0.874  -0.653  0.00  0.00    +0.034 C 
ATOM     13  C   UNL     1      -5.096   1.942   0.082  0.00  0.00    +0.125 C 
ATOM     14  H   UNL     1      -5.630   3.857   0.731  0.00  0.00    +0.144 HD
ATOM     15  H   UNL     1      -6.827   3.081  -0.204  0.00  0.00    +0.144 HD
ENDBRANCH   6   9
ENDBRANCH   4   5
BRANCH   2  16
ATOM     16  C   UNL     1       1.168  -1.719   1.319  0.00  0.00    +0.135 C 
BRANCH  16  18
ATOM     17  N   UNL     1       2.631   0.300   1.297  0.00  0.00    -0.287 N 
ATOM     18  C   UNL     1       2.059  -0.730   0.625  0.00  0.00    +0.049 C 
ATOM     19  C   UNL     1       3.390   1.048   0.426  0.00  0.00    +0.051 C 
ATOM     20  C   UNL     1       3.280   0.450  -0.832  0.00  0.00    +0.015 C 
ATOM     21  C   UNL     1       2.428  -0.680  -0.684  0.00  0.00    +0.013 C 
ATOM     22  C   UNL     1       2.477   0.580   2.710  0.00  0.00    +0.117 C 
ATOM     23  C   UNL     1       4.159   2.195   0.652  0.00  0.00    +0.015 C 
ATOM     24  C   UNL     1       3.969   1.024  -1.919  0.00  0.00    +0.001 C 
ATOM     25  C   UNL     1       4.833   2.747  -0.441  0.00  0.00    +0.001 C 
ATOM     26  C   UNL     1       4.742   2.172  -1.707  0.00  0.00    +0.000 C 
ENDBRANCH  16  18
ENDBRANCH   2  16
TORSDOF 4
