REMARK  Name = 2816
REMARK  1 active torsions:
REMARK  status: ('A' for Active; 'I' for Inactive)
REMARK    1  A    between atoms: C_6  and  C_20
REMARK                            x       y       z     vdW  Elec       q    Type
REMARK                         _______ _______ _______ _____ _____    ______ ____
ROOT
ATOM      1 CL   UNL     1       4.677  -1.566   0.416  0.00  0.00    -0.082 Cl
ATOM      2  O   UNL     1      -0.088  -0.597   2.130  0.00  0.00    -0.371 OA
ATOM      3  O   UNL     1      -1.672   3.002  -1.466  0.00  0.00    -0.277 OA
ATOM      4  N   UNL     1      -0.786   1.484   1.284  0.00  0.00    +0.417 N 
ATOM      5  N   UNL     1       0.168   1.651  -1.675  0.00  0.00    -0.286 N 
ATOM      6  C   UNL     1      -0.274   0.150   0.893  0.00  0.00    +0.097 C 
ATOM      7  C   UNL     1      -0.426   1.627   2.691  0.00  0.00    -0.040 C 
ATOM      8  C   UNL     1       1.069   0.195   0.123  0.00  0.00    +0.003 C 
ATOM      9  C   UNL     1      -0.608   0.216   3.185  0.00  0.00    +0.118 C 
ATOM     10  C   UNL     1      -0.369   2.637   0.508  0.00  0.00    +0.015 C 
ATOM     11  C   UNL     1       1.176   0.820  -1.141  0.00  0.00    +0.047 C 
ATOM     12  C   UNL     1      -0.710   2.431  -0.950  0.00  0.00    +0.205 C 
ATOM     13  C   UNL     1       2.187  -0.525   0.592  0.00  0.00    +0.009 C 
ATOM     14  C   UNL     1       2.312   0.621  -1.940  0.00  0.00    +0.015 C 
ATOM     15  C   UNL     1       3.337  -0.668  -0.186  0.00  0.00    +0.057 C 
ATOM     16  C   UNL     1       3.392  -0.113  -1.459  0.00  0.00    +0.013 C 
ATOM     17  H   UNL     1      -1.789   1.494   1.095  0.00  0.00    -0.074 HD
ATOM     18  H   UNL     1       0.084   1.677  -2.656  0.00  0.00    +0.155 HD
ENDROOT
BRANCH   6  20
ATOM     19 CL   UNL     1       0.349  -2.838   0.325  0.00  0.00    -0.083 Cl
ATOM     20  C   UNL     1      -1.323  -0.695   0.132  0.00  0.00    -0.001 C 
ATOM     21  C   UNL     1      -1.104  -2.039  -0.154  0.00  0.00    +0.054 C 
ATOM     22  C   UNL     1      -2.504  -0.074  -0.266  0.00  0.00    -0.003 C 
ATOM     23  C   UNL     1      -2.073  -2.769  -0.843  0.00  0.00    +0.011 C 
ATOM     24  C   UNL     1      -3.473  -0.803  -0.955  0.00  0.00    -0.000 C 
ATOM     25  C   UNL     1      -3.257  -2.150  -1.244  0.00  0.00    +0.001 C 
ENDBRANCH   6  20
TORSDOF 1
