REMARK  Name = 3343
REMARK  10 active torsions:
REMARK  status: ('A' for Active; 'I' for Inactive)
REMARK    1  A    between atoms: N_1  and  C_4
REMARK    2  A    between atoms: N_1  and  C_15
REMARK    3  A    between atoms: C_4  and  C_6
REMARK    4  A    between atoms: C_6  and  C_7
REMARK    5  A    between atoms: C_12  and  O_13
REMARK    6  A    between atoms: C_15  and  C_16
REMARK    7  A    between atoms: C_16  and  C_17
REMARK    8  A    between atoms: C_16  and  O_27
REMARK    9  A    between atoms: C_20  and  O_23
REMARK   10  A    between atoms: C_21  and  O_25
REMARK                            x       y       z     vdW  Elec       q    Type
REMARK                         _______ _______ _______ _____ _____    ______ ____
ROOT
ATOM      1  N   UNL     1       0.246   0.987  -0.791  0.00  0.00    +0.387 N 
ATOM      2  H   UNL     1       0.238   0.884  -1.805  0.00  0.00    -0.084 HD
ATOM      3  H   UNL     1       0.250   1.974  -0.535  0.00  0.00    -0.084 HD
ENDROOT
BRANCH   1   4
ATOM      4  C   UNL     1       1.454   0.354  -0.252  0.00  0.00    -0.057 C 
ATOM      5  C   UNL     1       1.424  -1.130  -0.619  0.00  0.00    -0.023 C 
BRANCH   4   6
ATOM      6  C   UNL     1       2.698   1.074  -0.802  0.00  0.00    +0.005 C 
BRANCH   6   7
ATOM      7  C   UNL     1       4.000   0.521  -0.272  0.00  0.00    -0.024 C 
ATOM      8  C   UNL     1       4.541   1.052   0.887  0.00  0.00    -0.001 C 
ATOM      9  C   UNL     1       4.628  -0.507  -0.956  0.00  0.00    -0.001 C 
ATOM     10  C   UNL     1       5.743   0.541   1.376  0.00  0.00    +0.036 C 
ATOM     11  C   UNL     1       5.831  -1.018  -0.467  0.00  0.00    +0.036 C 
ATOM     12  C   UNL     1       6.388  -0.494   0.699  0.00  0.00    +0.134 C 
BRANCH  12  13
ATOM     13  O   UNL     1       7.561  -0.993   1.177  0.00  0.00    -0.506 OA
ATOM     14  H   UNL     1       7.935  -0.640   1.960  0.00  0.00    +0.292 HD
ENDBRANCH  12  13
ENDBRANCH   6   7
ENDBRANCH   4   6
ENDBRANCH   1   4
BRANCH   1  15
ATOM     15  C   UNL     1      -0.947   0.365  -0.239  0.00  0.00    -0.047 C 
BRANCH  15  16
ATOM     16  C   UNL     1      -2.214   1.025  -0.798  0.00  0.00    +0.112 C 
BRANCH  16  17
ATOM     17  C   UNL     1      -3.465   0.389  -0.233  0.00  0.00    +0.008 C 
ATOM     18  C   UNL     1      -4.378   1.179   0.445  0.00  0.00    +0.035 C 
ATOM     19  C   UNL     1      -3.670  -0.969  -0.406  0.00  0.00    +0.035 C 
ATOM     20  C   UNL     1      -4.823  -1.556   0.115  0.00  0.00    +0.136 C 
ATOM     21  C   UNL     1      -5.531   0.592   0.965  0.00  0.00    +0.136 C 
ATOM     22  C   UNL     1      -5.754  -0.775   0.801  0.00  0.00    +0.073 C 
BRANCH  20  23
ATOM     23  O   UNL     1      -5.041  -2.889  -0.046  0.00  0.00    -0.505 OA
ATOM     24  H   UNL     1      -4.416  -3.414  -0.507  0.00  0.00    +0.292 HD
ENDBRANCH  20  23
BRANCH  21  25
ATOM     25  O   UNL     1      -6.440   1.354   1.634  0.00  0.00    -0.505 OA
ATOM     26  H   UNL     1      -6.290   2.273   1.744  0.00  0.00    +0.292 HD
ENDBRANCH  21  25
ENDBRANCH  16  17
BRANCH  16  27
ATOM     27  O   UNL     1      -2.251   0.898  -2.218  0.00  0.00    -0.382 OA
ATOM     28  H   UNL     1      -1.456   1.301  -2.600  0.00  0.00    +0.211 HD
ENDBRANCH  16  27
ENDBRANCH  15  16
ENDBRANCH   1  15
TORSDOF 10
