REMARK  Name = 3354
REMARK  6 active torsions:
REMARK  status: ('A' for Active; 'I' for Inactive)
REMARK    1  A    between atoms: C_3  and  C_20
REMARK    2  A    between atoms: C_7  and  C_13
REMARK    3  A    between atoms: C_20  and  O_21
REMARK    4  A    between atoms: O_21  and  C_22
REMARK    5  A    between atoms: C_22  and  C_23
REMARK    6  A    between atoms: C_23  and  N_24
REMARK                            x       y       z     vdW  Elec       q    Type
REMARK                         _______ _______ _______ _____ _____    ______ ____
ROOT
ATOM      1  O   UNL     1       1.838  -0.046   0.165  0.00  0.00    -0.453 OA
ATOM      2  O   UNL     1       4.734  -2.786  -0.655  0.00  0.00    -0.287 OA
ATOM      3  C   UNL     1       0.207  -1.738   0.376  0.00  0.00    +0.110 C 
ATOM      4  C   UNL     1       1.532  -1.380   0.126  0.00  0.00    +0.154 A 
ATOM      5  C   UNL     1       2.480  -2.360  -0.149  0.00  0.00    +0.073 A 
ATOM      6  C   UNL     1       4.166  -0.494  -0.355  0.00  0.00    +0.052 A 
ATOM      7  C   UNL     1       3.143   0.342  -0.083  0.00  0.00    +0.144 A 
ATOM      8  C   UNL     1       3.870  -1.955  -0.408  0.00  0.00    +0.197 A 
ATOM      9  C   UNL     1      -0.165  -3.082   0.350  0.00  0.00    +0.010 C 
ATOM     10  C   UNL     1       2.110  -3.708  -0.177  0.00  0.00    +0.006 C 
ATOM     11  C   UNL     1       0.785  -4.065   0.074  0.00  0.00    +0.001 C 
ATOM     12  C   UNL     1       5.596  -0.110  -0.605  0.00  0.00    +0.038 C 
ENDROOT
BRANCH   7  13
ATOM     13  C   UNL     1       3.308   1.800  -0.010  0.00  0.00    +0.034 C 
ATOM     14  C   UNL     1       3.142   2.579  -1.156  0.00  0.00    +0.003 C 
ATOM     15  C   UNL     1       3.629   2.407   1.204  0.00  0.00    +0.003 C 
ATOM     16  C   UNL     1       3.297   3.963  -1.087  0.00  0.00    +0.000 C 
ATOM     17  C   UNL     1       3.785   3.792   1.273  0.00  0.00    +0.000 C 
ATOM     18  C   UNL     1       3.619   4.570   0.127  0.00  0.00    +0.000 C 
ENDBRANCH   7  13
BRANCH   3  20
ATOM     19  O   UNL     1      -0.582   0.345   1.226  0.00  0.00    -0.245 OA
ATOM     20  C   UNL     1      -0.808  -0.734   0.667  0.00  0.00    +0.344 C 
BRANCH  20  21
ATOM     21  O   UNL     1      -2.044  -1.135   0.241  0.00  0.00    -0.448 OA
BRANCH  21  22
ATOM     22  C   UNL     1      -3.129  -0.229   0.470  0.00  0.00    +0.186 C 
BRANCH  22  23
ATOM     23  C   UNL     1      -4.407  -0.852  -0.069  0.00  0.00    -0.029 C 
BRANCH  23  24
ATOM     24  N   UNL     1      -5.549   0.033   0.159  0.00  0.00    +0.389 N 
ATOM     25  C   UNL     1      -5.362   1.307  -0.550  0.00  0.00    -0.077 C 
ATOM     26  C   UNL     1      -6.798  -0.624  -0.251  0.00  0.00    -0.077 C 
ATOM     27  C   UNL     1      -6.525   2.263  -0.282  0.00  0.00    -0.023 C 
ATOM     28  C   UNL     1      -8.009   0.269   0.027  0.00  0.00    -0.023 C 
ATOM     29  C   UNL     1      -7.861   1.628  -0.649  0.00  0.00    -0.004 C 
ATOM     30  H   UNL     1      -5.613   0.234   1.157  0.00  0.00    -0.080 HD
ENDBRANCH  23  24
ENDBRANCH  22  23
ENDBRANCH  21  22
ENDBRANCH  20  21
ENDBRANCH   3  20
TORSDOF 6
