REMARK  Name = 154059
REMARK  3 active torsions:
REMARK  status: ('A' for Active; 'I' for Inactive)
REMARK    1  A    between atoms: C_3  and  O_19
REMARK    2  A    between atoms: C_4  and  C_13
REMARK    3  A    between atoms: O_19  and  C_22
REMARK                            x       y       z     vdW  Elec       q    Type
REMARK                         _______ _______ _______ _____ _____    ______ ____
ROOT
ATOM      1  O   UNL     1       1.020  -2.857  -0.440  0.00  0.00    -0.226 OA
ATOM      2  N   UNL     1      -0.804  -1.423  -0.195  0.00  0.00    -0.240 N 
ATOM      3  C   UNL     1       0.549  -1.785  -0.061  0.00  0.00    +0.405 C 
ATOM      4  C   UNL     1      -1.378  -0.227   0.485  0.00  0.00    +0.123 C 
ATOM      5  C   UNL     1      -1.710  -2.387  -0.827  0.00  0.00    +0.102 C 
ATOM      6  C   UNL     1      -2.900  -0.199   0.526  0.00  0.00    -0.004 C 
ATOM      7  C   UNL     1      -2.948  -1.751  -1.442  0.00  0.00    +0.048 C 
ATOM      8  C   UNL     1      -3.656  -0.915  -0.416  0.00  0.00    -0.023 C 
ATOM      9  C   UNL     1      -3.567   0.574   1.489  0.00  0.00    -0.003 C 
ATOM     10  C   UNL     1      -5.054  -0.826  -0.407  0.00  0.00    -0.004 C 
ATOM     11  C   UNL     1      -4.960   0.645   1.503  0.00  0.00    -0.000 C 
ATOM     12  C   UNL     1      -5.702  -0.051   0.553  0.00  0.00    -0.000 C 
ENDROOT
BRANCH   4  13
ATOM     13  C   UNL     1      -0.820   1.077  -0.085  0.00  0.00    -0.000 C 
ATOM     14  C   UNL     1      -0.708   2.193   0.735  0.00  0.00    -0.002 C 
ATOM     15  C   UNL     1      -0.429   1.133  -1.417  0.00  0.00    -0.002 C 
ATOM     16  C   UNL     1      -0.198   3.383   0.216  0.00  0.00    -0.000 C 
ATOM     17  C   UNL     1       0.081   2.323  -1.937  0.00  0.00    -0.000 C 
ATOM     18  C   UNL     1       0.197   3.448  -1.121  0.00  0.00    -0.000 C 
ENDBRANCH   4  13
BRANCH   3  19
ATOM     19  O   UNL     1       1.300  -0.813   0.547  0.00  0.00    -0.441 OA
BRANCH  19  22
ATOM     20  N   UNL     1       4.526  -0.450  -0.836  0.00  0.00    +0.389 N 
ATOM     21  C   UNL     1       3.379   0.073   1.436  0.00  0.00    +0.034 C 
ATOM     22  C   UNL     1       2.689  -1.107   0.726  0.00  0.00    +0.150 C 
ATOM     23  C   UNL     1       3.346   1.297   0.504  0.00  0.00    -0.019 C 
ATOM     24  C   UNL     1       4.851  -0.313   1.641  0.00  0.00    -0.019 C 
ATOM     25  C   UNL     1       3.366  -1.349  -0.635  0.00  0.00    -0.033 C 
ATOM     26  C   UNL     1       4.047   0.949  -0.819  0.00  0.00    -0.077 C 
ATOM     27  C   UNL     1       5.482  -0.641   0.278  0.00  0.00    -0.077 C 
ATOM     28  H   UNL     1       4.982  -0.658  -1.724  0.00  0.00    -0.080 HD
ENDBRANCH  19  22
ENDBRANCH   3  19
TORSDOF 3
