REMARK  Name = 5288259
REMARK  12 active torsions:
REMARK  status: ('A' for Active; 'I' for Inactive)
REMARK    1  A    between atoms: N_2  and  C_19
REMARK    2  A    between atoms: C_3  and  O_5
REMARK    3  A    between atoms: O_5  and  C_6
REMARK    4  A    between atoms: C_6  and  C_7
REMARK    5  A    between atoms: C_7  and  C_11
REMARK    6  A    between atoms: C_11  and  C_13
REMARK    7  A    between atoms: C_19  and  C_21
REMARK    8  A    between atoms: C_19  and  C_32
REMARK    9  A    between atoms: C_21  and  C_24
REMARK   10  A    between atoms: N_23  and  C_28
REMARK   11  A    between atoms: C_32  and  C_33
REMARK   12  A    between atoms: C_33  and  C_34
REMARK                            x       y       z     vdW  Elec       q    Type
REMARK                         _______ _______ _______ _____ _____    ______ ____
ROOT
ATOM      1  O   UNL     1      -1.709  -1.398  -1.685  0.00  0.00    -0.226 OA
ATOM      2  N   UNL     1      -2.317  -0.158   0.180  0.00  0.00    -0.265 N 
ATOM      3  C   UNL     1      -1.539  -1.063  -0.518  0.00  0.00    +0.402 C 
ATOM      4  H   UNL     1      -2.080   0.031   1.116  0.00  0.00    +0.153 HD
ENDROOT
BRANCH   3   5
ATOM      5  O   UNL     1      -0.542  -1.536   0.288  0.00  0.00    -0.435 OA
BRANCH   5   6
ATOM      6  C   UNL     1       0.345  -2.489  -0.310  0.00  0.00    +0.210 C 
BRANCH   6   7
ATOM      7  C   UNL     1       1.378  -2.901   0.721  0.00  0.00    +0.045 C 
ATOM      8  C   UNL     1       0.890  -3.975   1.714  0.00  0.00    +0.004 C 
ATOM      9  C   UNL     1       2.398  -3.942   0.214  0.00  0.00    +0.004 C 
ATOM     10  C   UNL     1       1.426  -5.028   0.721  0.00  0.00    +0.000 C 
BRANCH   7  11
ATOM     11  C   UNL     1       2.003  -1.692   1.375  0.00  0.00    +0.030 C 
BRANCH  11  13
ATOM     12  F   UNL     1       5.368   0.993  -2.269  0.00  0.00    -0.204 F 
ATOM     13  C   UNL     1       2.904  -0.973   0.399  0.00  0.00    -0.022 C 
ATOM     14  C   UNL     1       2.388   0.037  -0.413  0.00  0.00    -0.002 C 
ATOM     15  C   UNL     1       4.253  -1.318   0.310  0.00  0.00    -0.002 C 
ATOM     16  C   UNL     1       3.220   0.701  -1.315  0.00  0.00    +0.029 C 
ATOM     17  C   UNL     1       5.085  -0.654  -0.591  0.00  0.00    +0.029 C 
ATOM     18  C   UNL     1       4.569   0.355  -1.403  0.00  0.00    +0.140 C 
ENDBRANCH  11  13
ENDBRANCH   7  11
ENDBRANCH   6   7
ENDBRANCH   5   6
ENDBRANCH   3   5
BRANCH   2  19
ATOM     19  C   UNL     1      -3.452   0.525  -0.382  0.00  0.00    +0.141 C 
BRANCH  19  21
ATOM     20  O   UNL     1      -4.063   2.878  -0.511  0.00  0.00    -0.285 OA
ATOM     21  C   UNL     1      -3.189   2.023  -0.443  0.00  0.00    +0.244 C 
BRANCH  21  24
ATOM     22  O   UNL     1      -1.274   2.586  -1.625  0.00  0.00    -0.267 OA
ATOM     23  N   UNL     1      -1.262   2.771   0.742  0.00  0.00    -0.266 N 
ATOM     24  C   UNL     1      -1.770   2.513  -0.513  0.00  0.00    +0.287 C 
ATOM     25  H   UNL     1      -1.856   2.613   1.511  0.00  0.00    +0.156 HD
BRANCH  23  28
ATOM     26  N   UNL     1       0.933   3.490   0.026  0.00  0.00    -0.223 N 
ATOM     27  N   UNL     1       2.119   3.933   0.479  0.00  0.00    -0.179 NA
ATOM     28  C   UNL     1       0.026   3.237   1.013  0.00  0.00    +0.120 C 
ATOM     29  C   UNL     1       0.662   3.534   2.193  0.00  0.00    +0.054 C 
ATOM     30  C   UNL     1       1.947   3.957   1.804  0.00  0.00    +0.120 C 
ATOM     31  H   UNL     1       0.738   3.361  -0.930  0.00  0.00    +0.176 HD
ENDBRANCH  23  28
ENDBRANCH  21  24
ENDBRANCH  19  21
BRANCH  19  32
ATOM     32  C   UNL     1      -4.733   0.244   0.411  0.00  0.00    +0.028 C 
BRANCH  32  33
ATOM     33  C   UNL     1      -5.066  -1.242   0.595  0.00  0.00    +0.002 C 
BRANCH  33  34
ATOM     34  C   UNL     1      -5.341  -1.970  -0.721  0.00  0.00    +0.000 C 
ATOM     35  C   UNL     1      -5.658  -3.439  -0.486  0.00  0.00    +0.000 C 
ENDBRANCH  33  34
ENDBRANCH  32  33
ENDBRANCH  19  32
ENDBRANCH   2  19
TORSDOF 12
