REMARK  Name = 656969
REMARK  5 active torsions:
REMARK  status: ('A' for Active; 'I' for Inactive)
REMARK    1  A    between atoms: N_1  and  C_8
REMARK    2  A    between atoms: C_4  and  C_18
REMARK    3  A    between atoms: C_11  and  N_16
REMARK    4  A    between atoms: C_18  and  O_19
REMARK    5  A    between atoms: O_19  and  C_20
REMARK                            x       y       z     vdW  Elec       q    Type
REMARK                         _______ _______ _______ _____ _____    ______ ____
ROOT
ATOM      1  N   UNL     1       0.104   0.123   0.279  0.00  0.00    -0.234 N 
ATOM      2  N   UNL     1      -0.255  -1.103   0.716  0.00  0.00    -0.170 NA
ATOM      3  C   UNL     1      -0.970   0.913  -0.042  0.00  0.00    +0.068 A 
ATOM      4  C   UNL     1      -2.090   0.156   0.200  0.00  0.00    +0.104 A 
ATOM      5  C   UNL     1      -1.590  -1.075   0.665  0.00  0.00    +0.087 A 
ATOM      6  C   UNL     1      -0.825   2.295  -0.543  0.00  0.00    +0.052 C 
ATOM      7  C   UNL     1      -2.356  -2.265   1.077  0.00  0.00    +0.054 C 
ENDROOT
BRANCH   1   8
ATOM      8  C   UNL     1       1.440   0.467   0.194  0.00  0.00    +0.084 C 
ATOM      9  C   UNL     1       2.400  -0.513  -0.059  0.00  0.00    +0.043 C 
ATOM     10  C   UNL     1       1.829   1.796   0.364  0.00  0.00    +0.019 C 
ATOM     11  C   UNL     1       3.748  -0.165  -0.143  0.00  0.00    +0.144 C 
ATOM     12  C   UNL     1       3.177   2.145   0.281  0.00  0.00    +0.003 C 
ATOM     13  C   UNL     1       4.137   1.164   0.027  0.00  0.00    +0.024 C 
BRANCH  11  16
ATOM     14  O   UNL     1       5.932  -0.827  -0.474  0.00  0.00    -0.126 OA
ATOM     15  O   UNL     1       4.354  -2.352  -0.551  0.00  0.00    -0.126 OA
ATOM     16  N   UNL     1       4.725  -1.162  -0.402  0.00  0.00    +0.058 N 
ENDBRANCH  11  16
ENDBRANCH   1   8
BRANCH   4  18
ATOM     17  O   UNL     1      -3.841   1.748   0.112  0.00  0.00    -0.245 OA
ATOM     18  C   UNL     1      -3.447   0.572   0.005  0.00  0.00    +0.344 C 
BRANCH  18  19
ATOM     19  O   UNL     1      -4.315  -0.453  -0.317  0.00  0.00    -0.445 OA
BRANCH  19  20
ATOM     20  C   UNL     1      -5.689  -0.106  -0.525  0.00  0.00    +0.209 C 
ATOM     21  C   UNL     1      -6.468  -1.359  -0.866  0.00  0.00    +0.051 C 
ENDBRANCH  19  20
ENDBRANCH  18  19
ENDBRANCH   4  18
TORSDOF 5
