REMARK  Name = 93036
REMARK  7 active torsions:
REMARK  status: ('A' for Active; 'I' for Inactive)
REMARK    1  A    between atoms: C_2  and  O_16
REMARK    2  A    between atoms: C_3  and  C_18
REMARK    3  A    between atoms: C_5  and  N_9
REMARK    4  A    between atoms: C_18  and  O_19
REMARK    5  A    between atoms: O_19  and  P_20
REMARK    6  A    between atoms: P_20  and  O_22
REMARK    7  A    between atoms: P_20  and  O_24
REMARK                            x       y       z     vdW  Elec       q    Type
REMARK                         _______ _______ _______ _____ _____    ______ ____
ROOT
ATOM      1  O   UNL     1      -0.424   1.360   1.018  0.00  0.00    -0.335 OA
ATOM      2  C   UNL     1      -0.988   2.891  -0.702  0.00  0.00    +0.144 C 
ATOM      3  C   UNL     1      -1.553   1.889   0.295  0.00  0.00    +0.174 C 
ATOM      4  C   UNL     1       0.393   2.347  -0.989  0.00  0.00    +0.083 C 
ATOM      5  C   UNL     1       0.787   1.732   0.344  0.00  0.00    +0.202 C 
ENDROOT
BRANCH   5   9
ATOM      6 BR   UNL     1       0.820  -3.446  -0.366  0.00  0.00    -0.043 Br
ATOM      7  O   UNL     1       3.634   1.745   0.386  0.00  0.00    -0.252 OA
ATOM      8  O   UNL     1       3.843  -2.804  -0.235  0.00  0.00    -0.269 OA
ATOM      9  N   UNL     1       1.622   0.576   0.198  0.00  0.00    -0.218 N 
ATOM     10  N   UNL     1       3.719  -0.526   0.076  0.00  0.00    -0.235 N 
ATOM     11  C   UNL     1       3.029   0.682   0.232  0.00  0.00    +0.315 C 
ATOM     12  C   UNL     1       1.016  -0.662   0.019  0.00  0.00    +0.082 C 
ATOM     13  C   UNL     1       1.682  -1.812  -0.129  0.00  0.00    +0.103 C 
ATOM     14  C   UNL     1       3.168  -1.787  -0.104  0.00  0.00    +0.260 C 
ATOM     15  H   UNL     1       4.702  -0.475   0.097  0.00  0.00    +0.159 HD
ENDBRANCH   5   9
BRANCH   2  16
ATOM     16  O   UNL     1      -0.882   4.176  -0.093  0.00  0.00    -0.382 OA
ATOM     17  H   UNL     1      -1.769   4.521   0.089  0.00  0.00    +0.210 HD
ENDBRANCH   2  16
BRANCH   3  18
ATOM     18  C   UNL     1      -2.268   0.724  -0.375  0.00  0.00    +0.186 C 
BRANCH  18  19
ATOM     19  O   UNL     1      -2.748  -0.157   0.628  0.00  0.00    -0.271 OA
BRANCH  19  20
ATOM     20  P   UNL     1      -3.551  -1.485   0.168  0.00  0.00    +0.473 P 
ATOM     21  O   UNL     1      -4.023  -2.361   1.290  0.00  0.00    -0.227 OA
BRANCH  20  22
ATOM     22  O   UNL     1      -2.550  -2.192  -0.888  0.00  0.00    -0.303 OA
ATOM     23  H   UNL     1      -2.300  -1.554  -1.573  0.00  0.00    +0.222 HD
ENDBRANCH  20  22
BRANCH  20  24
ATOM     24  O   UNL     1      -4.723  -0.889  -0.773  0.00  0.00    -0.303 OA
ATOM     25  H   UNL     1      -4.331  -0.338  -1.468  0.00  0.00    +0.222 HD
ENDBRANCH  20  24
ENDBRANCH  19  20
ENDBRANCH  18  19
ENDBRANCH   3  18
TORSDOF 7
