REMARK  Name = 6087
REMARK  6 active torsions:
REMARK  status: ('A' for Active; 'I' for Inactive)
REMARK    1  A    between atoms: N_2  and  CA_11
REMARK    2  A    between atoms: C_3  and  C_19
REMARK    3  A    between atoms: CA_10  and  C_16
REMARK    4  A    between atoms: C_16  and  O_17
REMARK    5  A    between atoms: C_20  and  O_25
REMARK    6  A    between atoms: C_21  and  O_27
REMARK                            x       y       z     vdW  Elec       q    Type
REMARK                         _______ _______ _______ _____ _____    ______ ____
ROOT
ATOM      1  O   UNL     1       1.962  -0.613   2.063  0.00  0.00    -0.270 OA
ATOM      2  N   UNL     1       0.549  -0.641   0.227  0.00  0.00    -0.293 N 
ATOM      3  C   UNL     1       1.754  -0.441   0.864  0.00  0.00    +0.252 C 
ATOM      4  H   UNL     1       0.487  -0.474  -0.741  0.00  0.00    +0.150 HD
ENDROOT
BRANCH   2  11
ATOM      5  S   UNL     1      -1.568   1.573   0.435  0.00  0.00    -0.118 S 
ATOM      6  O   UNL     1      -1.727  -2.667  -0.749  0.00  0.00    -0.273 OA
ATOM      7  N   UNL     1      -2.622  -0.796   0.377  0.00  0.00    -0.260 N 
ATOM      8  C   UNL     1      -1.726  -0.050   1.265  0.00  0.00    +0.151 C 
ATOM      9  C   UNL     1      -3.296   1.437  -0.245  0.00  0.00    +0.068 C 
ATOM     10  CA  UNL     1      -3.443  -0.066  -0.568  0.00  0.00    +0.184 C 
ATOM     11  CA  UNL     1      -0.648  -1.096   0.949  0.00  0.00    +0.178 C 
ATOM     12  C   UNL     1      -1.710  -1.757   0.048  0.00  0.00    +0.247 C 
ATOM     13  C   UNL     1      -4.267   1.957   0.823  0.00  0.00    +0.013 C 
ATOM     14  C   UNL     1      -3.401   2.292  -1.510  0.00  0.00    +0.013 C 
BRANCH  10  16
ATOM     15  OXT UNL     1      -5.192  -1.457   0.345  0.00  0.00    -0.248 OA
ATOM     16  C   UNL     1      -4.832  -0.610  -0.459  0.00  0.00    +0.333 C 
BRANCH  16  17
ATOM     17  O   UNL     1      -5.645  -0.036  -1.379  0.00  0.00    -0.479 OA
ATOM     18  H   UNL     1      -5.305   0.609  -1.967  0.00  0.00    +0.295 HD
ENDBRANCH  16  17
ENDBRANCH  10  16
ENDBRANCH   2  11
BRANCH   3  19
ATOM     19  C   UNL     1       2.857   0.045  -0.003  0.00  0.00    +0.121 C 
ATOM     20  C   UNL     1       3.040   1.406  -0.155  0.00  0.00    +0.146 C 
ATOM     21  C   UNL     1       3.671  -0.876  -0.633  0.00  0.00    +0.146 C 
ATOM     22  C   UNL     1       4.076   1.863  -0.970  0.00  0.00    +0.037 C 
ATOM     23  C   UNL     1       4.707  -0.419  -1.448  0.00  0.00    +0.037 C 
ATOM     24  C   UNL     1       4.909   0.951  -1.616  0.00  0.00    +0.006 C 
BRANCH  20  25
ATOM     25  O   UNL     1       2.237   2.315   0.468  0.00  0.00    -0.471 OA
ATOM     26  C   UNL     1       2.639   2.753   1.764  0.00  0.00    +0.252 C 
ENDBRANCH  20  25
BRANCH  21  27
ATOM     27  O   UNL     1       3.490  -2.219  -0.483  0.00  0.00    -0.471 OA
ATOM     28  C   UNL     1       4.188  -2.850   0.589  0.00  0.00    +0.252 C 
ENDBRANCH  21  27
ENDBRANCH   3  19
TORSDOF 6
