REMARK  Name = 25223
REMARK  3 active torsions:
REMARK  status: ('A' for Active; 'I' for Inactive)
REMARK    1  A    between atoms: C_1  and  C_3
REMARK    2  A    between atoms: C_1  and  C_9
REMARK    3  A    between atoms: C_9  and  N_12
REMARK                            x       y       z     vdW  Elec       q    Type
REMARK                         _______ _______ _______ _____ _____    ______ ____
ROOT
ATOM      1  C   UNL     1       1.012   0.081  -0.983  0.00  0.00    +0.007 C 
ENDROOT
BRANCH   1   3
ATOM      2 CL   UNL     1      -0.394  -2.551  -0.208  0.00  0.00    -0.083 Cl
ATOM      3  C   UNL     1      -0.415   0.160  -0.491  0.00  0.00    -0.014 C 
ATOM      4  C   UNL     1      -1.110  -0.983  -0.124  0.00  0.00    +0.054 C 
ATOM      5  C   UNL     1      -1.004   1.413  -0.418  0.00  0.00    -0.004 C 
ATOM      6  C   UNL     1      -2.425  -0.870   0.326  0.00  0.00    +0.011 C 
ATOM      7  C   UNL     1      -2.320   1.526   0.032  0.00  0.00    -0.000 C 
ATOM      8  C   UNL     1      -3.030   0.385   0.404  0.00  0.00    +0.001 C 
ENDBRANCH   1   3
BRANCH   1   9
ATOM      9  C   UNL     1       2.119   0.184   0.098  0.00  0.00    -0.045 C 
ATOM     10  C   UNL     1       2.059   1.510   0.869  0.00  0.00    -0.022 C 
ATOM     11  C   UNL     1       2.085  -0.993   1.083  0.00  0.00    -0.022 C 
BRANCH   9  12
ATOM     12  N   UNL     1       3.423   0.139  -0.588  0.00  0.00    +0.383 N 
ATOM     13  H   UNL     1       3.484   0.909  -1.254  0.00  0.00    -0.089 HD
ATOM     14  H   UNL     1       3.516  -0.748  -1.084  0.00  0.00    -0.089 HD
ATOM     15  H   UNL     1       4.172   0.223   0.100  0.00  0.00    -0.089 HD
ENDBRANCH   9  12
ENDBRANCH   1   9
TORSDOF 3
