REMARK  Name = 5574
REMARK  4 active torsions:
REMARK  status: ('A' for Active; 'I' for Inactive)
REMARK    1  A    between atoms: N_2  and  C_15
REMARK    2  A    between atoms: C_15  and  C_16
REMARK    3  A    between atoms: C_16  and  C_18
REMARK    4  A    between atoms: C_18  and  N_19
REMARK                            x       y       z     vdW  Elec       q    Type
REMARK                         _______ _______ _______ _____ _____    ______ ____
ROOT
ATOM      1  S   UNL     1      -2.648   1.123   1.288  0.00  0.00    -0.084 S 
ATOM      2  N   UNL     1      -0.447  -0.141  -0.508  0.00  0.00    -0.286 N 
ATOM      3  C   UNL     1      -1.602  -0.937  -0.298  0.00  0.00    +0.058 C 
ATOM      4  C   UNL     1      -0.393   1.269  -0.369  0.00  0.00    +0.058 C 
ATOM      5  C   UNL     1      -2.678  -0.464   0.479  0.00  0.00    +0.043 C 
ATOM      6  C   UNL     1      -1.350   1.960   0.400  0.00  0.00    +0.043 C 
ATOM      7  C   UNL     1      -1.745  -2.215  -0.880  0.00  0.00    +0.015 C 
ATOM      8  C   UNL     1       0.591   2.047  -1.017  0.00  0.00    +0.015 C 
ATOM      9  C   UNL     1      -3.824  -1.255   0.678  0.00  0.00    +0.008 C 
ATOM     10  C   UNL     1      -1.297   3.360   0.528  0.00  0.00    +0.008 C 
ATOM     11  C   UNL     1      -2.888  -2.995  -0.683  0.00  0.00    +0.001 C 
ATOM     12  C   UNL     1       0.637   3.438  -0.890  0.00  0.00    +0.001 C 
ATOM     13  C   UNL     1      -3.927  -2.516   0.099  0.00  0.00    +0.001 C 
ATOM     14  C   UNL     1      -0.306   4.095  -0.114  0.00  0.00    +0.001 C 
ENDROOT
BRANCH   2  15
ATOM     15  C   UNL     1       0.768  -0.822  -0.971  0.00  0.00    +0.093 C 
BRANCH  15  16
ATOM     16  C   UNL     1       1.916  -0.705   0.048  0.00  0.00    -0.001 C 
ATOM     17  C   UNL     1       1.514  -1.292   1.406  0.00  0.00    -0.000 C 
BRANCH  16  18
ATOM     18  C   UNL     1       3.233  -1.345  -0.431  0.00  0.00    -0.076 C 
BRANCH  18  19
ATOM     19  N   UNL     1       4.325  -1.116   0.509  0.00  0.00    +0.384 N 
ATOM     20  C   UNL     1       4.583   0.317   0.660  0.00  0.00    -0.101 C 
ATOM     21  C   UNL     1       5.538  -1.807   0.067  0.00  0.00    -0.101 C 
ATOM     22  H   UNL     1       4.051  -1.493   1.416  0.00  0.00    -0.080 HD
ENDBRANCH  18  19
ENDBRANCH  16  18
ENDBRANCH  15  16
ENDBRANCH   2  15
TORSDOF 4
