REMARK  Name = 4883
REMARK  8 active torsions:
REMARK  status: ('A' for Active; 'I' for Inactive)
REMARK    1  A    between atoms: O_1  and  C_2
REMARK    2  A    between atoms: O_1  and  C_13
REMARK    3  A    between atoms: C_5  and  N_9
REMARK    4  A    between atoms: C_13  and  C_14
REMARK    5  A    between atoms: C_14  and  O_15
REMARK    6  A    between atoms: C_14  and  C_17
REMARK    7  A    between atoms: C_17  and  N_18
REMARK    8  A    between atoms: N_18  and  C_21
REMARK                            x       y       z     vdW  Elec       q    Type
REMARK                         _______ _______ _______ _____ _____    ______ ____
ROOT
ATOM      1  O   UNL     1      -1.292  -1.599  -0.479  0.00  0.00    -0.473 OA
ENDROOT
BRANCH   1   2
ATOM      2  C   UNL     1      -0.006  -1.216  -0.204  0.00  0.00    +0.139 C 
ATOM      3  C   UNL     1       0.713  -0.489  -1.147  0.00  0.00    +0.038 C 
ATOM      4  C   UNL     1       0.570  -1.560   1.014  0.00  0.00    +0.038 C 
ATOM      5  C   UNL     1       2.607  -0.442   0.352  0.00  0.00    +0.051 C 
ATOM      6  C   UNL     1       2.023  -0.101  -0.868  0.00  0.00    +0.018 C 
ATOM      7  C   UNL     1       1.880  -1.171   1.294  0.00  0.00    +0.018 C 
BRANCH   5   9
ATOM      8  O   UNL     1       4.577   1.119  -1.304  0.00  0.00    -0.275 OA
ATOM      9  N   UNL     1       3.917  -0.053   0.631  0.00  0.00    -0.284 N 
ATOM     10  C   UNL     1       4.795   0.676  -0.182  0.00  0.00    +0.227 C 
ATOM     11  C   UNL     1       6.130   0.890   0.488  0.00  0.00    +0.095 C 
ATOM     12  H   UNL     1       4.270  -0.326   1.510  0.00  0.00    +0.155 HD
ENDBRANCH   5   9
ENDBRANCH   1   2
BRANCH   1  13
ATOM     13  C   UNL     1      -2.174  -1.723   0.633  0.00  0.00    +0.232 C 
BRANCH  13  14
ATOM     14  C   UNL     1      -3.593  -1.393   0.175  0.00  0.00    +0.133 C 
BRANCH  14  15
ATOM     15  O   UNL     1      -3.955  -2.294  -0.875  0.00  0.00    -0.383 OA
ATOM     16  H   UNL     1      -4.855  -2.095  -1.175  0.00  0.00    +0.210 HD
ENDBRANCH  14  15
BRANCH  14  17
ATOM     17  C   UNL     1      -3.743   0.037  -0.349  0.00  0.00    -0.048 C 
BRANCH  17  18
ATOM     18  N   UNL     1      -3.357   1.029   0.646  0.00  0.00    +0.387 N 
ATOM     19  H   UNL     1      -2.394   0.855   0.934  0.00  0.00    -0.084 HD
ATOM     20  H   UNL     1      -3.988   0.953   1.443  0.00  0.00    -0.084 HD
BRANCH  18  21
ATOM     21  C   UNL     1      -3.455   2.377   0.102  0.00  0.00    -0.062 C 
ATOM     22  C   UNL     1      -3.093   3.388   1.185  0.00  0.00    -0.023 C 
ATOM     23  C   UNL     1      -2.545   2.525  -1.113  0.00  0.00    -0.023 C 
ENDBRANCH  18  21
ENDBRANCH  17  18
ENDBRANCH  14  17
ENDBRANCH  13  14
ENDBRANCH   1  13
TORSDOF 8
