REMARK  Name = 39147
REMARK  9 active torsions:
REMARK  status: ('A' for Active; 'I' for Inactive)
REMARK    1  A    between atoms: C_1  and  O_11
REMARK    2  A    between atoms: C_2  and  O_13
REMARK    3  A    between atoms: C_7  and  O_15
REMARK    4  A    between atoms: O_15  and  C_16
REMARK    5  A    between atoms: C_16  and  C_17
REMARK    6  A    between atoms: C_17  and  O_18
REMARK    7  A    between atoms: C_17  and  C_20
REMARK    8  A    between atoms: C_20  and  N_21
REMARK    9  A    between atoms: N_21  and  C_24
REMARK                            x       y       z     vdW  Elec       q    Type
REMARK                         _______ _______ _______ _____ _____    ______ ____
ROOT
ATOM      1  C   UNL     1      -1.746  -2.133   0.985  0.00  0.00    +0.142 C 
ATOM      2  C   UNL     1      -2.900  -2.368   0.011  0.00  0.00    +0.142 C 
ATOM      3  C   UNL     1      -0.903  -0.928   0.566  0.00  0.00    +0.061 C 
ATOM      4  C   UNL     1      -3.836  -1.157  -0.010  0.00  0.00    +0.058 C 
ATOM      5  C   UNL     1      -1.739   0.279   0.223  0.00  0.00    +0.010 C 
ATOM      6  C   UNL     1      -3.109   0.167  -0.079  0.00  0.00    -0.021 C 
ATOM      7  C   UNL     1      -1.119   1.537   0.155  0.00  0.00    +0.134 C 
ATOM      8  C   UNL     1      -3.838   1.321  -0.408  0.00  0.00    -0.004 C 
ATOM      9  C   UNL     1      -1.853   2.674  -0.182  0.00  0.00    +0.037 C 
ATOM     10  C   UNL     1      -3.212   2.567  -0.461  0.00  0.00    +0.003 C 
ENDROOT
BRANCH   1  11
ATOM     11  O   UNL     1      -0.927  -3.297   1.027  0.00  0.00    -0.382 OA
ATOM     12  H   UNL     1      -1.463  -4.060   1.292  0.00  0.00    +0.210 HD
ENDBRANCH   1  11
BRANCH   2  13
ATOM     13  O   UNL     1      -2.384  -2.595  -1.302  0.00  0.00    -0.382 OA
ATOM     14  H   UNL     1      -1.791  -3.362  -1.288  0.00  0.00    +0.210 HD
ENDBRANCH   2  13
BRANCH   7  15
ATOM     15  O   UNL     1       0.211   1.679   0.423  0.00  0.00    -0.473 OA
BRANCH  15  16
ATOM     16  C   UNL     1       1.027   2.204  -0.621  0.00  0.00    +0.232 C 
BRANCH  16  17
ATOM     17  C   UNL     1       2.467   2.300  -0.121  0.00  0.00    +0.133 C 
BRANCH  17  18
ATOM     18  O   UNL     1       2.507   3.198   0.991  0.00  0.00    -0.383 OA
ATOM     19  H   UNL     1       3.417   3.268   1.318  0.00  0.00    +0.210 HD
ENDBRANCH  17  18
BRANCH  17  20
ATOM     20  C   UNL     1       3.042   0.955   0.330  0.00  0.00    -0.048 C 
BRANCH  20  21
ATOM     21  N   UNL     1       3.099  -0.010  -0.759  0.00  0.00    +0.388 N 
ATOM     22  H   UNL     1       2.156  -0.170  -1.113  0.00  0.00    -0.084 HD
ATOM     23  H   UNL     1       3.697   0.365  -1.495  0.00  0.00    -0.084 HD
BRANCH  21  24
ATOM     24  C   UNL     1       3.658  -1.276  -0.306  0.00  0.00    -0.046 C 
ATOM     25  C   UNL     1       3.703  -2.244  -1.493  0.00  0.00    -0.022 C 
ATOM     26  C   UNL     1       5.075  -1.022   0.220  0.00  0.00    -0.022 C 
ATOM     27  C   UNL     1       2.777  -1.851   0.810  0.00  0.00    -0.022 C 
ENDBRANCH  21  24
ENDBRANCH  20  21
ENDBRANCH  17  20
ENDBRANCH  16  17
ENDBRANCH  15  16
ENDBRANCH   7  15
TORSDOF 9
