REMARK  Name = 4923
REMARK  5 active torsions:
REMARK  status: ('A' for Active; 'I' for Inactive)
REMARK    1  A    between atoms: N_1  and  C_9
REMARK    2  A    between atoms: N_2  and  C_4
REMARK    3  A    between atoms: N_2  and  C_17
REMARK    4  A    between atoms: N_15  and  C_17
REMARK    5  A    between atoms: N_15  and  C_20
REMARK                            x       y       z     vdW  Elec       q    Type
REMARK                         _______ _______ _______ _____ _____    ______ ____
ROOT
ATOM      1  N   UNL     1      -0.775   1.490   0.446  0.00  0.00    -0.325 N 
ATOM      2  N   UNL     1       1.377   2.221   0.498  0.00  0.00    -0.369 N 
ATOM      3  C   UNL     1       0.539   1.188   0.118  0.00  0.00    +0.203 C 
ATOM      4  H   UNL     1      -0.910   2.376   0.855  0.00  0.00    +0.169 HD
ATOM      5  H   UNL     1       1.004   3.028   0.920  0.00  0.00    +0.159 HD
ATOM      6  H   UNL     1       2.348   2.148   0.348  0.00  0.00    +0.159 HD
ENDROOT
BRANCH   1   8
ATOM      7 CL   UNL     1      -5.694  -1.734  -0.235  0.00  0.00    -0.082 Cl
ATOM      8  C   UNL     1      -1.947   0.722   0.283  0.00  0.00    +0.059 C 
ATOM      9  C   UNL     1      -3.175   1.356   0.096  0.00  0.00    +0.018 C 
ATOM     10  C   UNL     1      -1.877  -0.670   0.310  0.00  0.00    +0.018 C 
ATOM     11  C   UNL     1      -4.334   0.596  -0.064  0.00  0.00    +0.013 C 
ATOM     12  C   UNL     1      -3.036  -1.430   0.149  0.00  0.00    +0.013 C 
ATOM     13  C   UNL     1      -4.264  -0.797  -0.038  0.00  0.00    +0.058 C 
ENDBRANCH   1   8
BRANCH   3  14
ATOM     14  N   UNL     1       0.926   0.074  -0.448  0.00  0.00    -0.179 NA
BRANCH  14  16
ATOM     15  N   UNL     1       2.748   0.308  -1.942  0.00  0.00    -0.368 N 
ATOM     16  C   UNL     1       2.270  -0.093  -0.714  0.00  0.00    +0.220 C 
ATOM     17  H   UNL     1       3.702   0.201  -2.159  0.00  0.00    +0.159 HD
ATOM     18  H   UNL     1       2.134   0.702  -2.604  0.00  0.00    +0.159 HD
BRANCH  16  19
ATOM     19  N   UNL     1       2.943  -0.646   0.245  0.00  0.00    -0.240 NA
BRANCH  19  20
ATOM     20  C   UNL     1       4.367  -0.860   0.026  0.00  0.00    +0.106 C 
ATOM     21  C   UNL     1       5.128   0.377   0.479  0.00  0.00    +0.026 C 
ATOM     22  C   UNL     1       4.803  -2.102   0.790  0.00  0.00    +0.026 C 
ENDBRANCH  19  20
ENDBRANCH  16  19
ENDBRANCH  14  16
ENDBRANCH   3  14
TORSDOF 5
