REMARK  Name = 61810
REMARK  6 active torsions:
REMARK  status: ('A' for Active; 'I' for Inactive)
REMARK    1  A    between atoms: C_1  and  N_3
REMARK    2  A    between atoms: C_1  and  C_10
REMARK    3  A    between atoms: N_3  and  C_6
REMARK    4  A    between atoms: C_6  and  C_7
REMARK    5  A    between atoms: C_7  and  C_9
REMARK    6  A    between atoms: C_10  and  C_11
REMARK                            x       y       z     vdW  Elec       q    Type
REMARK                         _______ _______ _______ _____ _____    ______ ____
ROOT
ATOM      1  C   UNL     1       0.414   0.059   0.111  0.00  0.00    -0.058 C 
ATOM      2  C   UNL     1       0.385  -1.388  -0.382  0.00  0.00    -0.023 C 
ENDROOT
BRANCH   1   3
ATOM      3  N   UNL     1       1.688   0.287   0.798  0.00  0.00    +0.386 N 
ATOM      4  H   UNL     1       1.758  -0.348   1.594  0.00  0.00    -0.084 HD
ATOM      5  H   UNL     1       1.722   1.256   1.116  0.00  0.00    -0.084 HD
BRANCH   3   6
ATOM      6  C   UNL     1       2.805   0.050  -0.101  0.00  0.00    -0.065 C 
BRANCH   6   7
ATOM      7  C   UNL     1       4.134   0.287   0.608  0.00  0.00    +0.082 C 
BRANCH   7   9
ATOM      8  N   UNL     1       6.187  -0.118  -0.986  0.00  0.00    -0.196 NA
ATOM      9  C   UNL     1       5.281   0.060  -0.284  0.00  0.00    +0.071 C 
ENDBRANCH   7   9
ENDBRANCH   6   7
ENDBRANCH   3   6
ENDBRANCH   1   3
BRANCH   1  10
ATOM     10  C   UNL     1      -0.750   0.380   1.066  0.00  0.00    +0.005 C 
BRANCH  10  11
ATOM     11  C   UNL     1      -2.112   0.215   0.437  0.00  0.00    -0.024 C 
ATOM     12  C   UNL     1      -2.700   1.294  -0.204  0.00  0.00    -0.004 C 
ATOM     13  C   UNL     1      -2.751  -1.013   0.512  0.00  0.00    -0.004 C 
ATOM     14  C   UNL     1      -3.958   1.141  -0.786  0.00  0.00    -0.000 C 
ATOM     15  C   UNL     1      -4.009  -1.165  -0.070  0.00  0.00    -0.000 C 
ATOM     16  C   UNL     1      -4.613  -0.088  -0.719  0.00  0.00    -0.000 C 
ENDBRANCH  10  11
ENDBRANCH   1  10
TORSDOF 6
