REMARK  Name = 66535
REMARK  8 active torsions:
REMARK  status: ('A' for Active; 'I' for Inactive)
REMARK    1  A    between atoms: C_2  and  O_18
REMARK    2  A    between atoms: C_3  and  O_16
REMARK    3  A    between atoms: C_4  and  C_25
REMARK    4  A    between atoms: C_5  and  N_7
REMARK    5  A    between atoms: O_18  and  P_19
REMARK    6  A    between atoms: P_19  and  O_21
REMARK    7  A    between atoms: P_19  and  O_23
REMARK    8  A    between atoms: C_25  and  O_26
REMARK                            x       y       z     vdW  Elec       q    Type
REMARK                         _______ _______ _______ _____ _____    ______ ____
ROOT
ATOM      1  O   UNL     1      -0.059  -1.791  -0.980  0.00  0.00    -0.332 OA
ATOM      2  C   UNL     1       1.480  -0.374   0.107  0.00  0.00    +0.186 C 
ATOM      3  C   UNL     1       0.780   0.440  -0.963  0.00  0.00    +0.189 C 
ATOM      4  C   UNL     1       1.242  -1.798  -0.367  0.00  0.00    +0.176 C 
ATOM      5  C   UNL     1      -0.424  -0.434  -1.291  0.00  0.00    +0.236 C 
ENDROOT
BRANCH   5   7
ATOM      6  O   UNL     1      -2.477   1.313  -2.114  0.00  0.00    -0.193 OA
ATOM      7  N   UNL     1      -1.582  -0.087  -0.512  0.00  0.00    -0.178 N 
ATOM      8  N   UNL     1      -3.664   1.090  -0.192  0.00  0.00    -0.306 NA
ATOM      9  N   UNL     1      -4.875   0.858   1.780  0.00  0.00    -0.332 N 
ATOM     10  C   UNL     1      -1.726  -0.642   0.750  0.00  0.00    +0.083 C 
ATOM     11  C   UNL     1      -2.575   0.802  -0.997  0.00  0.00    +0.276 C 
ATOM     12  C   UNL     1      -2.765  -0.377   1.539  0.00  0.00    +0.065 C 
ATOM     13  C   UNL     1      -3.785   0.558   0.996  0.00  0.00    +0.193 C 
ATOM     14  H   UNL     1      -5.567   1.474   1.446  0.00  0.00    +0.145 HD
ATOM     15  H   UNL     1      -4.964   0.456   2.674  0.00  0.00    +0.145 HD
ENDBRANCH   5   7
BRANCH   3  16
ATOM     16  O   UNL     1       1.596   0.581  -2.124  0.00  0.00    -0.378 OA
ATOM     17  H   UNL     1       2.363   1.137  -1.915  0.00  0.00    +0.211 HD
ENDBRANCH   3  16
BRANCH   2  18
ATOM     18  O   UNL     1       2.855  -0.077   0.229  0.00  0.00    -0.271 OA
BRANCH  18  19
ATOM     19  P   UNL     1       3.278   1.434   0.605  0.00  0.00    +0.473 P 
ATOM     20  O   UNL     1       2.832   2.483  -0.371  0.00  0.00    -0.227 OA
BRANCH  19  21
ATOM     21  O   UNL     1       4.875   1.341   0.839  0.00  0.00    -0.303 OA
ATOM     22  H   UNL     1       5.068   0.640   1.481  0.00  0.00    +0.222 HD
ENDBRANCH  19  21
BRANCH  19  23
ATOM     23  O   UNL     1       2.692   1.601   2.103  0.00  0.00    -0.303 OA
ATOM     24  H   UNL     1       3.028   0.885   2.664  0.00  0.00    +0.222 HD
ENDBRANCH  19  23
ENDBRANCH  18  19
ENDBRANCH   2  18
BRANCH   4  25
ATOM     25  C   UNL     1       1.273  -2.819   0.756  0.00  0.00    +0.169 C 
BRANCH  25  26
ATOM     26  O   UNL     1       1.030  -4.103   0.208  0.00  0.00    -0.379 OA
ATOM     27  H   UNL     1       1.047  -4.765   0.916  0.00  0.00    +0.211 HD
ENDBRANCH  25  26
ENDBRANCH   4  25
TORSDOF 8
