REMARK  Name = 61791
REMARK  8 active torsions:
REMARK  status: ('A' for Active; 'I' for Inactive)
REMARK    1  A    between atoms: N_1  and  C_22
REMARK    2  A    between atoms: C_2  and  N_10
REMARK    3  A    between atoms: C_17  and  C_20
REMARK    4  A    between atoms: C_22  and  C_23
REMARK    5  A    between atoms: C_23  and  C_24
REMARK    6  A    between atoms: C_24  and  C_25
REMARK    7  A    between atoms: C_24  and  C_31
REMARK    8  A    between atoms: C_24  and  C_38
REMARK                            x       y       z     vdW  Elec       q    Type
REMARK                         _______ _______ _______ _____ _____    ______ ____
ROOT
ATOM      1  N   UNL     1       0.515  -0.589  -0.503  0.00  0.00    +0.387 N 
ATOM      2  C   UNL     1      -2.334  -1.010   0.013  0.00  0.00    +0.086 C 
ATOM      3  C   UNL     1      -1.437  -0.230   0.974  0.00  0.00    -0.000 C 
ATOM      4  C   UNL     1      -1.760  -0.962  -1.403  0.00  0.00    -0.000 C 
ATOM      5  C   UNL     1       0.018  -0.694   0.875  0.00  0.00    -0.075 C 
ATOM      6  C   UNL     1      -0.294  -1.401  -1.423  0.00  0.00    -0.075 C 
ATOM      7  H   UNL     1       0.437   0.386  -0.793  0.00  0.00    -0.080 HD
ENDROOT
BRANCH   2  10
ATOM      8  O   UNL     1      -3.364   1.715  -0.693  0.00  0.00    -0.246 OA
ATOM      9  O   UNL     1      -7.666   1.849  -0.162  0.00  0.00    -0.271 OA
ATOM     10  N   UNL     1      -3.684  -0.505   0.037  0.00  0.00    -0.282 N 
ATOM     11  N   UNL     1      -5.544   0.840  -0.131  0.00  0.00    -0.229 N 
ATOM     12  C   UNL     1      -4.798  -1.258   0.417  0.00  0.00    +0.080 A 
ATOM     13  C   UNL     1      -4.093   0.808  -0.315  0.00  0.00    +0.337 A 
ATOM     14  C   UNL     1      -5.934  -0.453   0.320  0.00  0.00    +0.087 A 
ATOM     15  C   UNL     1      -4.857  -2.577   0.832  0.00  0.00    +0.019 C 
ATOM     16  C   UNL     1      -7.180  -0.961   0.642  0.00  0.00    +0.019 C 
ATOM     17  C   UNL     1      -6.449   1.897  -0.337  0.00  0.00    +0.245 C 
ATOM     18  C   UNL     1      -6.110  -3.094   1.159  0.00  0.00    +0.002 C 
ATOM     19  C   UNL     1      -7.261  -2.294   1.065  0.00  0.00    +0.002 C 
BRANCH  17  20
ATOM     20  C   UNL     1      -5.821   3.181  -0.818  0.00  0.00    +0.089 C 
ATOM     21  C   UNL     1      -6.888   4.226  -1.036  0.00  0.00    +0.010 C 
ENDBRANCH  17  20
ENDBRANCH   2  10
BRANCH   1  22
ATOM     22  C   UNL     1       1.921  -0.987  -0.572  0.00  0.00    -0.076 C 
BRANCH  22  23
ATOM     23  C   UNL     1       2.775  -0.052   0.303  0.00  0.00    -0.000 C 
BRANCH  23  24
ATOM     24  C   UNL     1       4.316  -0.373   0.322  0.00  0.00    +0.115 C 
BRANCH  24  25
ATOM     25  C   UNL     1       5.122   0.562   1.264  0.00  0.00    -0.006 C 
ATOM     26  C   UNL     1       4.448   1.574   1.886  0.00  0.00    -0.003 C 
ATOM     27  C   UNL     1       6.457   0.318   1.414  0.00  0.00    -0.003 C 
ATOM     28  C   UNL     1       5.172   2.414   2.732  0.00  0.00    -0.000 C 
ATOM     29  C   UNL     1       7.181   1.158   2.260  0.00  0.00    -0.000 C 
ATOM     30  C   UNL     1       6.538   2.206   2.919  0.00  0.00    -0.000 C 
ENDBRANCH  24  25
BRANCH  24  31
ATOM     31  C   UNL     1       4.862  -0.239  -1.121  0.00  0.00    -0.006 C 
ATOM     32  C   UNL     1       4.784   0.986  -1.724  0.00  0.00    -0.003 C 
ATOM     33  C   UNL     1       5.390  -1.353  -1.712  0.00  0.00    -0.003 C 
ATOM     34  C   UNL     1       5.276   1.106  -3.024  0.00  0.00    -0.000 C 
ATOM     35  C   UNL     1       5.881  -1.233  -3.012  0.00  0.00    -0.000 C 
ATOM     36  C   UNL     1       5.824  -0.003  -3.668  0.00  0.00    -0.000 C 
ENDBRANCH  24  31
BRANCH  24  38
ATOM     37  N   UNL     1       4.547  -2.817   1.335  0.00  0.00    -0.195 NA
ATOM     38  C   UNL     1       4.449  -1.752   0.884  0.00  0.00    +0.079 C 
ENDBRANCH  24  38
ENDBRANCH  23  24
ENDBRANCH  22  23
ENDBRANCH   1  22
TORSDOF 8
