REMARK  Name = 10050566
REMARK  9 active torsions:
REMARK  status: ('A' for Active; 'I' for Inactive)
REMARK    1  A    between atoms: C_2  and  N_11
REMARK    2  A    between atoms: C_3  and  O_22
REMARK    3  A    between atoms: C_12  and  C_14
REMARK    4  A    between atoms: C_19  and  O_20
REMARK    5  A    between atoms: O_22  and  C_24
REMARK    6  A    between atoms: C_24  and  C_25
REMARK    7  A    between atoms: C_30  and  C_32
REMARK    8  A    between atoms: C_32  and  C_33
REMARK    9  A    between atoms: C_34  and  O_39
REMARK                            x       y       z     vdW  Elec       q    Type
REMARK                         _______ _______ _______ _____ _____    ______ ____
ROOT
ATOM      1  N   UNL     1       0.636  -2.676   1.489  0.00  0.00    +0.385 N 
ATOM      2  C   UNL     1       2.135  -1.184   0.153  0.00  0.00    +0.091 C 
ATOM      3  C   UNL     1       1.690  -1.751  -1.207  0.00  0.00    +0.185 C 
ATOM      4  C   UNL     1       1.680  -3.278  -1.339  0.00  0.00    +0.043 C 
ATOM      5  C   UNL     1       1.978  -2.108   1.365  0.00  0.00    -0.058 C 
ATOM      6  C   UNL     1       0.511  -3.989  -0.653  0.00  0.00    -0.020 C 
ATOM      7  C   UNL     1       0.556  -4.000   0.871  0.00  0.00    -0.082 C 
ATOM      8  H   UNL     1      -0.031  -2.055   1.030  0.00  0.00    -0.084 HD
ATOM      9  H   UNL     1       0.419  -2.772   2.481  0.00  0.00    -0.084 HD
ENDROOT
BRANCH   2  11
ATOM     10  O   UNL     1       3.313   1.039   1.533  0.00  0.00    -0.270 OA
ATOM     11  N   UNL     1       3.517  -0.750   0.073  0.00  0.00    -0.301 N 
ATOM     12  C   UNL     1       3.987   0.339   0.782  0.00  0.00    +0.246 C 
ATOM     13  H   UNL     1       4.140  -1.247  -0.505  0.00  0.00    +0.150 HD
BRANCH  12  14
ATOM     14  C   UNL     1       5.420   0.671   0.571  0.00  0.00    +0.054 C 
ATOM     15  C   UNL     1       6.109   1.315   1.578  0.00  0.00    +0.008 C 
ATOM     16  C   UNL     1       6.016   0.326  -0.624  0.00  0.00    +0.008 C 
ATOM     17  C   UNL     1       7.454   1.627   1.381  0.00  0.00    +0.037 C 
ATOM     18  C   UNL     1       7.361   0.637  -0.821  0.00  0.00    +0.037 C 
ATOM     19  C   UNL     1       8.080   1.288   0.182  0.00  0.00    +0.134 C 
BRANCH  19  20
ATOM     20  O   UNL     1       9.393   1.590  -0.010  0.00  0.00    -0.506 OA
ATOM     21  H   UNL     1       9.876   2.027   0.664  0.00  0.00    +0.292 HD
ENDBRANCH  19  20
ENDBRANCH  12  14
ENDBRANCH   2  11
BRANCH   3  22
ATOM     22  O   UNL     1       0.403  -1.223  -1.542  0.00  0.00    -0.448 OA
BRANCH  22  24
ATOM     23  O   UNL     1       1.212   0.910  -1.846  0.00  0.00    -0.245 OA
ATOM     24  C   UNL     1       0.314   0.130  -1.569  0.00  0.00    +0.341 C 
BRANCH  24  25
ATOM     25  C   UNL     1      -1.058   0.564  -1.205  0.00  0.00    +0.076 C 
ATOM     26  C   UNL     1      -2.004  -0.396  -0.907  0.00  0.00    +0.007 C 
ATOM     27  C   UNL     1      -1.346   1.913  -1.177  0.00  0.00    +0.007 C 
ATOM     28  C   UNL     1      -3.294   0.012  -0.566  0.00  0.00    +0.003 C 
ATOM     29  C   UNL     1      -2.635   2.321  -0.836  0.00  0.00    +0.003 C 
ATOM     30  C   UNL     1      -3.610   1.370  -0.530  0.00  0.00    +0.039 C 
BRANCH  30  32
ATOM     31  O   UNL     1      -5.240   3.001  -0.141  0.00  0.00    -0.286 OA
ATOM     32  C   UNL     1      -4.954   1.795  -0.175  0.00  0.00    +0.198 C 
BRANCH  32  33
ATOM     33  C   UNL     1      -6.038   0.823   0.162  0.00  0.00    +0.073 C 
ATOM     34  C   UNL     1      -6.212   0.426   1.468  0.00  0.00    +0.137 C 
ATOM     35  C   UNL     1      -6.828   0.362  -0.867  0.00  0.00    +0.006 C 
ATOM     36  C   UNL     1      -7.229  -0.481   1.761  0.00  0.00    +0.037 C 
ATOM     37  C   UNL     1      -7.846  -0.545  -0.574  0.00  0.00    +0.000 C 
ATOM     38  C   UNL     1      -8.046  -0.967   0.740  0.00  0.00    +0.003 C 
BRANCH  34  39
ATOM     39  O   UNL     1      -5.424   0.889   2.479  0.00  0.00    -0.505 OA
ATOM     40  H   UNL     1      -4.736   1.499   2.296  0.00  0.00    +0.292 HD
ENDBRANCH  34  39
ENDBRANCH  32  33
ENDBRANCH  30  32
ENDBRANCH  24  25
ENDBRANCH  22  24
ENDBRANCH   3  22
TORSDOF 9
