REMARK  Name = 6098
REMARK  5 active torsions:
REMARK  status: ('A' for Active; 'I' for Inactive)
REMARK    1  A    between atoms: N_2  and  CA_11
REMARK    2  A    between atoms: C_3  and  C_21
REMARK    3  A    between atoms: CA_10  and  C_16
REMARK    4  A    between atoms: C_16  and  O_17
REMARK    5  A    between atoms: C_22  and  C_26
REMARK                            x       y       z     vdW  Elec       q    Type
REMARK                         _______ _______ _______ _____ _____    ______ ____
ROOT
ATOM      1  O   UNL     1       1.587   2.842  -0.384  0.00  0.00    -0.270 OA
ATOM      2  N   UNL     1       0.697   1.062   0.779  0.00  0.00    -0.293 N 
ATOM      3  C   UNL     1       1.703   1.691   0.035  0.00  0.00    +0.251 C 
ATOM      4  H   UNL     1       0.846   0.139   1.088  0.00  0.00    +0.150 HD
ENDROOT
BRANCH   2  11
ATOM      5  S   UNL     1      -1.281   1.001  -1.568  0.00  0.00    -0.118 S 
ATOM      6  O   UNL     1      -1.635   0.044   2.718  0.00  0.00    -0.273 OA
ATOM      7  N   UNL     1      -2.480   1.000   0.733  0.00  0.00    -0.260 N 
ATOM      8  C   UNL     1      -1.598   1.906  -0.009  0.00  0.00    +0.151 C 
ATOM      9  C   UNL     1      -2.966   0.211  -1.496  0.00  0.00    +0.068 C 
ATOM     10  CA  UNL     1      -3.189  -0.038   0.011  0.00  0.00    +0.184 C 
ATOM     11  CA  UNL     1      -0.571   1.723   1.117  0.00  0.00    +0.178 C 
ATOM     12  C   UNL     1      -1.612   0.788   1.765  0.00  0.00    +0.247 C 
ATOM     13  C   UNL     1      -3.970   1.179  -2.137  0.00  0.00    +0.013 C 
ATOM     14  C   UNL     1      -2.933  -1.103  -2.279  0.00  0.00    +0.013 C 
BRANCH  10  16
ATOM     15  OXT UNL     1      -5.080   0.827   1.238  0.00  0.00    -0.248 OA
ATOM     16  C   UNL     1      -4.614   0.005   0.463  0.00  0.00    +0.333 C 
BRANCH  16  17
ATOM     17  O   UNL     1      -5.326  -1.000  -0.104  0.00  0.00    -0.479 OA
ATOM     18  H   UNL     1      -4.907  -1.598  -0.691  0.00  0.00    +0.295 HD
ENDBRANCH  16  17
ENDBRANCH  10  16
ENDBRANCH   2  11
BRANCH   3  21
ATOM     19  O   UNL     1       5.038   0.423  -0.539  0.00  0.00    -0.358 OA
ATOM     20  N   UNL     1       4.355  -0.787  -0.515  0.00  0.00    -0.077 NA
ATOM     21  C   UNL     1       2.926   0.910  -0.195  0.00  0.00    +0.107 A 
ATOM     22  C   UNL     1       3.077  -0.459  -0.306  0.00  0.00    +0.128 A 
ATOM     23  C   UNL     1       4.158   1.438  -0.344  0.00  0.00    +0.159 A 
ATOM     24  C   UNL     1       4.721   2.795  -0.340  0.00  0.00    +0.076 C 
BRANCH  22  26
ATOM     25 CL   UNL     1       2.482  -1.636   2.479  0.00  0.00    -0.082 Cl
ATOM     26  C   UNL     1       2.069  -1.483  -0.223  0.00  0.00    +0.032 C 
ATOM     27  C   UNL     1       1.724  -2.081   0.989  0.00  0.00    +0.059 C 
ATOM     28  C   UNL     1       1.429  -1.873  -1.399  0.00  0.00    +0.002 C 
ATOM     29  C   UNL     1       0.740  -3.069   1.025  0.00  0.00    +0.011 C 
ATOM     30  C   UNL     1       0.445  -2.860  -1.364  0.00  0.00    +0.000 C 
ATOM     31  C   UNL     1       0.100  -3.458  -0.152  0.00  0.00    +0.001 C 
ENDBRANCH  22  26
ENDBRANCH   3  21
TORSDOF 5
