REMARK  Name = 5284596
REMARK  4 active torsions:
REMARK  status: ('A' for Active; 'I' for Inactive)
REMARK    1  A    between atoms: N_3  and  C_25
REMARK    2  A    between atoms: C_5  and  O_21
REMARK    3  A    between atoms: C_18  and  O_23
REMARK    4  A    between atoms: C_25  and  C_26
REMARK                            x       y       z     vdW  Elec       q    Type
REMARK                         _______ _______ _______ _____ _____    ______ ____
ROOT
ATOM      1  O   UNL     1      -2.348  -0.043  -1.475  0.00  0.00    -0.469 OA
ATOM      2  O   UNL     1      -3.612   1.973  -0.187  0.00  0.00    -0.292 OA
ATOM      3  N   UNL     1       2.610   0.344   0.036  0.00  0.00    +0.393 N 
ATOM      4  C   UNL     1      -0.210   0.652  -0.585  0.00  0.00    +0.084 C 
ATOM      5  C   UNL     1       0.483   1.501   0.491  0.00  0.00    +0.079 C 
ATOM      6  C   UNL     1       1.609   0.601   1.104  0.00  0.00    -0.027 C 
ATOM      7  C   UNL     1      -1.555   1.142  -1.144  0.00  0.00    +0.228 C 
ATOM      8  C   UNL     1       0.803   0.298  -1.700  0.00  0.00    -0.012 C 
ATOM      9  C   UNL     1      -0.718  -0.610   0.022  0.00  0.00    +0.016 C 
ATOM     10  C   UNL     1      -0.518   2.054   1.520  0.00  0.00    +0.033 C 
ATOM     11  C   UNL     1       1.036  -0.694   1.782  0.00  0.00    +0.008 C 
ATOM     12  C   UNL     1       2.081  -0.354  -1.140  0.00  0.00    -0.076 C 
ATOM     13  C   UNL     1      -0.144  -1.303   1.071  0.00  0.00    -0.025 C 
ATOM     14  C   UNL     1      -1.631   2.840   0.828  0.00  0.00    +0.071 C 
ATOM     15  C   UNL     1      -2.380   1.964  -0.150  0.00  0.00    +0.191 C 
ATOM     16  C   UNL     1      -1.904  -0.985  -0.577  0.00  0.00    +0.168 C 
ATOM     17  C   UNL     1      -0.773  -2.486   1.459  0.00  0.00    -0.001 C 
ATOM     18  C   UNL     1      -2.532  -2.155  -0.219  0.00  0.00    +0.167 C 
ATOM     19  C   UNL     1      -1.948  -2.916   0.805  0.00  0.00    +0.039 C 
ATOM     20  H   UNL     1       2.858   1.281  -0.284  0.00  0.00    -0.079 HD
ENDROOT
BRANCH   5  21
ATOM     21  O   UNL     1       1.092   2.646  -0.130  0.00  0.00    -0.388 OA
ATOM     22  H   UNL     1       1.736   2.350  -0.792  0.00  0.00    +0.210 HD
ENDBRANCH   5  21
BRANCH  18  23
ATOM     23  O   UNL     1      -3.689  -2.550  -0.804  0.00  0.00    -0.503 OA
ATOM     24  H   UNL     1      -4.069  -2.033  -1.487  0.00  0.00    +0.292 HD
ENDBRANCH  18  23
BRANCH   3  25
ATOM     25  C   UNL     1       3.837  -0.278   0.521  0.00  0.00    -0.050 C 
BRANCH  25  26
ATOM     26  C   UNL     1       4.911  -0.269  -0.524  0.00  0.00    -0.049 C 
ATOM     27  C   UNL     1       5.497  -1.371  -1.004  0.00  0.00    -0.007 C 
ENDBRANCH  25  26
ENDBRANCH   3  25
TORSDOF 4
