REMARK  Name = 46936180
REMARK  10 active torsions:
REMARK  status: ('A' for Active; 'I' for Inactive)
REMARK    1  A    between atoms: N_2  and  C_30
REMARK    2  A    between atoms: C_4  and  C_21
REMARK    3  A    between atoms: C_5  and  C_7
REMARK    4  A    between atoms: C_7  and  C_9
REMARK    5  A    between atoms: C_13  and  N_18
REMARK    6  A    between atoms: C_21  and  N_22
REMARK    7  A    between atoms: C_21  and  C_26
REMARK    8  A    between atoms: C_26  and  O_28
REMARK    9  A    between atoms: C_30  and  C_32
REMARK   10  A    between atoms: C_32  and  O_33
REMARK                            x       y       z     vdW  Elec       q    Type
REMARK                         _______ _______ _______ _____ _____    ______ ____
ROOT
ATOM      1  O   UNL     1      -1.304  -2.952  -0.300  0.00  0.00    -0.267 OA
ATOM      2  N   UNL     1      -2.390  -0.977   0.380  0.00  0.00    -0.223 N 
ATOM      3  N   UNL     1      -0.692   0.477   0.144  0.00  0.00    -0.393 NA
ATOM      4  C   UNL     1      -1.935   0.296   0.479  0.00  0.00    +0.148 C 
ATOM      5  C   UNL     1      -0.255  -0.775  -0.214  0.00  0.00    +0.168 C 
ATOM      6  C   UNL     1      -1.357  -1.759  -0.068  0.00  0.00    +0.281 C 
ENDROOT
BRANCH   5   7
ATOM      7  C   UNL     1       0.967  -1.104  -0.635  0.00  0.00    +0.091 C 
BRANCH   7   9
ATOM      8  N   UNL     1       3.294   1.544  -1.539  0.00  0.00    -0.312 N 
ATOM      9  C   UNL     1       2.103  -0.178  -0.802  0.00  0.00    +0.002 C 
ATOM     10  C   UNL     1       3.381  -0.221  -0.178  0.00  0.00    +0.024 C 
ATOM     11  C   UNL     1       4.108   0.870  -0.657  0.00  0.00    +0.049 C 
ATOM     12  C   UNL     1       2.080   0.919  -1.633  0.00  0.00    +0.058 C 
ATOM     13  C   UNL     1       3.990  -1.087   0.752  0.00  0.00    +0.042 C 
ATOM     14  C   UNL     1       5.420   1.139  -0.251  0.00  0.00    +0.015 C 
ATOM     15  C   UNL     1       5.302  -0.830   1.167  0.00  0.00    +0.014 C 
ATOM     16  C   UNL     1       6.004   0.267   0.671  0.00  0.00    +0.003 C 
ATOM     17  H   UNL     1       3.548   2.359  -2.030  0.00  0.00    +0.152 HD
BRANCH  13  18
ATOM     18  N   UNL     1       3.321  -2.212   1.284  0.00  0.00    -0.357 N 
ATOM     19  H   UNL     1       2.398  -2.412   1.006  0.00  0.00    +0.142 HD
ATOM     20  H   UNL     1       3.778  -2.795   1.931  0.00  0.00    +0.142 HD
ENDBRANCH  13  18
ENDBRANCH   7   9
ENDBRANCH   5   7
BRANCH   4  21
ATOM     21  C   UNL     1      -2.826   1.401   0.943  0.00  0.00    +0.031 C 
BRANCH  21  22
ATOM     22  N   UNL     1      -2.726   1.398   2.398  0.00  0.00    +0.389 N 
ATOM     23  H   UNL     1      -3.021   0.490   2.757  0.00  0.00    -0.088 HD
ATOM     24  H   UNL     1      -3.327   2.127   2.782  0.00  0.00    -0.088 HD
ATOM     25  H   UNL     1      -1.760   1.574   2.673  0.00  0.00    -0.088 HD
ENDBRANCH  21  22
BRANCH  21  26
ATOM     26  C   UNL     1      -2.401   2.733   0.304  0.00  0.00    +0.099 C 
ATOM     27  C   UNL     1      -2.546   2.755  -1.214  0.00  0.00    +0.030 C 
BRANCH  26  28
ATOM     28  O   UNL     1      -3.242   3.759   0.839  0.00  0.00    -0.386 OA
ATOM     29  H   UNL     1      -3.168   3.766   1.806  0.00  0.00    +0.210 HD
ENDBRANCH  26  28
ENDBRANCH  21  26
ENDBRANCH   4  21
BRANCH   2  30
ATOM     30  C   UNL     1      -3.733  -1.431   0.692  0.00  0.00    +0.210 C 
BRANCH  30  32
ATOM     31  O   UNL     1      -5.837  -1.714  -0.441  0.00  0.00    -0.248 OA
ATOM     32  C   UNL     1      -4.660  -1.382  -0.495  0.00  0.00    +0.335 C 
BRANCH  32  33
ATOM     33  O   UNL     1      -4.066  -0.937  -1.627  0.00  0.00    -0.479 OA
ATOM     34  H   UNL     1      -3.161  -0.694  -1.617  0.00  0.00    +0.295 HD
ENDBRANCH  32  33
ENDBRANCH  30  32
ENDBRANCH   2  30
TORSDOF 10
