REMARK  Name = 2707
REMARK  3 active torsions:
REMARK  status: ('A' for Active; 'I' for Inactive)
REMARK    1  A    between atoms: C_1  and  C_5
REMARK    2  A    between atoms: C_1  and  O_6
REMARK    3  A    between atoms: C_1  and  O_8
REMARK                            x       y       z     vdW  Elec       q    Type
REMARK                         _______ _______ _______ _____ _____    ______ ____
ROOT
ATOM      1  C   UNL     1       0.892  -0.001   0.490  0.00  0.00    +0.272 C 
ENDROOT
BRANCH   1   5
ATOM      2 CL   UNL     1      -1.416  -1.467   0.572  0.00  0.00    -0.078 Cl
ATOM      3 CL   UNL     1      -0.640   0.046  -1.791  0.00  0.00    -0.078 Cl
ATOM      4 CL   UNL     1      -1.429   1.435   0.641  0.00  0.00    -0.078 Cl
ATOM      5  C   UNL     1      -0.565   0.003  -0.002  0.00  0.00    +0.249 C 
ENDBRANCH   1   5
BRANCH   1   6
ATOM      6  O   UNL     1       1.592   1.159   0.046  0.00  0.00    -0.358 OA
ATOM      7  H   UNL     1       1.128   1.954   0.353  0.00  0.00    +0.213 HD
ENDBRANCH   1   6
BRANCH   1   8
ATOM      8  O   UNL     1       1.565  -1.175   0.044  0.00  0.00    -0.358 OA
ATOM      9  H   UNL     1       1.083  -1.960   0.350  0.00  0.00    +0.213 HD
ENDBRANCH   1   8
TORSDOF 3
