REMARK  Name = 152441
REMARK  9 active torsions:
REMARK  status: ('A' for Active; 'I' for Inactive)
REMARK    1  A    between atoms: C_1  and  C_3
REMARK    2  A    between atoms: C_1  and  C_11
REMARK    3  A    between atoms: C_3  and  O_4
REMARK    4  A    between atoms: O_4  and  P_5
REMARK    5  A    between atoms: P_5  and  O_7
REMARK    6  A    between atoms: P_5  and  O_9
REMARK    7  A    between atoms: C_11  and  N_12
REMARK    8  A    between atoms: C_11  and  C_17
REMARK    9  A    between atoms: C_17  and  O_18
REMARK                            x       y       z     vdW  Elec       q    Type
REMARK                         _______ _______ _______ _____ _____    ______ ____
ROOT
ATOM      1  C   UNK     1      -1.115   1.442  -0.071  0.00  0.00    +0.099 C 
ENDROOT
BRANCH   1   3
ATOM      2  O   UNK     1       0.495   1.079   1.695  0.00  0.00    -0.250 OA
ATOM      3  C   UNK     1       0.196   0.980   0.513  0.00  0.00    +0.322 C 
BRANCH   3   4
ATOM      4  O   UNK     1       0.983   0.437  -0.452  0.00  0.00    -0.371 OA
BRANCH   4   5
ATOM      5  P   UNK     1       2.463  -0.172  -0.228  0.00  0.00    +0.530 P 
ATOM      6  O   UNK     1       3.453   0.822   0.308  0.00  0.00    -0.216 OA
BRANCH   5   7
ATOM      7  O   UNK     1       2.864  -0.800  -1.664  0.00  0.00    -0.293 OA
ATOM      8  H   UNK     1       2.180  -1.429  -1.943  0.00  0.00    +0.223 HD
ENDBRANCH   5   7
BRANCH   5   9
ATOM      9  O   UNK     1       2.252  -1.466   0.717  0.00  0.00    -0.293 OA
ATOM     10  H   UNK     1       1.604  -2.061   0.310  0.00  0.00    +0.223 HD
ENDBRANCH   5   9
ENDBRANCH   4   5
ENDBRANCH   3   4
ENDBRANCH   1   3
BRANCH   1  11
ATOM     11  C   UNK     1      -1.847   0.306  -0.786  0.00  0.00    +0.047 C 
BRANCH  11  12
ATOM     12  N   UNK     1      -3.114   0.793  -1.339  0.00  0.00    +0.389 N 
ATOM     13  H   UNK     1      -2.929   1.545  -2.003  0.00  0.00    -0.088 HD
ATOM     14  H   UNK     1      -3.702   1.144  -0.583  0.00  0.00    -0.088 HD
ATOM     15  H   UNK     1      -3.593   0.029  -1.815  0.00  0.00    -0.088 HD
ENDBRANCH  11  12
BRANCH  11  17
ATOM     16  O   UNK     1      -3.197  -0.845   0.892  0.00  0.00    -0.253 OA
ATOM     17  C   UNK     1      -2.195  -0.806   0.190  0.00  0.00    +0.293 C 
BRANCH  17  18
ATOM     18  O   UNK     1      -1.239  -1.771   0.224  0.00  0.00    -0.482 OA
ATOM     19  H   UNK     1      -0.486  -1.705  -0.330  0.00  0.00    +0.295 HD
ENDBRANCH  17  18
ENDBRANCH  11  17
ENDBRANCH   1  11
TORSDOF 9
