REMARK  Name = 6919051
REMARK  3 active torsions:
REMARK  status: ('A' for Active; 'I' for Inactive)
REMARK    1  A    between atoms: N_3  and  C_24
REMARK    2  A    between atoms: C_4  and  N_13
REMARK    3  A    between atoms: C_12  and  C_23
REMARK                            x       y       z     vdW  Elec       q    Type
REMARK                         _______ _______ _______ _____ _____    ______ ____
ROOT
ATOM      1  F   UNL     1      -2.137  -2.643  -0.403  0.00  0.00    -0.203 F 
ATOM      2  O   UNL     1       2.879  -2.310  -0.287  0.00  0.00    -0.286 OA
ATOM      3  N   UNL     1       1.546   1.499   0.304  0.00  0.00    -0.286 N 
ATOM      4  C   UNL     1      -1.715  -0.339  -0.030  0.00  0.00    +0.077 C 
ATOM      5  C   UNL     1      -0.801   0.705   0.148  0.00  0.00    +0.032 C 
ATOM      6  C   UNL     1       0.587   0.474   0.129  0.00  0.00    +0.056 C 
ATOM      7  C   UNL     1      -1.265  -1.639  -0.231  0.00  0.00    +0.153 C 
ATOM      8  C   UNL     1       1.017  -0.857  -0.078  0.00  0.00    +0.055 C 
ATOM      9  C   UNL     1       0.101  -1.903  -0.256  0.00  0.00    +0.035 C 
ATOM     10  C   UNL     1       2.471  -1.170  -0.109  0.00  0.00    +0.204 C 
ATOM     11  C   UNL     1       2.892   1.181   0.270  0.00  0.00    +0.075 C 
ATOM     12  C   UNL     1       3.406  -0.037   0.083  0.00  0.00    +0.133 C 
ENDROOT
BRANCH   4  13
ATOM     13  N   UNL     1      -3.088  -0.070  -0.004  0.00  0.00    -0.310 N 
ATOM     14  N   UNL     1      -5.831   0.542   0.235  0.00  0.00    +0.386 N 
ATOM     15  C   UNL     1      -3.578   1.241  -0.451  0.00  0.00    +0.068 C 
ATOM     16  C   UNL     1      -3.896  -0.747   1.021  0.00  0.00    +0.068 C 
ATOM     17  C   UNL     1      -5.039   1.154  -0.870  0.00  0.00    -0.060 C 
ATOM     18  C   UNL     1      -5.354  -0.825   0.591  0.00  0.00    -0.060 C 
ATOM     19  H   UNL     1      -6.807   0.483  -0.056  0.00  0.00    -0.084 HD
ATOM     20  H   UNL     1      -5.722   1.133   1.059  0.00  0.00    -0.084 HD
ENDBRANCH   4  13
BRANCH  12  23
ATOM     21  O   UNL     1       5.317  -1.387  -0.108  0.00  0.00    -0.240 OA
ATOM     22  O   UNL     1       5.570   0.858   0.252  0.00  0.00    -0.240 OA
ATOM     23  C   UNL     1       4.908  -0.205   0.075  0.00  0.00    +0.392 C 
ENDBRANCH  12  23
BRANCH   3  24
ATOM     24  C   UNL     1       1.084   2.869   0.515  0.00  0.00    +0.096 C 
ATOM     25  C   UNL     1       0.927   3.610  -0.796  0.00  0.00    +0.024 C 
ENDBRANCH   3  24
TORSDOF 3
