REMARK  Name = 7970
REMARK  0 active torsions:
REMARK  status: ('A' for Active; 'I' for Inactive)
REMARK                            x       y       z     vdW  Elec       q    Type
REMARK                         _______ _______ _______ _____ _____    ______ ____
ROOT
ATOM      1  N   UNL     1       1.121  -1.202   0.000  0.00  0.00    -0.243 NA
ATOM      2  C   UNL     1      -0.978  -0.003   0.000  0.00  0.00    -0.003 C 
ATOM      3  C   UNL     1      -0.295   1.208   0.000  0.00  0.00    -0.001 C 
ATOM      4  C   UNL     1      -2.465  -0.044   0.001  0.00  0.00    +0.033 C 
ATOM      5  C   UNL     1      -0.230  -1.169   0.000  0.00  0.00    +0.095 C 
ATOM      6  C   UNL     1       1.096   1.216   0.000  0.00  0.00    +0.020 C 
ATOM      7  C   UNL     1       1.751  -0.005   0.000  0.00  0.00    +0.099 C 
ENDROOT
TORSDOF 0
