REMARK  Name = 46424
REMARK  5 active torsions:
REMARK  status: ('A' for Active; 'I' for Inactive)
REMARK    1  A    between atoms: C_1  and  C_13
REMARK    2  A    between atoms: C_2  and  C_4
REMARK    3  A    between atoms: C_2  and  C_9
REMARK    4  A    between atoms: C_13  and  N_15
REMARK    5  A    between atoms: N_15  and  C_18
REMARK                            x       y       z     vdW  Elec       q    Type
REMARK                         _______ _______ _______ _____ _____    ______ ____
ROOT
ATOM      1  C   UNL     1       0.402   0.874  -0.699  0.00  0.00    -0.046 C 
ATOM      2  C   UNL     1      -0.638   0.116  -0.279  0.00  0.00    +0.006 C 
ENDROOT
BRANCH   2   4
ATOM      3  S   UNL     1      -2.969   0.052   1.084  0.00  0.00    -0.086 S 
ATOM      4  C   UNL     1      -1.934   0.709  -0.093  0.00  0.00    +0.030 C 
ATOM      5  C   UNL     1      -2.469   1.769  -0.760  0.00  0.00    +0.007 C 
ATOM      6  C   UNL     1      -3.782   2.063  -0.292  0.00  0.00    +0.007 C 
ATOM      7  C   UNL     1      -4.178   1.205   0.710  0.00  0.00    +0.035 C 
ENDBRANCH   2   4
BRANCH   2   9
ATOM      8  S   UNL     1      -0.595  -2.377  -1.318  0.00  0.00    -0.086 S 
ATOM      9  C   UNL     1      -0.390  -1.283  -0.036  0.00  0.00    +0.030 C 
ATOM     10  C   UNL     1       0.001  -1.865   1.128  0.00  0.00    +0.007 C 
ATOM     11  C   UNL     1       0.143  -3.275   0.973  0.00  0.00    +0.007 C 
ATOM     12  C   UNL     1      -0.151  -3.686  -0.308  0.00  0.00    +0.035 C 
ENDBRANCH   2   9
BRANCH   1  13
ATOM     13  C   UNL     1       1.829   0.443  -0.953  0.00  0.00    -0.035 C 
ATOM     14  C   UNL     1       2.214   0.705  -2.409  0.00  0.00    -0.018 C 
BRANCH  13  15
ATOM     15  N   UNL     1       2.743   1.162  -0.059  0.00  0.00    +0.389 N 
ATOM     16  C   UNL     1       4.122   0.747  -0.304  0.00  0.00    -0.100 C 
ATOM     17  H   UNL     1       2.670   2.162  -0.249  0.00  0.00    -0.079 HD
BRANCH  15  18
ATOM     18  C   UNL     1       2.376   0.930   1.336  0.00  0.00    -0.077 C 
ATOM     19  C   UNL     1       3.275   1.711   2.278  0.00  0.00    -0.025 C 
ENDBRANCH  15  18
ENDBRANCH  13  15
ENDBRANCH   1  13
TORSDOF 5
