REMARK  Name = 3759
REMARK  4 active torsions:
REMARK  status: ('A' for Active; 'I' for Inactive)
REMARK    1  A    between atoms: N_2  and  N_11
REMARK    2  A    between atoms: C_3  and  C_7
REMARK    3  A    between atoms: N_11  and  C_13
REMARK    4  A    between atoms: C_13  and  C_14
REMARK                            x       y       z     vdW  Elec       q    Type
REMARK                         _______ _______ _______ _____ _____    ______ ____
ROOT
ATOM      1  O   UNL     1       1.206  -1.731   0.639  0.00  0.00    -0.267 OA
ATOM      2  N   UNL     1       0.524   0.459   0.384  0.00  0.00    -0.245 N 
ATOM      3  C   UNL     1       1.476  -0.551   0.418  0.00  0.00    +0.280 C 
ATOM      4  H   UNL     1       0.788   1.391   0.203  0.00  0.00    +0.169 HD
ENDROOT
BRANCH   3   7
ATOM      5  O   UNL     1       4.454   1.203  -0.324  0.00  0.00    -0.358 OA
ATOM      6  N   UNL     1       3.082   1.150  -0.112  0.00  0.00    -0.073 NA
ATOM      7  C   UNL     1       2.855  -0.123   0.141  0.00  0.00    +0.177 C 
ATOM      8  C   UNL     1       3.978  -0.931   0.114  0.00  0.00    +0.063 C 
ATOM      9  C   UNL     1       4.977  -0.043  -0.186  0.00  0.00    +0.155 C 
ATOM     10  C   UNL     1       6.427  -0.171  -0.379  0.00  0.00    +0.075 C 
ENDBRANCH   3   7
BRANCH   2  11
ATOM     11  N   UNL     1      -0.802   0.131   0.610  0.00  0.00    -0.225 NA
ATOM     12  H   UNL     1      -1.134   0.618   1.443  0.00  0.00    +0.145 HD
BRANCH  11  13
ATOM     13  C   UNL     1      -1.617   0.528  -0.540  0.00  0.00    +0.114 C 
BRANCH  13  14
ATOM     14  C   UNL     1      -3.069   0.262  -0.327  0.00  0.00    -0.005 C 
ATOM     15  C   UNL     1      -3.615  -0.965  -0.702  0.00  0.00    -0.003 C 
ATOM     16  C   UNL     1      -3.880   1.240   0.247  0.00  0.00    -0.003 C 
ATOM     17  C   UNL     1      -4.973  -1.214  -0.503  0.00  0.00    -0.000 C 
ATOM     18  C   UNL     1      -5.238   0.991   0.447  0.00  0.00    -0.000 C 
ATOM     19  C   UNL     1      -5.785  -0.236   0.072  0.00  0.00    -0.000 C 
ENDBRANCH  13  14
ENDBRANCH  11  13
ENDBRANCH   2  11
TORSDOF 4
