REMARK  Name = 3055
REMARK  7 active torsions:
REMARK  status: ('A' for Active; 'I' for Inactive)
REMARK    1  A    between atoms: C_1  and  C_2
REMARK    2  A    between atoms: C_1  and  C_8
REMARK    3  A    between atoms: C_1  and  O_14
REMARK    4  A    between atoms: C_1  and  C_16
REMARK    5  A    between atoms: C_16  and  C_17
REMARK    6  A    between atoms: C_17  and  C_18
REMARK    7  A    between atoms: C_18  and  N_19
REMARK                            x       y       z     vdW  Elec       q    Type
REMARK                         _______ _______ _______ _____ _____    ______ ____
ROOT
ATOM      1  C   UNL     1       1.326  -0.273   0.530  0.00  0.00    +0.126 C 
ENDROOT
BRANCH   1   2
ATOM      2  C   UNL     1       1.335   1.214   0.141  0.00  0.00    +0.006 C 
ATOM      3  C   UNL     1       0.885   1.565  -1.108  0.00  0.00    -0.002 C 
ATOM      4  C   UNL     1       1.793   2.125   1.060  0.00  0.00    -0.002 C 
ATOM      5  C   UNL     1       0.893   2.914  -1.460  0.00  0.00    -0.000 C 
ATOM      6  C   UNL     1       1.802   3.474   0.707  0.00  0.00    -0.000 C 
ATOM      7  C   UNL     1       1.352   3.869  -0.553  0.00  0.00    -0.000 C 
ENDBRANCH   1   2
BRANCH   1   8
ATOM      8  C   UNL     1       2.659  -0.929   0.141  0.00  0.00    +0.006 C 
ATOM      9  C   UNL     1       3.680  -0.928   1.059  0.00  0.00    -0.002 C 
ATOM     10  C   UNL     1       2.771  -1.488  -1.108  0.00  0.00    -0.002 C 
ATOM     11  C   UNL     1       4.891  -1.524   0.705  0.00  0.00    -0.000 C 
ATOM     12  C   UNL     1       3.982  -2.084  -1.462  0.00  0.00    -0.000 C 
ATOM     13  C   UNL     1       5.042  -2.103  -0.555  0.00  0.00    -0.000 C 
ENDBRANCH   1   8
BRANCH   1  14
ATOM     14  O   UNL     1       1.148  -0.320   1.958  0.00  0.00    -0.379 OA
ATOM     15  H   UNL     1       0.304   0.096   2.193  0.00  0.00    +0.211 HD
ENDBRANCH   1  14
BRANCH   1  16
ATOM     16  C   UNL     1       0.127  -1.079  -0.057  0.00  0.00    +0.033 C 
BRANCH  16  17
ATOM     17  C   UNL     1      -1.258  -0.559   0.372  0.00  0.00    -0.020 C 
BRANCH  17  18
ATOM     18  C   UNL     1      -2.374  -1.411  -0.234  0.00  0.00    -0.077 C 
BRANCH  18  19
ATOM     19  N   UNL     1      -3.681  -0.919   0.198  0.00  0.00    +0.387 N 
ATOM     20  C   UNL     1      -3.887   0.463  -0.260  0.00  0.00    -0.077 C 
ATOM     21  C   UNL     1      -4.750  -1.803  -0.287  0.00  0.00    -0.077 C 
ATOM     22  C   UNL     1      -5.230   1.011   0.225  0.00  0.00    -0.023 C 
ATOM     23  C   UNL     1      -6.121  -1.330   0.197  0.00  0.00    -0.023 C 
ATOM     24  C   UNL     1      -6.384   0.116  -0.211  0.00  0.00    -0.004 C 
ATOM     25  H   UNL     1      -3.711  -0.920   1.217  0.00  0.00    -0.080 HD
ENDBRANCH  18  19
ENDBRANCH  17  18
ENDBRANCH  16  17
ENDBRANCH   1  16
TORSDOF 7
