REMARK  Name = 5288437
REMARK  3 active torsions:
REMARK  status: ('A' for Active; 'I' for Inactive)
REMARK    1  A    between atoms: C_2  and  O_8
REMARK    2  A    between atoms: C_4  and  O_10
REMARK    3  A    between atoms: C_6  and  O_12
REMARK                            x       y       z     vdW  Elec       q    Type
REMARK                         _______ _______ _______ _____ _____    ______ ____
ROOT
ATOM      1  O   UNL     1      -1.152   0.916   0.610  0.00  0.00    -0.331 OA
ATOM      2  C   UNL     1       0.770  -1.008  -0.368  0.00  0.00    +0.145 C 
ATOM      3  C   UNL     1      -0.696  -1.358  -0.125  0.00  0.00    +0.062 C 
ATOM      4  C   UNL     1       1.173   0.186   0.499  0.00  0.00    +0.194 C 
ATOM      5  C   UNL     1      -1.588  -0.127  -0.271  0.00  0.00    +0.120 C 
ATOM      6  C   UNL     1       0.186   1.348   0.351  0.00  0.00    +0.262 C 
ATOM      7  C   UNL     1      -3.033  -0.454   0.083  0.00  0.00    +0.032 C 
ENDROOT
BRANCH   2   8
ATOM      8  O   UNL     1       1.560  -2.146  -0.029  0.00  0.00    -0.382 OA
ATOM      9  H   UNL     1       1.298  -2.898  -0.583  0.00  0.00    +0.210 HD
ENDBRANCH   2   8
BRANCH   4  10
ATOM     10  O   UNL     1       2.478   0.637   0.157  0.00  0.00    -0.378 OA
ATOM     11  H   UNL     1       3.108  -0.095   0.249  0.00  0.00    +0.211 HD
ENDBRANCH   4  10
BRANCH   6  12
ATOM     12  O   UNL     1       0.302   2.007  -0.909  0.00  0.00    -0.358 OA
ATOM     13  H   UNL     1      -0.340   2.732  -0.955  0.00  0.00    +0.213 HD
ENDBRANCH   6  12
TORSDOF 3
