REMARK  Name = 47965
REMARK  7 active torsions:
REMARK  status: ('A' for Active; 'I' for Inactive)
REMARK    1  A    between atoms: N_2  and  CA_9
REMARK    2  A    between atoms: C_3  and  CA_19
REMARK    3  A    between atoms: CA_11  and  C_16
REMARK    4  A    between atoms: C_16  and  O_17
REMARK    5  A    between atoms: CA_19  and  C_20
REMARK    6  A    between atoms: CA_19  and  N_28
REMARK    7  A    between atoms: C_25  and  O_26
REMARK                            x       y       z     vdW  Elec       q    Type
REMARK                         _______ _______ _______ _____ _____    ______ ____
ROOT
ATOM      1  O   UNL     1       1.707  -2.427   1.572  0.00  0.00    -0.277 OA
ATOM      2  N   UNL     1       0.272  -1.594  -0.047  0.00  0.00    -0.298 N 
ATOM      3  C   UNL     1       1.518  -1.996   0.435  0.00  0.00    +0.206 C 
ATOM      4  H   UNL     1       0.209  -1.261  -0.972  0.00  0.00    +0.150 HD
ENDROOT
BRANCH   2   9
ATOM      5  S   UNL     1      -0.532   1.163   1.032  0.00  0.00    -0.114 S 
ATOM      6  O   UNL     1      -2.768  -2.448  -0.858  0.00  0.00    -0.273 OA
ATOM      7  N   UNL     1      -2.541  -0.426   0.334  0.00  0.00    -0.242 N 
ATOM      8  C   UNL     1      -1.504  -0.328   1.345  0.00  0.00    +0.155 C 
ATOM      9  CA  UNL     1      -0.946  -1.645   0.762  0.00  0.00    +0.178 C 
ATOM     10  C   UNL     1      -2.252  -1.678  -0.082  0.00  0.00    +0.251 C 
ATOM     11  CA  UNL     1      -3.424   0.569   0.060  0.00  0.00    +0.124 C 
ATOM     12  C   UNL     1      -1.964   2.275   1.243  0.00  0.00    +0.083 C 
ATOM     13  C   UNL     1      -3.224   1.833   0.501  0.00  0.00    -0.013 C 
ATOM     14  C   UNL     1      -4.196   2.972   0.308  0.00  0.00    +0.029 C 
BRANCH  11  16
ATOM     15  OXT UNL     1      -5.654  -0.134  -0.369  0.00  0.00    -0.244 OA
ATOM     16  C   UNL     1      -4.573   0.225  -0.791  0.00  0.00    +0.351 C 
BRANCH  16  17
ATOM     17  O   UNL     1      -4.230   0.372  -2.086  0.00  0.00    -0.476 OA
ATOM     18  H   UNL     1      -3.366   0.655  -2.312  0.00  0.00    +0.295 HD
ENDBRANCH  16  17
ENDBRANCH  11  16
ENDBRANCH   2   9
BRANCH   3  19
ATOM     19  CA  UNL     1       2.635  -1.827  -0.590  0.00  0.00    +0.036 C 
BRANCH  19  20
ATOM     20  C   UNL     1       3.269  -0.457  -0.475  0.00  0.00    -0.034 C 
ATOM     21  C   UNL     1       3.248   0.390  -1.569  0.00  0.00    -0.003 C 
ATOM     22  C   UNL     1       3.855  -0.083   0.721  0.00  0.00    -0.003 C 
ATOM     23  C   UNL     1       3.833   1.651  -1.463  0.00  0.00    +0.036 C 
ATOM     24  C   UNL     1       4.440   1.179   0.827  0.00  0.00    +0.036 C 
ATOM     25  C   UNL     1       4.429   2.046  -0.266  0.00  0.00    +0.134 C 
BRANCH  25  26
ATOM     26  O   UNL     1       5.000   3.277  -0.163  0.00  0.00    -0.506 OA
ATOM     27  H   UNL     1       4.992   3.860  -0.897  0.00  0.00    +0.292 HD
ENDBRANCH  25  26
ENDBRANCH  19  20
BRANCH  19  28
ATOM     28  N   UNL     1       3.601  -2.909  -0.381  0.00  0.00    +0.390 N 
ATOM     29  H1  UNL     1       3.128  -3.809  -0.468  0.00  0.00    -0.088 HD
ATOM     30  H2  UNL     1       4.007  -2.827   0.551  0.00  0.00    -0.088 HD
ATOM     31  H3  UNL     1       4.340  -2.845  -1.081  0.00  0.00    -0.088 HD
ENDBRANCH  19  28
ENDBRANCH   3  19
TORSDOF 7
