2717
  -OEChem-10051719313D

 29 30  0     1  0  0  0  0  0999 V2000
    5.0821   -0.5194    0.6697 Cl  0  0  0  0  0  0  0  0  0  0  0  0
   -1.3249    1.7255    0.0783 S   0  0  0  0  0  0  0  0  0  0  0  0
   -1.7200    2.7217   -0.8997 O   0  0  0  0  0  0  0  0  0  0  0  0
   -0.4271    2.0749    1.1634 O   0  0  0  0  0  0  0  0  0  0  0  0
   -2.8942   -2.4030    0.4222 O   0  0  0  0  0  0  0  0  0  0  0  0
   -1.5209   -0.9384   -0.7511 N   0  0  0  0  0  0  0  0  0  0  0  0
   -0.7023    0.2903   -0.8068 C   0  0  2  0  0  0  0  0  0  0  0  0
   -2.8077    1.0981    0.8194 C   0  0  0  0  0  0  0  0  0  0  0  0
   -2.5423   -0.2707    1.4030 C   0  0  0  0  0  0  0  0  0  0  0  0
    0.7531    0.0877   -0.4343 C   0  0  0  0  0  0  0  0  0  0  0  0
   -2.3444   -1.3038    0.3150 C   0  0  0  0  0  0  0  0  0  0  0  0
   -1.3418   -1.8773   -1.8562 C   0  0  0  0  0  0  0  0  0  0  0  0
    1.7354    0.8972   -1.0020 C   0  0  0  0  0  0  0  0  0  0  0  0
    1.1058   -0.9089    0.4741 C   0  0  0  0  0  0  0  0  0  0  0  0
    3.0747    0.7096   -0.6600 C   0  0  0  0  0  0  0  0  0  0  0  0
    2.4450   -1.0963    0.8161 C   0  0  0  0  0  0  0  0  0  0  0  0
    3.4295   -0.2872    0.2490 C   0  0  0  0  0  0  0  0  0  0  0  0
   -0.7391    0.5978   -1.8614 H   0  0  0  0  0  0  0  0  0  0  0  0
   -3.5799    1.0644    0.0440 H   0  0  0  0  0  0  0  0  0  0  0  0
   -3.1116    1.8091    1.5931 H   0  0  0  0  0  0  0  0  0  0  0  0
   -3.4077   -0.5763    2.0022 H   0  0  0  0  0  0  0  0  0  0  0  0
   -1.6646   -0.2787    2.0578 H   0  0  0  0  0  0  0  0  0  0  0  0
   -0.3107   -2.2408   -1.8589 H   0  0  0  0  0  0  0  0  0  0  0  0
   -1.5510   -1.3606   -2.7974 H   0  0  0  0  0  0  0  0  0  0  0  0
   -2.0154   -2.7340   -1.7724 H   0  0  0  0  0  0  0  0  0  0  0  0
    1.4716    1.6773   -1.7111 H   0  0  0  0  0  0  0  0  0  0  0  0
    0.3661   -1.5500    0.9423 H   0  0  0  0  0  0  0  0  0  0  0  0
    3.8311    1.3475   -1.1098 H   0  0  0  0  0  0  0  0  0  0  0  0
    2.7069   -1.8755    1.5274 H   0  0  0  0  0  0  0  0  0  0  0  0
  1 17  1  0  0  0  0
  2  3  2  0  0  0  0
  2  4  2  0  0  0  0
  2  7  1  0  0  0  0
  2  8  1  0  0  0  0
  5 11  2  0  0  0  0
  6  7  1  0  0  0  0
  6 11  1  0  0  0  0
  6 12  1  0  0  0  0
  7 10  1  0  0  0  0
  7 18  1  0  0  0  0
  8  9  1  0  0  0  0
  8 19  1  0  0  0  0
  8 20  1  0  0  0  0
  9 11  1  0  0  0  0
  9 21  1  0  0  0  0
  9 22  1  0  0  0  0
 10 13  2  0  0  0  0
 10 14  1  0  0  0  0
 12 23  1  0  0  0  0
 12 24  1  0  0  0  0
 12 25  1  0  0  0  0
 13 15  1  0  0  0  0
 13 26  1  0  0  0  0
 14 16  2  0  0  0  0
 14 27  1  0  0  0  0
 15 17  2  0  0  0  0
 15 28  1  0  0  0  0
 16 17  1  0  0  0  0
 16 29  1  0  0  0  0
M  END
> <DATABASE_ID>
DB01178

> <DATABASE_NAME>
drugbank

> <ORIGINAL_SOURCE>
PUBCHEM

> <ORIGINAL_SOURCE_URL>
https://pubchem.ncbi.nlm.nih.gov/rest/pug/compound/inchikey/WEQAYVWKMWHEJO-UHFFFAOYSA-N/SDF?record_type=3d

> <SMILES>
CN1C(C2=CC=C(Cl)C=C2)S(=O)(=O)CCC1=O

> <INCHI_IDENTIFIER>
InChI=1S/C11H12ClNO3S/c1-13-10(14)6-7-17(15,16)11(13)8-2-4-9(12)5-3-8/h2-5,11H,6-7H2,1H3

> <INCHI_KEY>
WEQAYVWKMWHEJO-UHFFFAOYSA-N

> <FORMULA>
C11H12ClNO3S

> <MOLECULAR_WEIGHT>
273.736

> <EXACT_MASS>
273.022641652

> <JCHEM_ACCEPTOR_COUNT>
3

> <JCHEM_AVERAGE_POLARIZABILITY>
25.893445086323045

> <JCHEM_BIOAVAILABILITY>
1

> <JCHEM_DONOR_COUNT>
0

> <JCHEM_FORMAL_CHARGE>
0

> <JCHEM_GHOSE_FILTER>
1

> <JCHEM_IUPAC>
2-(4-chlorophenyl)-3-methyl-1λ⁶,3-thiazinane-1,1,4-trione

> <ALOGPS_LOGP>
0.84

> <JCHEM_LOGP>
0.9171674296666675

> <ALOGPS_LOGS>
-2.23

> <JCHEM_MDDR_LIKE_RULE>
0

> <JCHEM_NUMBER_OF_RINGS>
2

> <JCHEM_PHYSIOLOGICAL_CHARGE>
0

> <JCHEM_PKA_STRONGEST_ACIDIC>
19.072128640163584

> <JCHEM_PKA_STRONGEST_BASIC>
-2.471632039008525

> <JCHEM_POLAR_SURFACE_AREA>
54.45

> <JCHEM_REFRACTIVITY>
64.88000000000001

> <JCHEM_ROTATABLE_BOND_COUNT>
1

> <JCHEM_RULE_OF_FIVE>
1

> <ALOGPS_SOLUBILITY>
1.61e+00 g/l

> <JCHEM_TRADITIONAL_IUPAC>
muskel

> <JCHEM_VEBER_RULE>
0

> <DRUGBANK_ID>
DB01178

> <SECONDARY_ACCESSION_NUMBERS>
APRD00865

> <DRUG_GROUPS>
approved; investigational; withdrawn

> <GENERIC_NAME>
Chlormezanone

> <SYNONYMS>
(±)-chlormezanone; 2-(p-chlorophenyl)tetrahydro-3-methyl-4H-1,3-thiazin-4-one 1,1-dioxide; 2-(p-chlorphenyl)-3-methyl-1,3-perhydrothiazin-4-on-1,1-dioxide; Chlormethazanone; Chlormezanona; Chlormézanone; Chlormezanone; Chlormezanonum; Clormezanona

> <INTERNATIONAL_BRANDS>
Fenaprim; Trancopal

$$$$
