REMARK  Name = 121891
REMARK  6 active torsions:
REMARK  status: ('A' for Active; 'I' for Inactive)
REMARK    1  A    between atoms: C_1  and  C_12
REMARK    2  A    between atoms: C_1  and  C_13
REMARK    3  A    between atoms: C_13  and  C_15
REMARK    4  A    between atoms: C_13  and  C_18
REMARK    5  A    between atoms: C_15  and  O_16
REMARK    6  A    between atoms: C_18  and  C_19
REMARK                            x       y       z     vdW  Elec       q    Type
REMARK                         _______ _______ _______ _____ _____    ______ ____
ROOT
ATOM      1  C   UNL     1       0.042   1.204   1.296  0.00  0.00    +0.097 C 
ENDROOT
BRANCH   1  12
ATOM      2  O   UNL     1      -1.058   2.966   0.129  0.00  0.00    -0.275 OA
ATOM      3  N   UNL     1      -1.944   0.843  -0.087  0.00  0.00    -0.280 N 
ATOM      4  C   UNL     1      -3.977   0.018  -0.969  0.00  0.00    +0.022 C 
ATOM      5  C   UNL     1      -2.997  -1.153  -0.787  0.00  0.00    +0.022 C 
ATOM      6  C   UNL     1      -3.038   1.225  -0.973  0.00  0.00    +0.093 C 
ATOM      7  C   UNL     1      -1.969  -0.591   0.198  0.00  0.00    +0.093 C 
ATOM      8  C   UNL     1      -5.013   0.119   0.160  0.00  0.00    +0.002 C 
ATOM      9  C   UNL     1      -3.650  -2.462  -0.355  0.00  0.00    +0.002 C 
ATOM     10  C   UNL     1      -5.698  -1.216   0.423  0.00  0.00    +0.000 C 
ATOM     11  C   UNL     1      -4.678  -2.298   0.760  0.00  0.00    +0.000 C 
ATOM     12  C   UNL     1      -1.032   1.763   0.396  0.00  0.00    +0.226 C 
ENDBRANCH   1  12
BRANCH   1  13
ATOM     13  C   UNL     1       1.252   0.791   0.458  0.00  0.00    +0.112 C 
BRANCH  13  15
ATOM     14  O   UNL     1       2.170   3.042   0.264  0.00  0.00    -0.250 OA
ATOM     15  C   UNL     1       1.776   2.017  -0.279  0.00  0.00    +0.314 C 
BRANCH  15  16
ATOM     16  O   UNL     1       1.734   1.870  -1.628  0.00  0.00    -0.480 OA
ATOM     17  H   UNL     1       1.425   1.068  -2.003  0.00  0.00    +0.295 HD
ENDBRANCH  15  16
ENDBRANCH  13  15
BRANCH  13  18
ATOM     18  C   UNL     1       2.353   0.208   1.369  0.00  0.00    +0.038 C 
BRANCH  18  19
ATOM     19  C   UNL     1       3.365  -0.628   0.620  0.00  0.00    -0.022 C 
ATOM     20  C   UNL     1       3.144  -1.987   0.470  0.00  0.00    -0.004 C 
ATOM     21  C   UNL     1       4.494  -0.019   0.099  0.00  0.00    -0.004 C 
ATOM     22  C   UNL     1       4.078  -2.759  -0.221  0.00  0.00    -0.000 C 
ATOM     23  C   UNL     1       5.428  -0.790  -0.592  0.00  0.00    -0.000 C 
ATOM     24  C   UNL     1       5.220  -2.160  -0.752  0.00  0.00    -0.000 C 
ENDBRANCH  18  19
ENDBRANCH  13  18
ENDBRANCH   1  13
TORSDOF 6
