REMARK  Name = 9429
REMARK  6 active torsions:
REMARK  status: ('A' for Active; 'I' for Inactive)
REMARK    1  A    between atoms: N_2  and  C_21
REMARK    2  A    between atoms: C_8  and  S_15
REMARK    3  A    between atoms: S_15  and  N_18
REMARK    4  A    between atoms: C_21  and  C_22
REMARK    5  A    between atoms: C_22  and  C_23
REMARK    6  A    between atoms: C_23  and  N_24
REMARK                            x       y       z     vdW  Elec       q    Type
REMARK                         _______ _______ _______ _____ _____    ______ ____
ROOT
ATOM      1  S   UNL     1      -0.351  -2.755  -1.600  0.00  0.00    -0.084 S 
ATOM      2  N   UNL     1       0.019  -0.434   0.435  0.00  0.00    -0.286 N 
ATOM      3  C   UNL     1      -1.244  -0.494  -0.206  0.00  0.00    +0.059 C 
ATOM      4  C   UNL     1       0.913  -1.525   0.578  0.00  0.00    +0.058 C 
ATOM      5  C   UNL     1      -1.541  -1.515  -1.131  0.00  0.00    +0.043 C 
ATOM      6  C   UNL     1       0.830  -2.648  -0.270  0.00  0.00    +0.043 C 
ATOM      7  C   UNL     1      -2.270   0.434   0.075  0.00  0.00    +0.035 C 
ATOM      8  C   UNL     1      -3.520   0.367  -0.547  0.00  0.00    +0.123 C 
ATOM      9  C   UNL     1       1.898  -1.558   1.589  0.00  0.00    +0.015 C 
ATOM     10  C   UNL     1      -2.798  -1.574  -1.758  0.00  0.00    +0.009 C 
ATOM     11  C   UNL     1      -3.783  -0.636  -1.467  0.00  0.00    +0.021 C 
ATOM     12  C   UNL     1       1.714  -3.731  -0.119  0.00  0.00    +0.008 C 
ATOM     13  C   UNL     1       2.771  -2.639   1.738  0.00  0.00    +0.001 C 
ATOM     14  C   UNL     1       2.681  -3.725   0.881  0.00  0.00    +0.001 C 
ENDROOT
BRANCH   8  15
ATOM     15  S   UNL     1      -4.753   1.541  -0.160  0.00  0.00    +0.063 S 
ATOM     16  O   UNL     1      -4.095   2.757   0.305  0.00  0.00    -0.153 OA
ATOM     17  O   UNL     1      -5.665   1.635  -1.295  0.00  0.00    -0.153 OA
BRANCH  15  18
ATOM     18  N   UNL     1      -5.591   0.819   1.170  0.00  0.00    -0.153 NA
ATOM     19  C   UNL     1      -6.236  -0.499   0.941  0.00  0.00    +0.115 C 
ATOM     20  C   UNL     1      -4.953   0.900   2.509  0.00  0.00    +0.115 C 
ENDBRANCH  15  18
ENDBRANCH   8  15
BRANCH   2  21
ATOM     21  C   UNL     1       0.400   0.838   1.062  0.00  0.00    +0.093 C 
BRANCH  21  22
ATOM     22  C   UNL     1       0.594   1.925   0.004  0.00  0.00    -0.001 C 
BRANCH  22  23
ATOM     23  C   UNL     1       1.640   1.595  -1.064  0.00  0.00    -0.076 C 
BRANCH  23  24
ATOM     24  N   UNL     1       2.953   1.330  -0.480  0.00  0.00    +0.384 N 
ATOM     25  N   UNL     1       5.793   1.799  -0.204  0.00  0.00    +0.383 N 
ATOM     26  C   UNL     1       3.902   0.887  -1.509  0.00  0.00    -0.101 C 
ATOM     27  C   UNL     1       3.465   2.519   0.212  0.00  0.00    -0.101 C 
ATOM     28  C   UNL     1       5.280   0.611  -0.897  0.00  0.00    -0.101 C 
ATOM     29  C   UNL     1       4.843   2.242   0.825  0.00  0.00    -0.101 C 
ATOM     30  C   UNL     1       7.105   1.533   0.382  0.00  0.00    -0.101 C 
ATOM     31  H   UNL     1       2.848   0.580   0.204  0.00  0.00    -0.080 HD
ATOM     32  H   UNL     1       5.899   2.549  -0.887  0.00  0.00    -0.080 HD
ENDBRANCH  23  24
ENDBRANCH  22  23
ENDBRANCH  21  22
ENDBRANCH   2  21
TORSDOF 6
