REMARK  Name = 441397
REMARK  11 active torsions:
REMARK  status: ('A' for Active; 'I' for Inactive)
REMARK    1  A    between atoms: C_6  and  C_27
REMARK    2  A    between atoms: C_7  and  N_12
REMARK    3  A    between atoms: C_13  and  C_15
REMARK    4  A    between atoms: C_15  and  C_16
REMARK    5  A    between atoms: C_15  and  N_22
REMARK    6  A    between atoms: C_27  and  O_28
REMARK    7  A    between atoms: O_28  and  C_29
REMARK    8  A    between atoms: C_29  and  O_31
REMARK    9  A    between atoms: O_31  and  C_33
REMARK   10  A    between atoms: C_33  and  O_34
REMARK   11  A    between atoms: O_34  and  C_35
REMARK                            x       y       z     vdW  Elec       q    Type
REMARK                         _______ _______ _______ _____ _____    ______ ____
ROOT
ATOM      1  S   UNL     1       1.550   0.904  -1.326  0.00  0.00    -0.118 S 
ATOM      2  O   UNL     1      -0.308   1.235   2.655  0.00  0.00    -0.273 OA
ATOM      3  N   UNL     1      -0.140   1.870   0.388  0.00  0.00    -0.260 N 
ATOM      4  C   UNL     1       1.189   2.228  -0.117  0.00  0.00    +0.151 C 
ATOM      5  C   UNL     1      -0.259   0.734  -1.739  0.00  0.00    +0.068 C 
ATOM      6  C   UNL     1      -0.964   0.963  -0.385  0.00  0.00    +0.185 C 
ATOM      7  C   UNL     1       1.714   2.023   1.311  0.00  0.00    +0.178 C 
ATOM      8  C   UNL     1       0.260   1.665   1.677  0.00  0.00    +0.247 C 
ATOM      9  C   UNL     1      -0.517  -0.676  -2.272  0.00  0.00    +0.013 C 
ATOM     10  C   UNL     1      -0.596   1.774  -2.816  0.00  0.00    +0.013 C 
ENDROOT
BRANCH   7  12
ATOM     11  O   UNL     1       4.493   1.950   0.521  0.00  0.00    -0.277 OA
ATOM     12  N   UNL     1       2.672   0.930   1.531  0.00  0.00    -0.298 N 
ATOM     13  C   UNL     1       4.003   0.988   1.110  0.00  0.00    +0.206 C 
ATOM     14  H   UNL     1       2.362   0.121   1.997  0.00  0.00    +0.150 HD
BRANCH  13  15
ATOM     15  C   UNL     1       4.787  -0.278   1.437  0.00  0.00    +0.036 C 
BRANCH  15  16
ATOM     16  C   UNL     1       4.694  -1.278   0.303  0.00  0.00    -0.034 C 
ATOM     17  C   UNL     1       3.667  -2.204   0.303  0.00  0.00    -0.006 C 
ATOM     18  C   UNL     1       5.640  -1.242  -0.707  0.00  0.00    -0.006 C 
ATOM     19  C   UNL     1       3.582  -3.125  -0.741  0.00  0.00    -0.000 C 
ATOM     20  C   UNL     1       5.555  -2.164  -1.750  0.00  0.00    -0.000 C 
ATOM     21  C   UNL     1       4.526  -3.105  -1.768  0.00  0.00    -0.000 C 
ENDBRANCH  15  16
BRANCH  15  22
ATOM     22  N   UNL     1       6.170   0.114   1.724  0.00  0.00    +0.390 N 
ATOM     23  H   UNL     1       6.181   0.786   2.492  0.00  0.00    -0.088 HD
ATOM     24  H   UNL     1       6.582   0.540   0.894  0.00  0.00    -0.088 HD
ATOM     25  H   UNL     1       6.710  -0.711   1.987  0.00  0.00    -0.088 HD
ENDBRANCH  15  22
ENDBRANCH  13  15
ENDBRANCH   7  12
BRANCH   6  27
ATOM     26  O   UNL     1      -2.540   2.772  -0.528  0.00  0.00    -0.248 OA
ATOM     27  C   UNL     1      -2.329   1.569  -0.469  0.00  0.00    +0.339 C 
BRANCH  27  28
ATOM     28  O   UNL     1      -3.265   0.578  -0.468  0.00  0.00    -0.412 OA
BRANCH  28  29
ATOM     29  C   UNL     1      -4.648   0.977  -0.544  0.00  0.00    +0.348 C 
ATOM     30  C   UNL     1      -4.878   1.723  -1.850  0.00  0.00    +0.100 C 
BRANCH  29  31
ATOM     31  O   UNL     1      -5.518  -0.176  -0.556  0.00  0.00    -0.382 OA
BRANCH  31  33
ATOM     32  O   UNL     1      -4.790  -0.798   1.541  0.00  0.00    -0.203 OA
ATOM     33  C   UNL     1      -5.485  -0.972   0.549  0.00  0.00    +0.514 C 
BRANCH  33  34
ATOM     34  O   UNL     1      -6.362  -1.996   0.355  0.00  0.00    -0.418 OA
BRANCH  34  35
ATOM     35  C   UNL     1      -6.457  -2.939   1.429  0.00  0.00    +0.212 C 
ATOM     36  C   UNL     1      -5.447  -4.044   1.205  0.00  0.00    +0.051 C 
ENDBRANCH  34  35
ENDBRANCH  33  34
ENDBRANCH  31  33
ENDBRANCH  29  31
ENDBRANCH  28  29
ENDBRANCH  27  28
ENDBRANCH   6  27
TORSDOF 11
