REMARK  Name = 4913
REMARK  7 active torsions:
REMARK  status: ('A' for Active; 'I' for Inactive)
REMARK    1  A    between atoms: N_2  and  C_14
REMARK    2  A    between atoms: C_3  and  C_5
REMARK    3  A    between atoms: C_10  and  N_11
REMARK    4  A    between atoms: C_14  and  C_15
REMARK    5  A    between atoms: C_15  and  N_16
REMARK    6  A    between atoms: N_16  and  C_18
REMARK    7  A    between atoms: N_16  and  C_20
REMARK                            x       y       z     vdW  Elec       q    Type
REMARK                         _______ _______ _______ _____ _____    ______ ____
ROOT
ATOM      1  O   UNL     1       0.323  -1.040   1.585  0.00  0.00    -0.270 OA
ATOM      2  N   UNL     1      -0.241   0.786   0.273  0.00  0.00    -0.303 N 
ATOM      3  C   UNL     1       0.648  -0.153   0.800  0.00  0.00    +0.246 C 
ATOM      4  H   UNL     1       0.104   1.464  -0.351  0.00  0.00    +0.150 HD
ENDROOT
BRANCH   3   5
ATOM      5  C   UNL     1       2.059  -0.060   0.348  0.00  0.00    +0.053 C 
ATOM      6  C   UNL     1       3.058  -0.524   1.180  0.00  0.00    +0.006 C 
ATOM      7  C   UNL     1       2.329   0.487  -0.890  0.00  0.00    +0.006 C 
ATOM      8  C   UNL     1       4.384  -0.437   0.755  0.00  0.00    +0.014 C 
ATOM      9  C   UNL     1       3.655   0.574  -1.314  0.00  0.00    +0.014 C 
ATOM     10  C   UNL     1       4.682   0.112  -0.492  0.00  0.00    +0.042 C 
BRANCH  10  11
ATOM     11  N   UNL     1       6.022   0.198  -0.922  0.00  0.00    -0.357 N 
ATOM     12  H   UNL     1       6.748  -0.128  -0.342  0.00  0.00    +0.142 HD
ATOM     13  H   UNL     1       6.233   0.585  -1.803  0.00  0.00    +0.142 HD
ENDBRANCH  10  11
ENDBRANCH   3   5
BRANCH   2  14
ATOM     14  C   UNL     1      -1.661   0.804   0.609  0.00  0.00    +0.067 C 
BRANCH  14  15
ATOM     15  C   UNL     1      -2.445  -0.064  -0.370  0.00  0.00    -0.056 C 
BRANCH  15  16
ATOM     16  N   UNL     1      -3.865  -0.060  -0.023  0.00  0.00    +0.388 N 
ATOM     17  H   UNL     1      -3.967  -0.426   0.924  0.00  0.00    -0.080 HD
BRANCH  16  18
ATOM     18  C   UNL     1      -4.617  -0.920  -0.936  0.00  0.00    -0.077 C 
ATOM     19  C   UNL     1      -4.080  -2.341  -0.919  0.00  0.00    -0.025 C 
ENDBRANCH  16  18
BRANCH  16  20
ATOM     20  C   UNL     1      -4.395   1.303  -0.051  0.00  0.00    -0.077 C 
ATOM     21  C   UNL     1      -5.855   1.334   0.367  0.00  0.00    -0.025 C 
ENDBRANCH  16  20
ENDBRANCH  15  16
ENDBRANCH  14  15
ENDBRANCH   2  14
TORSDOF 7
