REMARK  Name = 670
REMARK  4 active torsions:
REMARK  status: ('A' for Active; 'I' for Inactive)
REMARK    1  A    between atoms: C_2  and  C_3
REMARK    2  A    between atoms: C_2  and  C_6
REMARK    3  A    between atoms: C_3  and  O_4
REMARK    4  A    between atoms: C_6  and  O_7
REMARK                            x       y       z     vdW  Elec       q    Type
REMARK                         _______ _______ _______ _____ _____    ______ ____
ROOT
ATOM      1  O   UNL     1       0.000   1.277   0.000  0.00  0.00    -0.291 OA
ATOM      2  C   UNL     1       0.000   0.047   0.000  0.00  0.00    +0.209 C 
ENDROOT
BRANCH   2   3
ATOM      3  C   UNL     1      -1.284  -0.758   0.006  0.00  0.00    +0.205 C 
BRANCH   3   4
ATOM      4  O   UNL     1      -2.409   0.096  -0.003  0.00  0.00    -0.375 OA
ATOM      5  H   UNL     1      -3.219  -0.438   0.001  0.00  0.00    +0.211 HD
ENDBRANCH   3   4
ENDBRANCH   2   3
BRANCH   2   6
ATOM      6  C   UNL     1       1.284  -0.757  -0.005  0.00  0.00    +0.205 C 
BRANCH   6   7
ATOM      7  O   UNL     1       2.409   0.096   0.003  0.00  0.00    -0.375 OA
ATOM      8  H   UNL     1       3.219  -0.438  -0.001  0.00  0.00    +0.211 HD
ENDBRANCH   6   7
ENDBRANCH   2   6
TORSDOF 4
