REMARK  Name = 37367
REMARK  3 active torsions:
REMARK  status: ('A' for Active; 'I' for Inactive)
REMARK    1  A    between atoms: C_7  and  C_15
REMARK    2  A    between atoms: C_8  and  O_21
REMARK    3  A    between atoms: O_21  and  C_24
REMARK                            x       y       z     vdW  Elec       q    Type
REMARK                         _______ _______ _______ _____ _____    ______ ____
ROOT
ATOM      1 CL   UNL     1      -4.223   1.499  -2.887  0.00  0.00    -0.082 Cl
ATOM      2  O   UNL     1       2.005   1.598   2.289  0.00  0.00    -0.268 OA
ATOM      3  N   UNL     1      -0.043   2.166   1.346  0.00  0.00    -0.252 N 
ATOM      4  N   UNL     1       0.694  -0.601   0.358  0.00  0.00    -0.224 NA
ATOM      5  C   UNL     1      -1.058   1.958   0.350  0.00  0.00    +0.055 C 
ATOM      6  C   UNL     1      -1.287   0.712  -0.266  0.00  0.00    +0.032 C 
ATOM      7  C   UNL     1      -0.578  -0.530   0.158  0.00  0.00    +0.081 C 
ATOM      8  C   UNL     1       1.488   0.602   0.174  0.00  0.00    +0.353 C 
ATOM      9  C   UNL     1       1.178   1.478   1.380  0.00  0.00    +0.295 C 
ATOM     10  C   UNL     1      -1.884   3.034  -0.031  0.00  0.00    +0.016 C 
ATOM     11  C   UNL     1      -2.255   0.581  -1.278  0.00  0.00    +0.014 C 
ATOM     12  C   UNL     1      -0.273   3.205   2.351  0.00  0.00    +0.120 C 
ATOM     13  C   UNL     1      -2.857   2.893  -1.024  0.00  0.00    +0.013 C 
ATOM     14  C   UNL     1      -3.035   1.670  -1.655  0.00  0.00    +0.058 C 
ENDROOT
BRANCH   7  15
ATOM     15  C   UNL     1      -1.372  -1.772   0.386  0.00  0.00    +0.017 C 
ATOM     16  C   UNL     1      -2.689  -1.676   0.818  0.00  0.00    +0.001 C 
ATOM     17  C   UNL     1      -0.787  -3.013   0.164  0.00  0.00    +0.001 C 
ATOM     18  C   UNL     1      -3.432  -2.837   1.032  0.00  0.00    +0.000 C 
ATOM     19  C   UNL     1      -1.530  -4.174   0.377  0.00  0.00    +0.000 C 
ATOM     20  C   UNL     1      -2.852  -4.086   0.811  0.00  0.00    +0.000 C 
ENDBRANCH   7  15
BRANCH   8  21
ATOM     21  O   UNL     1       2.898   0.388   0.155  0.00  0.00    -0.406 OA
BRANCH  21  24
ATOM     22  O   UNL     1       2.659  -0.880  -1.731  0.00  0.00    -0.226 OA
ATOM     23  N   UNL     1       4.772  -0.549  -0.819  0.00  0.00    -0.242 N 
ATOM     24  C   UNL     1       3.384  -0.387  -0.869  0.00  0.00    +0.407 C 
ATOM     25  C   UNL     1       5.495  -1.336  -1.813  0.00  0.00    +0.118 C 
ATOM     26  C   UNL     1       5.583   0.058   0.227  0.00  0.00    +0.118 C 
ENDBRANCH  21  24
ENDBRANCH   8  21
TORSDOF 3
