REMARK  Name = 60021
REMARK  4 active torsions:
REMARK  status: ('A' for Active; 'I' for Inactive)
REMARK    1  A    between atoms: N_3  and  C_24
REMARK    2  A    between atoms: C_4  and  N_13
REMARK    3  A    between atoms: C_12  and  C_31
REMARK    4  A    between atoms: C_31  and  O_32
REMARK                            x       y       z     vdW  Elec       q    Type
REMARK                         _______ _______ _______ _____ _____    ______ ____
ROOT
ATOM      1  F   UNL     1      -2.259   3.639  -0.204  0.00  0.00    -0.203 F 
ATOM      2  O   UNL     1       2.757   3.506  -0.350  0.00  0.00    -0.286 OA
ATOM      3  N   UNL     1       1.607  -0.420  -0.036  0.00  0.00    -0.262 N 
ATOM      4  C   UNL     1      -1.735   1.332  -0.023  0.00  0.00    +0.077 C 
ATOM      5  C   UNL     1      -0.775   0.316   0.023  0.00  0.00    +0.032 C 
ATOM      6  C   UNL     1       0.599   0.604  -0.080  0.00  0.00    +0.060 C 
ATOM      7  C   UNL     1      -1.344   2.659  -0.159  0.00  0.00    +0.153 C 
ATOM      8  C   UNL     1       0.971   1.962  -0.188  0.00  0.00    +0.055 C 
ATOM      9  C   UNL     1       0.008   2.979  -0.235  0.00  0.00    +0.035 C 
ATOM     10  C   UNL     1       2.405   2.340  -0.228  0.00  0.00    +0.204 C 
ATOM     11  C   UNL     1       2.939  -0.011  -0.020  0.00  0.00    +0.079 C 
ATOM     12  C   UNL     1       3.394   1.245  -0.104  0.00  0.00    +0.129 C 
ENDROOT
BRANCH   4  13
ATOM     13  N   UNL     1      -3.093   1.008   0.068  0.00  0.00    -0.310 N 
ATOM     14  N   UNL     1      -5.798   0.170   0.405  0.00  0.00    +0.387 N 
ATOM     15  C   UNL     1      -5.033  -0.271  -0.767  0.00  0.00    -0.042 C 
ATOM     16  C   UNL     1      -3.529  -0.294  -0.457  0.00  0.00    +0.069 C 
ATOM     17  C   UNL     1      -3.898   1.554   1.165  0.00  0.00    +0.068 C 
ATOM     18  C   UNL     1      -5.383   1.512   0.809  0.00  0.00    -0.060 C 
ATOM     19  C   UNL     1      -5.517  -1.657  -1.188  0.00  0.00    -0.022 C 
ATOM     20  H   UNL     1      -5.635  -0.479   1.176  0.00  0.00    -0.084 HD
ATOM     21  H   UNL     1      -6.790   0.187   0.166  0.00  0.00    -0.084 HD
ENDBRANCH   4  13
BRANCH   3  24
ATOM     22  F   UNL     1       1.202  -1.885   2.314  0.00  0.00    -0.203 F 
ATOM     23  F   UNL     1       0.524  -5.883  -0.124  0.00  0.00    -0.204 F 
ATOM     24  C   UNL     1       1.329  -1.826  -0.057  0.00  0.00    +0.083 C 
ATOM     25  C   UNL     1       1.132  -2.525   1.138  0.00  0.00    +0.156 C 
ATOM     26  C   UNL     1       1.252  -2.509  -1.275  0.00  0.00    +0.020 C 
ATOM     27  C   UNL     1       0.860  -3.893   1.116  0.00  0.00    +0.061 C 
ATOM     28  C   UNL     1       0.980  -3.877  -1.297  0.00  0.00    +0.031 C 
ATOM     29  C   UNL     1       0.784  -4.569  -0.102  0.00  0.00    +0.142 C 
ENDBRANCH   3  24
BRANCH  12  31
ATOM     30  O   UNL     1       5.663   0.671  -0.518  0.00  0.00    -0.245 OA
ATOM     31  C   UNL     1       4.841   1.462  -0.090  0.00  0.00    +0.342 C 
BRANCH  31  32
ATOM     32  O   UNL     1       5.115   2.662   0.465  0.00  0.00    -0.477 OA
ATOM     33  H   UNL     1       4.416   3.208   0.768  0.00  0.00    +0.295 HD
ENDBRANCH  31  32
ENDBRANCH  12  31
TORSDOF 4
