REMARK  Name = 8071
REMARK  3 active torsions:
REMARK  status: ('A' for Active; 'I' for Inactive)
REMARK    1  A    between atoms: C_1  and  O_2
REMARK    2  A    between atoms: C_1  and  C_4
REMARK    3  A    between atoms: C_4  and  O_5
REMARK                            x       y       z     vdW  Elec       q    Type
REMARK                         _______ _______ _______ _____ _____    ______ ____
ROOT
ATOM      1  C   UNL     1       0.644  -0.401   0.000  0.00  0.00    +0.174 C 
ENDROOT
BRANCH   1   2
ATOM      2  O   UNL     1       1.748   0.495  -0.011  0.00  0.00    -0.348 OA
ATOM      3  C   UNL     1       2.985  -0.204   0.011  0.00  0.00    +0.174 C 
ENDBRANCH   1   2
BRANCH   1   4
ATOM      4  C   UNL     1      -0.644   0.401   0.000  0.00  0.00    +0.174 C 
BRANCH   4   5
ATOM      5  O   UNL     1      -1.748  -0.495  -0.011  0.00  0.00    -0.348 OA
ATOM      6  C   UNL     1      -2.985   0.203   0.011  0.00  0.00    +0.174 C 
ENDBRANCH   4   5
ENDBRANCH   1   4
TORSDOF 3
