REMARK  Name = 5002
REMARK  6 active torsions:
REMARK  status: ('A' for Active; 'I' for Inactive)
REMARK    1  A    between atoms: N_2  and  C_23
REMARK    2  A    between atoms: C_23  and  C_24
REMARK    3  A    between atoms: C_24  and  O_25
REMARK    4  A    between atoms: O_25  and  C_26
REMARK    5  A    between atoms: C_26  and  C_27
REMARK    6  A    between atoms: C_27  and  O_28
REMARK                            x       y       z     vdW  Elec       q    Type
REMARK                         _______ _______ _______ _____ _____    ______ ____
ROOT
ATOM      1  S   UNL     1       4.031   0.673   1.599  0.00  0.00    -0.085 S 
ATOM      2  N   UNL     1      -2.844   0.144   0.712  0.00  0.00    +0.391 N 
ATOM      3  N   UNL     1      -0.018  -0.189   0.649  0.00  0.00    -0.288 N 
ATOM      4  N   UNL     1       1.944  -1.347   0.385  0.00  0.00    -0.390 NA
ATOM      5  C   UNL     1      -2.234  -0.917  -0.102  0.00  0.00    -0.055 C 
ATOM      6  C   UNL     1      -1.952   1.311   0.782  0.00  0.00    -0.055 C 
ATOM      7  C   UNL     1      -0.888  -1.349   0.484  0.00  0.00    +0.070 C 
ATOM      8  C   UNL     1      -0.600   0.929   1.387  0.00  0.00    +0.070 C 
ATOM      9  C   UNL     1       1.290  -0.218   0.305  0.00  0.00    +0.183 C 
ATOM     10  C   UNL     1       1.876   1.083  -0.139  0.00  0.00    +0.050 C 
ATOM     11  C   UNL     1       3.059   1.594   0.417  0.00  0.00    +0.033 C 
ATOM     12  C   UNL     1       1.170   1.832  -1.091  0.00  0.00    +0.004 C 
ATOM     13  C   UNL     1       3.295  -1.515   0.033  0.00  0.00    +0.121 C 
ATOM     14  C   UNL     1       4.348  -0.745   0.558  0.00  0.00    +0.055 C 
ATOM     15  C   UNL     1       3.518   2.856   0.014  0.00  0.00    +0.007 C 
ATOM     16  C   UNL     1       1.641   3.082  -1.489  0.00  0.00    +0.000 C 
ATOM     17  C   UNL     1       2.811   3.595  -0.935  0.00  0.00    +0.001 C 
ATOM     18  C   UNL     1       3.609  -2.589  -0.813  0.00  0.00    +0.086 C 
ATOM     19  C   UNL     1       5.677  -1.048   0.228  0.00  0.00    +0.008 C 
ATOM     20  C   UNL     1       4.932  -2.882  -1.145  0.00  0.00    -0.019 C 
ATOM     21  C   UNL     1       5.966  -2.113  -0.622  0.00  0.00    -0.004 C 
ATOM     22  H   UNL     1      -2.985  -0.212   1.657  0.00  0.00    -0.079 HD
ENDROOT
BRANCH   2  23
ATOM     23  C   UNL     1      -4.146   0.525   0.167  0.00  0.00    -0.045 C 
BRANCH  23  24
ATOM     24  C   UNL     1      -5.104  -0.655   0.191  0.00  0.00    +0.120 C 
BRANCH  24  25
ATOM     25  O   UNL     1      -6.359  -0.236  -0.330  0.00  0.00    -0.353 OA
BRANCH  25  26
ATOM     26  C   UNL     1      -7.303  -1.298  -0.335  0.00  0.00    +0.174 C 
BRANCH  26  27
ATOM     27  C   UNL     1      -8.622  -0.784  -0.878  0.00  0.00    +0.169 C 
BRANCH  27  28
ATOM     28  O   UNL     1      -9.097   0.258  -0.034  0.00  0.00    -0.379 OA
ATOM     29  H   UNL     1      -9.941   0.592  -0.376  0.00  0.00    +0.211 HD
ENDBRANCH  27  28
ENDBRANCH  26  27
ENDBRANCH  25  26
ENDBRANCH  24  25
ENDBRANCH  23  24
ENDBRANCH   2  23
TORSDOF 6
