REMARK  Name = 5281052
REMARK  3 active torsions:
REMARK  status: ('A' for Active; 'I' for Inactive)
REMARK    1  A    between atoms: C_3  and  C_10
REMARK    2  A    between atoms: C_5  and  O_8
REMARK    3  A    between atoms: C_11  and  C_13
REMARK                            x       y       z     vdW  Elec       q    Type
REMARK                         _______ _______ _______ _____ _____    ______ ____
ROOT
ATOM      1  O   UNL     1      -1.620  -1.445   0.033  0.00  0.00    -0.444 OA
ATOM      2  O   UNL     1      -3.430  -2.810   0.001  0.00  0.00    -0.245 OA
ATOM      3  C   UNL     1      -1.079  -0.171  -0.381  0.00  0.00    +0.199 C 
ATOM      4  C   UNL     1      -1.897   0.969   0.214  0.00  0.00    +0.112 C 
ATOM      5  C   UNL     1      -3.340   0.728  -0.082  0.00  0.00    +0.127 C 
ATOM      6  C   UNL     1      -3.826  -0.507  -0.257  0.00  0.00    +0.114 C 
ATOM      7  C   UNL     1      -2.955  -1.683  -0.075  0.00  0.00    +0.344 C 
ENDROOT
BRANCH   5   8
ATOM      8  O   UNL     1      -4.119   1.859  -0.183  0.00  0.00    -0.475 OA
ATOM      9  C   UNL     1      -4.142   2.610   1.007  0.00  0.00    +0.252 C 
ENDBRANCH   5   8
BRANCH   3  10
ATOM     10  C   UNL     1       0.348  -0.112   0.055  0.00  0.00    +0.017 C 
ATOM     11  C   UNL     1       1.370  -0.036  -0.798  0.00  0.00    -0.001 C 
BRANCH  11  13
ATOM     12  C   UNL     1       4.563  -0.802   1.174  0.00  0.00    -0.000 C 
ATOM     13  C   UNL     1       2.752   0.017  -0.370  0.00  0.00    -0.000 C 
ATOM     14  C   UNL     1       5.493   0.296   0.638  0.00  0.00    -0.000 C 
ATOM     15  C   UNL     1       3.150  -0.753   0.661  0.00  0.00    -0.000 C 
ATOM     16  C   UNL     1       3.738   0.850  -1.042  0.00  0.00    -0.000 C 
ATOM     17  C   UNL     1       4.993   0.988  -0.593  0.00  0.00    -0.000 C 
ENDBRANCH  11  13
ENDBRANCH   3  10
TORSDOF 3
