REMARK  Name = 447600
REMARK  6 active torsions:
REMARK  status: ('A' for Active; 'I' for Inactive)
REMARK    1  A    between atoms: C_2  and  S_7
REMARK    2  A    between atoms: C_3  and  O_9
REMARK    3  A    between atoms: C_4  and  C_15
REMARK    4  A    between atoms: C_5  and  O_11
REMARK    5  A    between atoms: C_6  and  O_13
REMARK    6  A    between atoms: C_15  and  O_16
REMARK                            x       y       z     vdW  Elec       q    Type
REMARK                         _______ _______ _______ _____ _____    ______ ____
ROOT
ATOM      1  O   UNL     1       0.354  -1.062  -0.277  0.00  0.00    -0.328 OA
ATOM      2  C   UNL     1      -1.477   0.535  -0.242  0.00  0.00    +0.103 C 
ATOM      3  C   UNL     1      -0.501   1.641   0.185  0.00  0.00    +0.154 C 
ATOM      4  C   UNL     1      -0.975  -0.846   0.217  0.00  0.00    +0.159 C 
ATOM      5  C   UNL     1       0.938   1.282  -0.195  0.00  0.00    +0.195 C 
ATOM      6  C   UNL     1       1.298  -0.133   0.247  0.00  0.00    +0.266 C 
ENDROOT
BRANCH   2   7
ATOM      7  S   UNL     1      -3.145   0.900   0.426  0.00  0.00    -0.164 S 
ATOM      8  H   UNL     1      -3.546   2.126  -0.004  0.00  0.00    +0.102 HD
ENDBRANCH   2   7
BRANCH   3   9
ATOM      9  O   UNL     1      -0.850   2.860  -0.474  0.00  0.00    -0.381 OA
ATOM     10  H   UNL     1      -1.761   3.103  -0.244  0.00  0.00    +0.210 HD
ENDBRANCH   3   9
BRANCH   5  11
ATOM     11  O   UNL     1       1.830   2.215   0.415  0.00  0.00    -0.378 OA
ATOM     12  H   UNL     1       1.601   3.114   0.134  0.00  0.00    +0.211 HD
ENDBRANCH   5  11
BRANCH   6  13
ATOM     13  O   UNL     1       2.600  -0.432  -0.254  0.00  0.00    -0.326 OA
ATOM     14  C   UNL     1       3.008  -1.740   0.118  0.00  0.00    +0.177 C 
ENDBRANCH   6  13
BRANCH   4  15
ATOM     15  C   UNL     1      -1.817  -2.003  -0.319  0.00  0.00    +0.168 C 
BRANCH  15  16
ATOM     16  O   UNL     1      -1.263  -3.217   0.153  0.00  0.00    -0.379 OA
ATOM     17  H   UNL     1      -1.787  -3.962  -0.179  0.00  0.00    +0.211 HD
ENDBRANCH  15  16
ENDBRANCH   4  15
TORSDOF 6
