REMARK  Name = 5379
REMARK  5 active torsions:
REMARK  status: ('A' for Active; 'I' for Inactive)
REMARK    1  A    between atoms: N_3  and  C_22
REMARK    2  A    between atoms: C_6  and  O_25
REMARK    3  A    between atoms: C_8  and  N_13
REMARK    4  A    between atoms: C_9  and  C_28
REMARK    5  A    between atoms: C_28  and  O_29
REMARK                            x       y       z     vdW  Elec       q    Type
REMARK                         _______ _______ _______ _____ _____    ______ ____
ROOT
ATOM      1  F   UNL     1       1.806  -3.014   0.084  0.00  0.00    -0.203 F 
ATOM      2  O   UNL     1      -3.208  -2.593   0.213  0.00  0.00    -0.286 OA
ATOM      3  N   UNL     1      -1.826   1.222  -0.187  0.00  0.00    -0.285 N 
ATOM      4  C   UNL     1      -0.876   0.163  -0.121  0.00  0.00    +0.090 C 
ATOM      5  C   UNL     1      -3.175   0.934  -0.115  0.00  0.00    +0.075 C 
ATOM      6  C   UNL     1       0.509   0.383  -0.189  0.00  0.00    +0.168 C 
ATOM      7  C   UNL     1      -1.327  -1.168   0.018  0.00  0.00    +0.058 C 
ATOM      8  C   UNL     1       1.411  -0.682  -0.120  0.00  0.00    +0.111 C 
ATOM      9  C   UNL     1      -3.707  -0.288   0.017  0.00  0.00    +0.129 C 
ATOM     10  C   UNL     1      -2.785  -1.450   0.094  0.00  0.00    +0.204 C 
ATOM     11  C   UNL     1      -0.423  -2.235   0.087  0.00  0.00    +0.036 C 
ATOM     12  C   UNL     1       0.946  -1.987   0.018  0.00  0.00    +0.156 C 
ENDROOT
BRANCH   8  13
ATOM     13  N   UNL     1       2.790  -0.456  -0.188  0.00  0.00    -0.308 N 
ATOM     14  N   UNL     1       5.631  -0.203  -0.206  0.00  0.00    +0.387 N 
ATOM     15  C   UNL     1       3.514  -0.215   1.069  0.00  0.00    +0.070 C 
ATOM     16  C   UNL     1       4.835   0.518   0.794  0.00  0.00    -0.042 C 
ATOM     17  C   UNL     1       3.574  -1.067  -1.266  0.00  0.00    +0.068 C 
ATOM     18  C   UNL     1       4.890  -0.316  -1.460  0.00  0.00    -0.060 C 
ATOM     19  C   UNL     1       5.651   0.654   2.079  0.00  0.00    -0.022 C 
ATOM     20  H   UNL     1       5.844  -1.137   0.144  0.00  0.00    -0.084 HD
ATOM     21  H   UNL     1       6.494   0.313  -0.376  0.00  0.00    -0.084 HD
ENDBRANCH   8  13
BRANCH   3  22
ATOM     22  C   UNL     1      -1.458   2.650  -0.333  0.00  0.00    +0.077 C 
ATOM     23  C   UNL     1      -1.959   3.668   0.634  0.00  0.00    +0.022 C 
ATOM     24  C   UNL     1      -0.506   3.292   0.619  0.00  0.00    +0.022 C 
ENDBRANCH   3  22
BRANCH   6  25
ATOM     25  O   UNL     1       1.047   1.632  -0.323  0.00  0.00    -0.469 OA
ATOM     26  C   UNL     1       1.258   2.103  -1.651  0.00  0.00    +0.253 C 
ENDBRANCH   6  25
BRANCH   9  28
ATOM     27  O   UNL     1      -5.945   0.347  -0.471  0.00  0.00    -0.245 OA
ATOM     28  C   UNL     1      -5.164  -0.410   0.077  0.00  0.00    +0.342 C 
BRANCH  28  29
ATOM     29  O   UNL     1      -5.499  -1.482   0.828  0.00  0.00    -0.477 OA
ATOM     30  H   UNL     1      -4.829  -2.011   1.214  0.00  0.00    +0.295 HD
ENDBRANCH  28  29
ENDBRANCH   9  28
TORSDOF 5
