REMARK  Name = 5462328
REMARK  4 active torsions:
REMARK  status: ('A' for Active; 'I' for Inactive)
REMARK    1  A    between atoms: C_12  and  O_21
REMARK    2  A    between atoms: C_18  and  O_25
REMARK    3  A    between atoms: O_21  and  C_23
REMARK    4  A    between atoms: O_25  and  C_27
REMARK                            x       y       z     vdW  Elec       q    Type
REMARK                         _______ _______ _______ _____ _____    ______ ____
ROOT
ATOM      1  O   UNL     1      -0.920   0.200   1.474  0.00  0.00    -0.472 OA
ATOM      2  N   UNL     1       4.148  -0.450   0.284  0.00  0.00    +0.387 N 
ATOM      3  C   UNL     1       1.294  -0.562   0.801  0.00  0.00    +0.062 C 
ATOM      4  C   UNL     1       1.980  -1.448  -0.250  0.00  0.00    +0.011 C 
ATOM      5  C   UNL     1       3.177  -0.623  -0.824  0.00  0.00    -0.049 C 
ATOM      6  C   UNL     1      -0.093  -1.006   1.323  0.00  0.00    +0.214 C 
ATOM      7  C   UNL     1       2.288  -0.253   1.938  0.00  0.00    -0.015 C 
ATOM      8  C   UNL     1       0.861   0.705   0.139  0.00  0.00    +0.014 C 
ATOM      9  C   UNL     1       2.720   0.708  -1.515  0.00  0.00    +0.006 C 
ATOM     10  C   UNL     1       3.622   0.311   1.422  0.00  0.00    -0.077 C 
ATOM     11  C   UNL     1       1.517   1.359  -0.888  0.00  0.00    -0.025 C 
ATOM     12  C   UNL     1      -0.805  -2.060   0.434  0.00  0.00    +0.230 C 
ATOM     13  C   UNL     1       1.001  -1.940  -1.286  0.00  0.00    -0.029 C 
ATOM     14  C   UNL     1      -0.369   1.107   0.610  0.00  0.00    +0.169 C 
ATOM     15  C   UNL     1      -0.276  -2.199  -0.969  0.00  0.00    +0.016 C 
ATOM     16  C   UNL     1       5.441   0.068  -0.152  0.00  0.00    -0.101 C 
ATOM     17  C   UNL     1       0.944   2.541  -1.359  0.00  0.00    -0.001 C 
ATOM     18  C   UNL     1      -0.950   2.275   0.167  0.00  0.00    +0.182 C 
ATOM     19  C   UNL     1      -0.273   3.005  -0.818  0.00  0.00    +0.040 C 
ATOM     20  H   UNL     1       4.306  -1.399   0.622  0.00  0.00    -0.080 HD
ENDROOT
BRANCH  12  21
ATOM     21  O   UNL     1      -2.208  -1.809   0.413  0.00  0.00    -0.444 OA
BRANCH  21  23
ATOM     22  O   UNL     1      -2.565  -3.812  -0.680  0.00  0.00    -0.250 OA
ATOM     23  C   UNL     1      -2.973  -2.773  -0.179  0.00  0.00    +0.318 C 
ATOM     24  C   UNL     1      -4.417  -2.377  -0.128  0.00  0.00    +0.121 C 
ENDBRANCH  21  23
ENDBRANCH  12  21
BRANCH  18  25
ATOM     25  O   UNL     1      -2.151   2.692   0.636  0.00  0.00    -0.421 OA
BRANCH  25  27
ATOM     26  O   UNL     1      -3.202   1.442  -1.040  0.00  0.00    -0.250 OA
ATOM     27  C   UNL     1      -3.257   2.191  -0.074  0.00  0.00    +0.322 C 
ATOM     28  C   UNL     1      -4.534   2.709   0.520  0.00  0.00    +0.122 C 
ENDBRANCH  25  27
ENDBRANCH  18  25
TORSDOF 4
