REMARK  Name = 4890
REMARK  3 active torsions:
REMARK  status: ('A' for Active; 'I' for Inactive)
REMARK    1  A    between atoms: N_3  and  C_20
REMARK    2  A    between atoms: C_10  and  C_14
REMARK    3  A    between atoms: C_20  and  C_21
REMARK                            x       y       z     vdW  Elec       q    Type
REMARK                         _______ _______ _______ _____ _____    ______ ____
ROOT
ATOM      1 CL   UNL     1      -1.127   4.648  -0.009  0.00  0.00    -0.082 Cl
ATOM      2  O   UNL     1       2.474  -2.424   1.581  0.00  0.00    -0.272 OA
ATOM      3  N   UNL     1       2.103  -0.359   0.567  0.00  0.00    -0.257 N 
ATOM      4  N   UNL     1      -0.523  -1.325   1.747  0.00  0.00    -0.261 NA
ATOM      5  C   UNL     1       1.285   0.811   0.397  0.00  0.00    +0.055 C 
ATOM      6  C   UNL     1       1.832  -1.374   1.493  0.00  0.00    +0.254 C 
ATOM      7  C   UNL     1      -0.110   0.814   0.605  0.00  0.00    +0.032 C 
ATOM      8  C   UNL     1       0.713  -1.107   2.468  0.00  0.00    +0.210 C 
ATOM      9  C   UNL     1       1.886   2.020  -0.008  0.00  0.00    +0.016 C 
ATOM     10  C   UNL     1      -0.882  -0.433   0.887  0.00  0.00    +0.078 C 
ATOM     11  C   UNL     1      -0.847   2.006   0.485  0.00  0.00    +0.014 C 
ATOM     12  C   UNL     1       1.143   3.196  -0.144  0.00  0.00    +0.013 C 
ATOM     13  C   UNL     1      -0.220   3.192   0.114  0.00  0.00    +0.058 C 
ENDROOT
BRANCH  10  14
ATOM     14  C   UNL     1      -2.141  -0.689   0.128  0.00  0.00    +0.017 C 
ATOM     15  C   UNL     1      -2.273  -0.201  -1.166  0.00  0.00    +0.001 C 
ATOM     16  C   UNL     1      -3.166  -1.413   0.724  0.00  0.00    +0.001 C 
ATOM     17  C   UNL     1      -3.450  -0.440  -1.875  0.00  0.00    +0.000 C 
ATOM     18  C   UNL     1      -4.343  -1.652   0.014  0.00  0.00    +0.000 C 
ATOM     19  C   UNL     1      -4.485  -1.166  -1.286  0.00  0.00    +0.000 C 
ENDBRANCH  10  14
BRANCH   3  20
ATOM     20  C   UNL     1       3.324  -0.467  -0.231  0.00  0.00    +0.098 C 
BRANCH  20  21
ATOM     21  C   UNL     1       3.017  -0.490  -1.714  0.00  0.00    +0.020 C 
ATOM     22  C   UNL     1       2.161  -1.585  -2.237  0.00  0.00    +0.002 C 
ATOM     23  C   UNL     1       3.630  -1.561  -2.541  0.00  0.00    +0.002 C 
ENDBRANCH  20  21
ENDBRANCH   3  20
TORSDOF 3
