REMARK  Name = 17754199
REMARK  2 active torsions:
REMARK  status: ('A' for Active; 'I' for Inactive)
REMARK    1  A    between atoms: C_1  and  N_3
REMARK    2  A    between atoms: C_2  and  S_6
REMARK                            x       y       z     vdW  Elec       q    Type
REMARK                         _______ _______ _______ _____ _____    ______ ____
ROOT
ATOM      1  C   UNL     1       0.785   0.518   0.000  0.00  0.00    +0.061 C 
ATOM      2  C   UNL     1      -0.536   0.729   0.000  0.00  0.00    +0.042 C 
ENDROOT
BRANCH   1   3
ATOM      3  N   UNL     1       1.427  -0.679   0.000  0.00  0.00    -0.356 N 
ATOM      4  H   UNL     1       2.412  -0.709   0.000  0.00  0.00    +0.142 HD
ATOM      5  H   UNL     1       0.909  -1.516   0.000  0.00  0.00    +0.142 HD
ENDBRANCH   1   3
BRANCH   2   6
ATOM      6  S   UNL     1      -1.676  -0.569   0.000  0.00  0.00    -0.140 S 
ATOM      7  H   UNL     1      -2.939  -0.063   0.000  0.00  0.00    +0.107 HD
ENDBRANCH   2   6
TORSDOF 2
