REMARK  Name = 17754134
REMARK  5 active torsions:
REMARK  status: ('A' for Active; 'I' for Inactive)
REMARK    1  A    between atoms: C_3  and  C_15
REMARK    2  A    between atoms: C_15  and  CA_16
REMARK    3  A    between atoms: CA_16  and  N_17
REMARK    4  A    between atoms: CA_16  and  C_22
REMARK    5  A    between atoms: C_22  and  O_23
REMARK                            x       y       z     vdW  Elec       q    Type
REMARK                         _______ _______ _______ _____ _____    ______ ____
ROOT
ATOM      1  N   UNL     1      -0.530   0.105   0.633  0.00  0.00    -0.408 NA
ATOM      2  N   UNL     1       1.558  -1.661   0.587  0.00  0.00    -0.242 NA
ATOM      3  C   UNL     1      -1.550   0.993   0.649  0.00  0.00    +0.107 C 
ATOM      4  C   UNL     1       0.692   0.521   0.241  0.00  0.00    +0.134 C 
ATOM      5  C   UNL     1       0.907   1.862  -0.148  0.00  0.00    +0.098 C 
ATOM      6  C   UNL     1       1.756  -0.379   0.217  0.00  0.00    +0.107 C 
ATOM      7  C   UNL     1       3.033   0.064  -0.195  0.00  0.00    +0.020 C 
ATOM      8  C   UNL     1      -1.427   2.317   0.286  0.00  0.00    +0.024 C 
ATOM      9  C   UNL     1      -0.175   2.752  -0.118  0.00  0.00    -0.013 C 
ATOM     10  C   UNL     1       2.175   2.290  -0.554  0.00  0.00    -0.015 C 
ATOM     11  C   UNL     1       3.234   1.394  -0.577  0.00  0.00    -0.002 C 
ATOM     12  C   UNL     1       4.090  -0.856  -0.211  0.00  0.00    +0.003 C 
ATOM     13  C   UNL     1       3.878  -2.171   0.170  0.00  0.00    +0.021 C 
ATOM     14  C   UNL     1       2.603  -2.520   0.558  0.00  0.00    +0.099 C 
ENDROOT
BRANCH   3  15
ATOM     15  C   UNL     1      -2.878   0.475   1.092  0.00  0.00    +0.048 C 
BRANCH  15  16
ATOM     16  CA  UNL     1      -3.741  -0.077  -0.064  0.00  0.00    +0.043 C 
BRANCH  16  17
ATOM     17  N   UNL     1      -5.022  -0.563   0.444  0.00  0.00    +0.389 N 
ATOM     18  H1  UNL     1      -5.509   0.196   0.920  0.00  0.00    -0.088 HD
ATOM     19  H2  UNL     1      -4.860  -1.327   1.100  0.00  0.00    -0.088 HD
ATOM     20  H3  UNL     1      -5.591  -0.897  -0.334  0.00  0.00    -0.088 HD
ENDBRANCH  16  17
BRANCH  16  22
ATOM     21  OXT UNL     1      -3.203  -2.425  -0.426  0.00  0.00    -0.253 OA
ATOM     22  C   UNL     1      -3.074  -1.253  -0.757  0.00  0.00    +0.293 C 
BRANCH  22  23
ATOM     23  O   UNL     1      -2.329  -0.868  -1.826  0.00  0.00    -0.482 OA
ATOM     24  H   UNL     1      -2.256   0.040  -2.044  0.00  0.00    +0.295 HD
ENDBRANCH  22  23
ENDBRANCH  16  22
ENDBRANCH  15  16
ENDBRANCH   3  15
TORSDOF 5
