REMARK  Name = 2833
REMARK  5 active torsions:
REMARK  status: ('A' for Active; 'I' for Inactive)
REMARK    1  A    between atoms: C_2  and  N_19
REMARK    2  A    between atoms: C_9  and  O_23
REMARK    3  A    between atoms: C_13  and  O_25
REMARK    4  A    between atoms: C_14  and  O_27
REMARK    5  A    between atoms: C_17  and  O_29
REMARK                            x       y       z     vdW  Elec       q    Type
REMARK                         _______ _______ _______ _____ _____    ______ ____
ROOT
ATOM      1  O   UNL     1      -4.522   0.133  -1.709  0.00  0.00    -0.283 OA
ATOM      2  C   UNL     1      -0.824   2.058   0.592  0.00  0.00    +0.094 C 
ATOM      3  C   UNL     1      -0.188   2.126   1.998  0.00  0.00    +0.029 C 
ATOM      4  C   UNL     1       0.474   0.862   2.557  0.00  0.00    +0.029 C 
ATOM      5  C   UNL     1      -1.579   0.779   0.218  0.00  0.00    -0.001 C 
ATOM      6  C   UNL     1       1.266   0.092   1.536  0.00  0.00    -0.016 C 
ATOM      7  C   UNL     1       0.601  -0.576   0.487  0.00  0.00    +0.033 C 
ATOM      8  C   UNL     1      -0.886  -0.507   0.391  0.00  0.00    +0.000 C 
ATOM      9  C   UNL     1       1.351  -1.268  -0.478  0.00  0.00    +0.175 C 
ATOM     10  C   UNL     1       2.664   0.044   1.608  0.00  0.00    +0.036 C 
ATOM     11  C   UNL     1      -2.806   0.925  -0.317  0.00  0.00    +0.043 C 
ATOM     12  C   UNL     1      -1.497  -1.695   0.568  0.00  0.00    +0.003 C 
ATOM     13  C   UNL     1       2.743  -1.308  -0.392  0.00  0.00    +0.206 C 
ATOM     14  C   UNL     1       3.397  -0.655   0.649  0.00  0.00    +0.175 C 
ATOM     15  C   UNL     1      -3.763  -0.109  -0.773  0.00  0.00    +0.229 C 
ATOM     16  C   UNL     1      -2.903  -1.996   0.613  0.00  0.00    +0.040 C 
ATOM     17  C   UNL     1      -3.909  -1.363   0.004  0.00  0.00    +0.177 C 
ENDROOT
BRANCH   2  19
ATOM     18  O   UNL     1       0.058   4.693  -0.250  0.00  0.00    -0.275 OA
ATOM     19  N   UNL     1       0.134   2.375  -0.448  0.00  0.00    -0.302 N 
ATOM     20  C   UNL     1       0.489   3.670  -0.776  0.00  0.00    +0.223 C 
ATOM     21  C   UNL     1       1.521   3.715  -1.871  0.00  0.00    +0.095 C 
ATOM     22  H   UNL     1       0.552   1.634  -0.944  0.00  0.00    +0.150 HD
ENDBRANCH   2  19
BRANCH   9  23
ATOM     23  O   UNL     1       0.738  -1.889  -1.529  0.00  0.00    -0.468 OA
ATOM     24  C   UNL     1       0.541  -1.143  -2.710  0.00  0.00    +0.253 C 
ENDBRANCH   9  23
BRANCH  13  25
ATOM     25  O   UNL     1       3.466  -1.982  -1.332  0.00  0.00    -0.465 OA
ATOM     26  C   UNL     1       4.401  -1.249  -2.096  0.00  0.00    +0.253 C 
ENDBRANCH  13  25
BRANCH  14  27
ATOM     27  O   UNL     1       4.757  -0.687   0.741  0.00  0.00    -0.468 OA
ATOM     28  C   UNL     1       5.346  -1.737   1.480  0.00  0.00    +0.253 C 
ENDBRANCH  14  27
BRANCH  17  29
ATOM     29  O   UNL     1      -5.181  -1.909   0.064  0.00  0.00    -0.468 OA
ATOM     30  C   UNL     1      -5.888  -1.399   1.176  0.00  0.00    +0.253 C 
ENDBRANCH  17  29
TORSDOF 5
