448488
  -OEChem-10051719433D

 22 23  0     0  0  0  0  0  0999 V2000
   -1.4364   -2.5665   -0.0006 O   0  0  0  0  0  0  0  0  0  0  0  0
   -0.7377    1.3785    0.0003 N   0  0  0  0  0  0  0  0  0  0  0  0
   -2.2801   -0.4358    0.0001 N   0  0  0  0  0  0  0  0  0  0  0  0
   -2.9934    1.7964   -0.0003 N   0  0  0  0  0  0  0  0  0  0  0  0
    0.3691    0.5278    0.0004 C   0  0  0  0  0  0  0  0  0  0  0  0
    0.1584   -0.8569    0.0002 C   0  0  0  0  0  0  0  0  0  0  0  0
    1.6765    1.0211    0.0000 C   0  0  0  0  0  0  0  0  0  0  0  0
    1.2394   -1.7427    0.0001 C   0  0  0  0  0  0  0  0  0  0  0  0
    2.7584    0.1390   -0.0001 C   0  0  0  0  0  0  0  0  0  0  0  0
   -1.2452   -1.3543    0.0005 C   0  0  0  0  0  0  0  0  0  0  0  0
    2.5400   -1.2388   -0.0002 C   0  0  0  0  0  0  0  0  0  0  0  0
    1.9569    2.4890   -0.0003 C   0  0  0  0  0  0  0  0  0  0  0  0
   -2.0060    0.8430   -0.0001 C   0  0  0  0  0  0  0  0  0  0  0  0
   -0.5966    2.3806    0.0005 H   0  0  0  0  0  0  0  0  0  0  0  0
    1.0904   -2.8185    0.0001 H   0  0  0  0  0  0  0  0  0  0  0  0
    3.7806    0.5086   -0.0003 H   0  0  0  0  0  0  0  0  0  0  0  0
    3.3852   -1.9212   -0.0004 H   0  0  0  0  0  0  0  0  0  0  0  0
    1.5336    2.9595    0.8934 H   0  0  0  0  0  0  0  0  0  0  0  0
    3.0318    2.7008   -0.0006 H   0  0  0  0  0  0  0  0  0  0  0  0
    1.5332    2.9592   -0.8940 H   0  0  0  0  0  0  0  0  0  0  0  0
   -2.7735    2.7864   -0.0011 H   0  0  0  0  0  0  0  0  0  0  0  0
   -3.9736    1.5362   -0.0009 H   0  0  0  0  0  0  0  0  0  0  0  0
  1 10  2  0  0  0  0
  2  5  1  0  0  0  0
  2 13  1  0  0  0  0
  2 14  1  0  0  0  0
  3 10  1  0  0  0  0
  3 13  2  0  0  0  0
  4 13  1  0  0  0  0
  4 21  1  0  0  0  0
  4 22  1  0  0  0  0
  5  6  1  0  0  0  0
  5  7  2  0  0  0  0
  6  8  2  0  0  0  0
  6 10  1  0  0  0  0
  7  9  1  0  0  0  0
  7 12  1  0  0  0  0
  8 11  1  0  0  0  0
  8 15  1  0  0  0  0
  9 11  2  0  0  0  0
  9 16  1  0  0  0  0
 11 17  1  0  0  0  0
 12 18  1  0  0  0  0
 12 19  1  0  0  0  0
 12 20  1  0  0  0  0
M  END
> <DATABASE_ID>
DB01825

> <DATABASE_NAME>
drugbank

> <ORIGINAL_SOURCE>
PUBCHEM

> <ORIGINAL_SOURCE_URL>
https://pubchem.ncbi.nlm.nih.gov/rest/pug/compound/inchikey/NLLZAHIPYDRNRQ-UHFFFAOYSA-N/SDF?record_type=3d

> <SMILES>
CC1=CC=CC2=C1NC(N)=NC2=O

> <INCHI_IDENTIFIER>
InChI=1S/C9H9N3O/c1-5-3-2-4-6-7(5)11-9(10)12-8(6)13/h2-4H,1H3,(H3,10,11,12,13)

> <INCHI_KEY>
NLLZAHIPYDRNRQ-UHFFFAOYSA-N

> <FORMULA>
C9H9N3O

> <MOLECULAR_WEIGHT>
175.1873

> <EXACT_MASS>
175.074561925

> <JCHEM_ACCEPTOR_COUNT>
4

> <JCHEM_AVERAGE_POLARIZABILITY>
17.679112942947135

> <JCHEM_BIOAVAILABILITY>
1

> <JCHEM_DONOR_COUNT>
2

> <JCHEM_FORMAL_CHARGE>
0

> <JCHEM_GHOSE_FILTER>
1

> <JCHEM_IUPAC>
2-amino-8-methyl-1,4-dihydroquinazolin-4-one

> <ALOGPS_LOGP>
0.73

> <JCHEM_LOGP>
1.5280938243333333

> <ALOGPS_LOGS>
-2.20

> <JCHEM_MDDR_LIKE_RULE>
0

> <JCHEM_NUMBER_OF_RINGS>
2

> <JCHEM_PHYSIOLOGICAL_CHARGE>
0

> <JCHEM_PKA_STRONGEST_ACIDIC>
10.000174198967313

> <JCHEM_PKA_STRONGEST_BASIC>
1.5472234720465694

> <JCHEM_POLAR_SURFACE_AREA>
67.47999999999999

> <JCHEM_REFRACTIVITY>
50.79650000000001

> <JCHEM_ROTATABLE_BOND_COUNT>
0

> <JCHEM_RULE_OF_FIVE>
1

> <ALOGPS_SOLUBILITY>
1.12e+00 g/l

> <JCHEM_TRADITIONAL_IUPAC>
2-amino-8-methyl-1H-quinazolin-4-one

> <JCHEM_VEBER_RULE>
0

> <DRUGBANK_ID>
DB01825

> <SECONDARY_ACCESSION_NUMBERS>
EXPT02114

> <DRUG_GROUPS>
experimental

> <GENERIC_NAME>
2-Amino-8-Methylquinazolin-4(3h)-One

$$$$
