REMARK  Name = 29029
REMARK  10 active torsions:
REMARK  status: ('A' for Active; 'I' for Inactive)
REMARK    1  A    between atoms: C_1  and  C_3
REMARK    2  A    between atoms: C_1  and  N_17
REMARK    3  A    between atoms: C_1  and  C_31
REMARK    4  A    between atoms: C_4  and  O_10
REMARK    5  A    between atoms: C_5  and  O_12
REMARK    6  A    between atoms: C_6  and  O_14
REMARK    7  A    between atoms: C_7  and  S_8
REMARK    8  A    between atoms: C_18  and  C_22
REMARK    9  A    between atoms: C_21  and  C_27
REMARK   10  A    between atoms: C_27  and  C_28
REMARK                            x       y       z     vdW  Elec       q    Type
REMARK                         _______ _______ _______ _____ _____    ______ ____
ROOT
ATOM      1  C   UNL     1      -1.264  -1.615   0.008  0.00  0.00    +0.116 C 
ENDROOT
BRANCH   1   3
ATOM      2  O   UNL     1      -1.385   0.742  -0.316  0.00  0.00    -0.341 OA
ATOM      3  C   UNL     1      -2.093  -0.361   0.271  0.00  0.00    +0.164 C 
ATOM      4  C   UNL     1      -3.511  -0.471  -0.300  0.00  0.00    +0.168 C 
ATOM      5  C   UNL     1      -4.261   0.850  -0.117  0.00  0.00    +0.170 C 
ATOM      6  C   UNL     1      -3.446   2.004  -0.702  0.00  0.00    +0.177 C 
ATOM      7  C   UNL     1      -2.013   2.021  -0.152  0.00  0.00    +0.192 C 
BRANCH   7   8
ATOM      8  S   UNL     1      -1.873   2.659   1.562  0.00  0.00    -0.109 S 
ATOM      9  C   UNL     1      -0.086   2.485   1.742  0.00  0.00    +0.072 C 
ENDBRANCH   7   8
BRANCH   4  10
ATOM     10  O   UNL     1      -3.427  -0.786  -1.692  0.00  0.00    -0.379 OA
ATOM     11  H   UNL     1      -2.952  -1.624  -1.806  0.00  0.00    +0.211 HD
ENDBRANCH   4  10
BRANCH   5  12
ATOM     12  O   UNL     1      -5.523   0.787  -0.776  0.00  0.00    -0.379 OA
ATOM     13  H   UNL     1      -6.044   0.056  -0.408  0.00  0.00    +0.211 HD
ENDBRANCH   5  12
BRANCH   6  14
ATOM     14  O   UNL     1      -4.091   3.251  -0.466  0.00  0.00    -0.379 OA
ATOM     15  H   UNL     1      -4.994   3.220  -0.820  0.00  0.00    +0.211 HD
ENDBRANCH   6  14
ENDBRANCH   1   3
BRANCH   1  17
ATOM     16  O   UNL     1       1.134  -1.575  -1.627  0.00  0.00    -0.277 OA
ATOM     17  N   UNL     1       0.098  -1.413   0.451  0.00  0.00    -0.304 N 
ATOM     18  C   UNL     1       1.181  -1.411  -0.410  0.00  0.00    +0.203 C 
ATOM     19  H   UNL     1       0.262  -1.271   1.411  0.00  0.00    +0.149 HD
BRANCH  18  22
ATOM     20  N   UNL     1       3.533  -1.774  -0.498  0.00  0.00    +0.392 N 
ATOM     21  C   UNL     1       4.038   0.485  -0.529  0.00  0.00    -0.022 C 
ATOM     22  C   UNL     1       2.470  -1.156   0.303  0.00  0.00    +0.020 C 
ATOM     23  C   UNL     1       2.796   0.338   0.349  0.00  0.00    -0.014 C 
ATOM     24  C   UNL     1       4.693  -0.884  -0.410  0.00  0.00    -0.077 C 
ATOM     25  C   UNL     1       3.849  -3.133  -0.080  0.00  0.00    -0.100 C 
ATOM     26  H   UNL     1       3.226  -1.877  -1.465  0.00  0.00    -0.079 HD
BRANCH  21  27
ATOM     27  C   UNL     1       4.947   1.627  -0.107  0.00  0.00    -0.002 C 
BRANCH  27  28
ATOM     28  C   UNL     1       4.211   2.966  -0.126  0.00  0.00    -0.000 C 
ATOM     29  C   UNL     1       5.128   4.112   0.269  0.00  0.00    -0.000 C 
ENDBRANCH  27  28
ENDBRANCH  21  27
ENDBRANCH  18  22
ENDBRANCH   1  17
BRANCH   1  31
ATOM     30 CL   UNL     1      -2.153  -2.725   2.384  0.00  0.00    -0.113 Cl
ATOM     31  C   UNL     1      -1.892  -2.885   0.618  0.00  0.00    +0.100 C 
ATOM     32  C   UNL     1      -1.060  -4.137   0.352  0.00  0.00    +0.019 C 
ENDBRANCH   1  31
TORSDOF 10
