REMARK  Name = 60795
REMARK  7 active torsions:
REMARK  status: ('A' for Active; 'I' for Inactive)
REMARK    1  A    between atoms: C_1  and  N_2
REMARK    2  A    between atoms: C_1  and  C_17
REMARK    3  A    between atoms: N_3  and  C_11
REMARK    4  A    between atoms: C_17  and  C_18
REMARK    5  A    between atoms: C_18  and  C_19
REMARK    6  A    between atoms: C_19  and  O_20
REMARK    7  A    between atoms: O_20  and  C_26
REMARK                            x       y       z     vdW  Elec       q    Type
REMARK                         _______ _______ _______ _____ _____    ______ ____
ROOT
ATOM      1  C   UNL     1      -1.183   1.348   0.459  0.00  0.00    -0.077 C 
ENDROOT
BRANCH   1   2
ATOM      2  N   UNL     1      -2.421   0.610   0.705  0.00  0.00    +0.389 N 
ATOM      3  N   UNL     1      -5.175  -0.058   0.342  0.00  0.00    -0.311 N 
ATOM      4  C   UNL     1      -3.474   1.515   1.182  0.00  0.00    -0.055 C 
ATOM      5  C   UNL     1      -2.865  -0.073  -0.516  0.00  0.00    -0.055 C 
ATOM      6  C   UNL     1      -4.758   0.746   1.498  0.00  0.00    +0.068 C 
ATOM      7  C   UNL     1      -4.131  -0.895  -0.258  0.00  0.00    +0.068 C 
ATOM      8  H   UNL     1      -2.237  -0.089   1.424  0.00  0.00    -0.080 HD
BRANCH   3  11
ATOM      9 CL   UNL     1      -7.040   1.832  -1.076  0.00  0.00    -0.080 Cl
ATOM     10 CL   UNL     1     -10.081   0.810  -1.182  0.00  0.00    -0.081 Cl
ATOM     11  C   UNL     1      -6.513  -0.459   0.267  0.00  0.00    +0.059 C 
ATOM     12  C   UNL     1      -7.508   0.319  -0.364  0.00  0.00    +0.081 C 
ATOM     13  C   UNL     1      -6.904  -1.687   0.840  0.00  0.00    +0.015 C 
ATOM     14  C   UNL     1      -8.834  -0.113  -0.418  0.00  0.00    +0.069 C 
ATOM     15  C   UNL     1      -8.229  -2.119   0.785  0.00  0.00    +0.002 C 
ATOM     16  C   UNL     1      -9.194  -1.332   0.156  0.00  0.00    +0.012 C 
ENDBRANCH   3  11
ENDBRANCH   1   2
BRANCH   1  17
ATOM     17  C   UNL     1      -0.071   0.392   0.032  0.00  0.00    -0.019 C 
BRANCH  17  18
ATOM     18  C   UNL     1       1.236   1.142  -0.223  0.00  0.00    +0.045 C 
BRANCH  18  19
ATOM     19  C   UNL     1       2.341   0.204  -0.690  0.00  0.00    +0.205 C 
BRANCH  19  20
ATOM     20  O   UNL     1       3.545   0.940  -0.896  0.00  0.00    -0.475 OA
BRANCH  20  26
ATOM     21  O   UNL     1      10.393   0.990   0.990  0.00  0.00    -0.275 OA
ATOM     22  N   UNL     1       8.194   0.970   0.328  0.00  0.00    -0.284 N 
ATOM     23  C   UNL     1       7.126  -1.107  -0.351  0.00  0.00    -0.008 C 
ATOM     24  C   UNL     1       8.453  -1.802  -0.249  0.00  0.00    +0.037 C 
ATOM     25  C   UNL     1       7.051   0.269  -0.096  0.00  0.00    +0.049 C 
ATOM     26  C   UNL     1       4.718   0.272  -0.717  0.00  0.00    +0.140 C 
ATOM     27  C   UNL     1       9.326  -1.151   0.813  0.00  0.00    +0.090 C 
ATOM     28  C   UNL     1       5.852   0.961  -0.288  0.00  0.00    +0.051 C 
ATOM     29  C   UNL     1       5.986  -1.785  -0.794  0.00  0.00    +0.000 C 
ATOM     30  C   UNL     1       4.783  -1.098  -0.967  0.00  0.00    +0.037 C 
ATOM     31  C   UNL     1       9.379   0.360   0.690  0.00  0.00    +0.226 C 
ATOM     32  H   UNL     1       8.146   1.953   0.369  0.00  0.00    +0.155 HD
ENDBRANCH  20  26
ENDBRANCH  19  20
ENDBRANCH  18  19
ENDBRANCH  17  18
ENDBRANCH   1  17
TORSDOF 7
