REMARK  Name = 5362507
REMARK  4 active torsions:
REMARK  status: ('A' for Active; 'I' for Inactive)
REMARK    1  A    between atoms: C_12  and  O_21
REMARK    2  A    between atoms: C_18  and  O_23
REMARK    3  A    between atoms: O_23  and  C_24
REMARK    4  A    between atoms: C_24  and  C_25
REMARK                            x       y       z     vdW  Elec       q    Type
REMARK                         _______ _______ _______ _____ _____    ______ ____
ROOT
ATOM      1  O   UNL     1      -0.087  -0.892   1.256  0.00  0.00    -0.473 OA
ATOM      2  N   UNL     1       4.877   0.596   0.444  0.00  0.00    +0.387 N 
ATOM      3  C   UNL     1       2.276  -0.665   0.713  0.00  0.00    +0.061 C 
ATOM      4  C   UNL     1       3.304  -1.105  -0.340  0.00  0.00    +0.010 C 
ATOM      5  C   UNL     1       4.106   0.173  -0.750  0.00  0.00    -0.049 C 
ATOM      6  C   UNL     1       1.154  -1.662   1.084  0.00  0.00    +0.200 C 
ATOM      7  C   UNL     1       3.015  -0.111   1.948  0.00  0.00    -0.015 C 
ATOM      8  C   UNL     1       1.412   0.395   0.114  0.00  0.00    +0.014 C 
ATOM      9  C   UNL     1       3.195   1.285  -1.376  0.00  0.00    +0.006 C 
ATOM     10  C   UNL     1       4.042   0.975   1.588  0.00  0.00    -0.077 C 
ATOM     11  C   UNL     1       1.805   1.352  -0.804  0.00  0.00    -0.025 C 
ATOM     12  C   UNL     1       0.956  -2.814   0.064  0.00  0.00    +0.172 C 
ATOM     13  C   UNL     1       2.647  -1.830  -1.487  0.00  0.00    -0.030 C 
ATOM     14  C   UNL     1       0.102   0.240   0.510  0.00  0.00    +0.168 C 
ATOM     15  C   UNL     1       1.562  -2.594  -1.297  0.00  0.00    +0.002 C 
ATOM     16  C   UNL     1       0.835   2.261  -1.231  0.00  0.00    -0.001 C 
ATOM     17  C   UNL     1       5.881   1.615   0.156  0.00  0.00    -0.101 C 
ATOM     18  C   UNL     1      -0.870   1.129   0.109  0.00  0.00    +0.172 C 
ATOM     19  C   UNL     1      -0.489   2.160  -0.759  0.00  0.00    +0.040 C 
ATOM     20  H   UNL     1       5.380  -0.246   0.722  0.00  0.00    -0.080 HD
ENDROOT
BRANCH  12  21
ATOM     21  O   UNL     1      -0.430  -3.125  -0.055  0.00  0.00    -0.377 OA
ATOM     22  H   UNL     1      -0.807  -3.263   0.828  0.00  0.00    +0.211 HD
ENDBRANCH  12  21
BRANCH  18  23
ATOM     23  O   UNL     1      -2.159   0.999   0.507  0.00  0.00    -0.468 OA
BRANCH  23  24
ATOM     24  C   UNL     1      -3.173   1.438  -0.400  0.00  0.00    +0.232 C 
BRANCH  24  25
ATOM     25  C   UNL     1      -4.458   0.710  -0.193  0.00  0.00    +0.021 C 
ATOM     26  C   UNL     1      -4.712  -0.470  -0.891  0.00  0.00    -0.001 C 
ATOM     27  C   UNL     1      -5.407   1.210   0.700  0.00  0.00    -0.001 C 
ATOM     28  C   UNL     1      -5.914  -1.151  -0.698  0.00  0.00    -0.000 C 
ATOM     29  C   UNL     1      -6.609   0.530   0.893  0.00  0.00    -0.000 C 
ATOM     30  C   UNL     1      -6.862  -0.650   0.195  0.00  0.00    -0.000 C 
ENDBRANCH  24  25
ENDBRANCH  23  24
ENDBRANCH  18  23
TORSDOF 4
