REMARK  Name = 9996708
REMARK  5 active torsions:
REMARK  status: ('A' for Active; 'I' for Inactive)
REMARK    1  A    between atoms: C_2  and  O_6
REMARK    2  A    between atoms: C_3  and  C_12
REMARK    3  A    between atoms: C_4  and  O_8
REMARK    4  A    between atoms: C_5  and  O_10
REMARK    5  A    between atoms: C_12  and  O_13
REMARK                            x       y       z     vdW  Elec       q    Type
REMARK                         _______ _______ _______ _____ _____    ______ ____
ROOT
ATOM      1  O   UNL     1       0.407  -1.191   0.118  0.00  0.00    -0.326 OA
ATOM      2  C   UNL     1      -0.132   1.101   0.154  0.00  0.00    +0.172 C 
ATOM      3  C   UNL     1       0.927   0.094  -0.257  0.00  0.00    +0.176 C 
ATOM      4  C   UNL     1      -1.396   0.331  -0.146  0.00  0.00    +0.196 C 
ATOM      5  C   UNL     1      -1.018  -1.081   0.276  0.00  0.00    +0.262 C 
ENDROOT
BRANCH   2   6
ATOM      6  O   UNL     1      -0.037   2.285  -0.613  0.00  0.00    -0.379 OA
ATOM      7  H   UNL     1       0.785   2.749  -0.391  0.00  0.00    +0.211 HD
ENDBRANCH   2   6
BRANCH   4   8
ATOM      8  O   UNL     1      -2.484   0.825   0.614  0.00  0.00    -0.378 OA
ATOM      9  H   UNL     1      -2.700   1.725   0.322  0.00  0.00    +0.211 HD
ENDBRANCH   4   8
BRANCH   5  10
ATOM     10  O   UNL     1      -1.712  -2.014  -0.539  0.00  0.00    -0.358 OA
ATOM     11  H   UNL     1      -1.474  -2.915  -0.273  0.00  0.00    +0.213 HD
ENDBRANCH   5  10
BRANCH   3  12
ATOM     12  C   UNL     1       2.268   0.322   0.417  0.00  0.00    +0.169 C 
BRANCH  12  13
ATOM     13  O   UNL     1       3.177  -0.673  -0.025  0.00  0.00    -0.379 OA
ATOM     14  H   UNL     1       4.038  -0.536   0.401  0.00  0.00    +0.211 HD
ENDBRANCH  12  13
ENDBRANCH   3  12
TORSDOF 5
