REMARK  Name = 10518
REMARK  2 active torsions:
REMARK  status: ('A' for Active; 'I' for Inactive)
REMARK    1  A    between atoms: C_6  and  C_12
REMARK    2  A    between atoms: C_6  and  C_19
REMARK                            x       y       z     vdW  Elec       q    Type
REMARK                         _______ _______ _______ _____ _____    ______ ____
ROOT
ATOM      1  O   UNL     1       0.321  -0.239   2.354  0.00  0.00    -0.274 OA
ATOM      2  O   UNL     1       1.077   1.360  -2.114  0.00  0.00    -0.274 OA
ATOM      3  O   UNL     1       3.519  -2.094  -0.353  0.00  0.00    -0.252 OA
ATOM      4  N   UNL     1       1.906  -1.144   0.974  0.00  0.00    -0.239 N 
ATOM      5  N   UNL     1       2.276  -0.362  -1.204  0.00  0.00    -0.239 N 
ATOM      6  C   UNL     1       0.502   0.697   0.136  0.00  0.00    +0.153 C 
ATOM      7  C   UNL     1       0.888  -0.251   1.259  0.00  0.00    +0.240 C 
ATOM      8  C   UNL     1       1.297   0.615  -1.157  0.00  0.00    +0.240 C 
ATOM      9  C   UNL     1       2.627  -1.257  -0.205  0.00  0.00    +0.312 C 
ATOM     10  H   UNL     1       2.147  -1.772   1.693  0.00  0.00    +0.159 HD
ATOM     11  H   UNL     1       2.783  -0.429  -2.046  0.00  0.00    +0.159 HD
ENDROOT
BRANCH   6  12
ATOM     12  C   UNL     1      -0.912   0.339  -0.226  0.00  0.00    -0.033 C 
ATOM     13  C   UNL     1      -1.126  -1.069  -0.724  0.00  0.00    +0.023 C 
ATOM     14  C   UNL     1      -2.137  -1.878   0.088  0.00  0.00    +0.004 C 
ATOM     15  C   UNL     1      -3.594  -1.512  -0.182  0.00  0.00    +0.001 C 
ATOM     16  C   UNL     1      -4.002  -0.121   0.296  0.00  0.00    +0.005 C 
ATOM     17  C   UNL     1      -1.899   1.245  -0.124  0.00  0.00    -0.034 C 
ATOM     18  C   UNL     1      -3.339   1.020  -0.471  0.00  0.00    +0.025 C 
ENDBRANCH   6  12
BRANCH   6  19
ATOM     19  C   UNL     1       0.585   2.137   0.660  0.00  0.00    +0.021 C 
ATOM     20  C   UNL     1       2.011   2.515   0.996  0.00  0.00    +0.001 C 
ENDBRANCH   6  19
TORSDOF 2
