REMARK  Name = 4911
REMARK  8 active torsions:
REMARK  status: ('A' for Active; 'I' for Inactive)
REMARK    1  A    between atoms: S_1  and  C_4
REMARK    2  A    between atoms: S_1  and  N_14
REMARK    3  A    between atoms: C_9  and  C_11
REMARK    4  A    between atoms: C_11  and  O_12
REMARK    5  A    between atoms: N_14  and  C_15
REMARK    6  A    between atoms: N_14  and  C_18
REMARK    7  A    between atoms: C_15  and  C_16
REMARK    8  A    between atoms: C_18  and  C_19
REMARK                            x       y       z     vdW  Elec       q    Type
REMARK                         _______ _______ _______ _____ _____    ______ ____
ROOT
ATOM      1  S   UNL     1       1.175   0.135  -1.433  0.00  0.00    +0.063 S 
ATOM      2  O   UNL     1       1.463  -1.132  -2.081  0.00  0.00    -0.153 OA
ATOM      3  O   UNL     1       1.288   1.367  -2.193  0.00  0.00    -0.153 OA
ENDROOT
BRANCH   1   4
ATOM      4  C   UNL     1      -0.485   0.046  -0.821  0.00  0.00    +0.122 C 
ATOM      5  C   UNL     1      -1.031  -1.191  -0.535  0.00  0.00    +0.020 C 
ATOM      6  C   UNL     1      -1.199   1.216  -0.642  0.00  0.00    +0.020 C 
ATOM      7  C   UNL     1      -2.338  -1.261  -0.053  0.00  0.00    +0.008 C 
ATOM      8  C   UNL     1      -2.506   1.147  -0.160  0.00  0.00    +0.008 C 
ATOM      9  C   UNL     1      -3.075  -0.092   0.134  0.00  0.00    +0.076 C 
BRANCH   9  11
ATOM     10  O   UNL     1      -5.039  -1.204   0.929  0.00  0.00    -0.245 OA
ATOM     11  C   UNL     1      -4.438  -0.165   0.637  0.00  0.00    +0.338 C 
BRANCH  11  12
ATOM     12  O   UNL     1      -5.013   1.062   0.762  0.00  0.00    -0.477 OA
ATOM     13  H   UNL     1      -4.530   1.832   0.532  0.00  0.00    +0.295 HD
ENDBRANCH  11  12
ENDBRANCH   9  11
ENDBRANCH   1   4
BRANCH   1  14
ATOM     14  N   UNL     1       2.104   0.264   0.014  0.00  0.00    -0.156 NA
BRANCH  14  15
ATOM     15  C   UNL     1       1.847   1.427   0.901  0.00  0.00    +0.096 C 
BRANCH  15  16
ATOM     16  C   UNL     1       3.110   1.791   1.677  0.00  0.00    +0.019 C 
ATOM     17  C   UNL     1       4.244   2.176   0.740  0.00  0.00    +0.002 C 
ENDBRANCH  15  16
ENDBRANCH  14  15
BRANCH  14  18
ATOM     18  C   UNL     1       2.359  -0.978   0.786  0.00  0.00    +0.096 C 
BRANCH  18  19
ATOM     19  C   UNL     1       3.631  -1.660   0.288  0.00  0.00    +0.019 C 
ATOM     20  C   UNL     1       3.904  -2.948   1.050  0.00  0.00    +0.002 C 
ENDBRANCH  18  19
ENDBRANCH  14  18
ENDBRANCH   1  14
TORSDOF 8
