REMARK  Name = 25202592
REMARK  5 active torsions:
REMARK  status: ('A' for Active; 'I' for Inactive)
REMARK    1  A    between atoms: C_1  and  N_2
REMARK    2  A    between atoms: C_1  and  C_6
REMARK    3  A    between atoms: C_1  and  C_8
REMARK    4  A    between atoms: C_8  and  C_9
REMARK    5  A    between atoms: C_9  and  C_12
REMARK                            x       y       z     vdW  Elec       q    Type
REMARK                         _______ _______ _______ _____ _____    ______ ____
ROOT
ATOM      1  C   UNL     1      -1.236   0.407  -0.203  0.00  0.00    -0.042 C 
ENDROOT
BRANCH   1   2
ATOM      2  N   UNL     1      -2.384   1.328  -0.483  0.00  0.00    +0.384 N 
ATOM      3  H   UNL     1      -2.028   2.215  -0.841  0.00  0.00    -0.089 HD
ATOM      4  H   UNL     1      -2.905   1.494   0.378  0.00  0.00    -0.089 HD
ATOM      5  H   UNL     1      -2.999   0.904  -1.177  0.00  0.00    -0.089 HD
ENDBRANCH   1   2
BRANCH   1   6
ATOM      6  C   UNL     1      -1.722  -0.913   0.328  0.00  0.00    -0.048 C 
ATOM      7  C   UNL     1      -1.563  -2.078  -0.312  0.00  0.00    -0.007 C 
ENDBRANCH   1   6
BRANCH   1   8
ATOM      8  C   UNL     1      -0.294   1.133   0.774  0.00  0.00    -0.006 C 
BRANCH   8   9
ATOM      9  C   UNL     1       0.991   0.366   1.090  0.00  0.00    +0.112 C 
BRANCH   9  12
ATOM     10  O   UNL     1       2.523  -1.063   0.013  0.00  0.00    -0.246 OA
ATOM     11  O   UNL     1       1.827   0.815  -1.087  0.00  0.00    -0.246 OA
ATOM     12  C   UNL     1       1.860   0.006  -0.119  0.00  0.00    +0.365 C 
ENDBRANCH   9  12
ENDBRANCH   8   9
ENDBRANCH   1   8
TORSDOF 5
