REMARK  Name = 3151
REMARK  5 active torsions:
REMARK  status: ('A' for Active; 'I' for Inactive)
REMARK    1  A    between atoms: N_1  and  C_20
REMARK    2  A    between atoms: C_2  and  N_10
REMARK    3  A    between atoms: C_20  and  C_21
REMARK    4  A    between atoms: C_21  and  C_22
REMARK    5  A    between atoms: C_22  and  N_24
REMARK                            x       y       z     vdW  Elec       q    Type
REMARK                         _______ _______ _______ _____ _____    ______ ____
ROOT
ATOM      1  N   UNL     1       0.540  -2.059   0.148  0.00  0.00    +0.387 N 
ATOM      2  C   UNL     1      -2.168  -0.954   0.199  0.00  0.00    +0.086 C 
ATOM      3  C   UNL     1      -1.790  -2.146  -0.680  0.00  0.00    -0.000 C 
ATOM      4  C   UNL     1      -0.933  -0.103   0.495  0.00  0.00    -0.000 C 
ATOM      5  C   UNL     1      -0.622  -2.930  -0.079  0.00  0.00    -0.075 C 
ATOM      6  C   UNL     1       0.206  -0.955   1.058  0.00  0.00    -0.075 C 
ATOM      7  H   UNL     1       0.812  -1.657  -0.748  0.00  0.00    -0.080 HD
ENDROOT
BRANCH   2  10
ATOM      8 CL   UNL     1      -8.683   1.250   1.079  0.00  0.00    -0.082 Cl
ATOM      9  O   UNL     1      -2.170   0.559  -2.436  0.00  0.00    -0.247 OA
ATOM     10  N   UNL     1      -3.204  -0.167  -0.422  0.00  0.00    -0.282 N 
ATOM     11  N   UNL     1      -4.385   1.142  -1.847  0.00  0.00    -0.305 N 
ATOM     12  C   UNL     1      -4.474   0.043   0.132  0.00  0.00    +0.079 A 
ATOM     13  C   UNL     1      -3.120   0.513  -1.667  0.00  0.00    +0.328 A 
ATOM     14  C   UNL     1      -5.194   0.848  -0.749  0.00  0.00    +0.077 A 
ATOM     15  C   UNL     1      -5.026  -0.405   1.314  0.00  0.00    +0.020 C 
ATOM     16  C   UNL     1      -6.489   1.243  -0.498  0.00  0.00    +0.030 C 
ATOM     17  C   UNL     1      -6.341  -0.018   1.591  0.00  0.00    +0.013 C 
ATOM     18  C   UNL     1      -7.064   0.797   0.695  0.00  0.00    +0.059 C 
ATOM     19  H   UNL     1      -4.645   1.694  -2.619  0.00  0.00    +0.170 HD
ENDBRANCH   2  10
BRANCH   1  20
ATOM     20  C   UNL     1       1.664  -2.834   0.676  0.00  0.00    -0.075 C 
BRANCH  20  21
ATOM     21  C   UNL     1       2.925  -1.979   0.831  0.00  0.00    +0.002 C 
BRANCH  21  22
ATOM     22  C   UNL     1       3.422  -1.346  -0.467  0.00  0.00    +0.108 C 
BRANCH  22  24
ATOM     23  O   UNL     1       6.342  -2.103  -0.583  0.00  0.00    -0.247 OA
ATOM     24  N   UNL     1       4.587  -0.527  -0.270  0.00  0.00    -0.280 N 
ATOM     25  N   UNL     1       6.741   0.173  -0.082  0.00  0.00    -0.305 N 
ATOM     26  C   UNL     1       4.582   0.846   0.028  0.00  0.00    +0.079 A 
ATOM     27  C   UNL     1       5.939  -0.973  -0.344  0.00  0.00    +0.328 A 
ATOM     28  C   UNL     1       5.905   1.268   0.142  0.00  0.00    +0.076 A 
ATOM     29  C   UNL     1       3.529   1.721   0.200  0.00  0.00    +0.019 C 
ATOM     30  C   UNL     1       6.243   2.571   0.430  0.00  0.00    +0.019 C 
ATOM     31  C   UNL     1       3.847   3.051   0.494  0.00  0.00    +0.002 C 
ATOM     32  C   UNL     1       5.189   3.472   0.607  0.00  0.00    +0.002 C 
ATOM     33  H   UNL     1       7.726   0.191  -0.061  0.00  0.00    +0.170 HD
ENDBRANCH  22  24
ENDBRANCH  21  22
ENDBRANCH  20  21
ENDBRANCH   1  20
TORSDOF 5
