REMARK  Name = 31862
REMARK  2 active torsions:
REMARK  status: ('A' for Active; 'I' for Inactive)
REMARK    1  A    between atoms: C_1  and  C_7
REMARK    2  A    between atoms: C_1  and  N_13
REMARK                            x       y       z     vdW  Elec       q    Type
REMARK                         _______ _______ _______ _____ _____    ______ ____
ROOT
ATOM      1  C   UNL     1       0.654  -0.109   0.340  0.00  0.00    -0.029 C 
ATOM      2  C   UNL     1       1.379   1.263   0.231  0.00  0.00    -0.016 C 
ATOM      3  C   UNL     1       1.293  -1.074  -0.700  0.00  0.00    -0.016 C 
ATOM      4  C   UNL     1       2.905   1.172   0.327  0.00  0.00    -0.002 C 
ATOM      5  C   UNL     1       2.819  -1.159  -0.616  0.00  0.00    -0.002 C 
ATOM      6  C   UNL     1       3.471   0.214  -0.712  0.00  0.00    -0.000 C 
ENDROOT
BRANCH   1   7
ATOM      7  C   UNL     1      -0.868  -0.024   0.111  0.00  0.00    -0.041 C 
ATOM      8  C   UNL     1      -1.458   1.207  -0.162  0.00  0.00    -0.006 C 
ATOM      9  C   UNL     1      -1.643  -1.178   0.179  0.00  0.00    -0.006 C 
ATOM     10  C   UNL     1      -2.835   1.284  -0.368  0.00  0.00    -0.000 C 
ATOM     11  C   UNL     1      -3.020  -1.101  -0.027  0.00  0.00    -0.000 C 
ATOM     12  C   UNL     1      -3.616   0.130  -0.301  0.00  0.00    -0.000 C 
ENDBRANCH   1   7
BRANCH   1  13
ATOM     13  N   UNL     1       0.920  -0.625   1.697  0.00  0.00    +0.385 N 
ATOM     14  H   UNL     1       1.927  -0.682   1.848  0.00  0.00    -0.089 HD
ATOM     15  H   UNL     1       0.509  -1.554   1.794  0.00  0.00    -0.089 HD
ATOM     16  H   UNL     1       0.507   0.002   2.387  0.00  0.00    -0.089 HD
ENDBRANCH   1  13
TORSDOF 2
