REMARK  Name = 3825
REMARK  5 active torsions:
REMARK  status: ('A' for Active; 'I' for Inactive)
REMARK    1  A    between atoms: C_1  and  C_15
REMARK    2  A    between atoms: C_3  and  C_8
REMARK    3  A    between atoms: C_8  and  C_9
REMARK    4  A    between atoms: C_15  and  C_18
REMARK    5  A    between atoms: C_18  and  O_19
REMARK                            x       y       z     vdW  Elec       q    Type
REMARK                         _______ _______ _______ _____ _____    ______ ____
ROOT
ATOM      1  C   UNL     1       2.196   0.622  -0.186  0.00  0.00    -0.012 C 
ATOM      2  C   UNL     1       0.973   0.454   0.463  0.00  0.00    -0.001 C 
ATOM      3  C   UNL     1      -0.087   1.242   0.082  0.00  0.00    +0.039 C 
ATOM      4  C   UNL     1       2.324   1.574  -1.198  0.00  0.00    -0.004 C 
ATOM      5  C   UNL     1       0.005   2.189  -0.911  0.00  0.00    +0.003 C 
ATOM      6  C   UNL     1       1.228   2.357  -1.560  0.00  0.00    -0.000 C 
ENDROOT
BRANCH   3   8
ATOM      7  O   UNL     1      -1.605   1.749   1.788  0.00  0.00    -0.287 OA
ATOM      8  C   UNL     1      -1.398   1.062   0.777  0.00  0.00    +0.196 C 
BRANCH   8   9
ATOM      9  C   UNL     1      -2.408   0.127   0.307  0.00  0.00    +0.039 C 
ATOM     10  C   UNL     1      -2.169  -0.643  -0.832  0.00  0.00    +0.003 C 
ATOM     11  C   UNL     1      -3.615   0.000   0.994  0.00  0.00    +0.003 C 
ATOM     12  C   UNL     1      -3.137  -1.540  -1.282  0.00  0.00    +0.000 C 
ATOM     13  C   UNL     1      -4.583  -0.898   0.543  0.00  0.00    +0.000 C 
ATOM     14  C   UNL     1      -4.344  -1.668  -0.595  0.00  0.00    +0.000 C 
ENDBRANCH   8   9
ENDBRANCH   3   8
BRANCH   1  15
ATOM     15  C   UNL     1       3.368  -0.216   0.200  0.00  0.00    +0.121 C 
ATOM     16  C   UNL     1       3.809  -0.036   1.667  0.00  0.00    +0.016 C 
BRANCH  15  18
ATOM     17  O   UNL     1       2.101  -2.184  -0.498  0.00  0.00    -0.250 OA
ATOM     18  C   UNL     1       3.136  -1.711  -0.049  0.00  0.00    +0.317 C 
BRANCH  18  19
ATOM     19  O   UNL     1       4.205  -2.480   0.288  0.00  0.00    -0.480 OA
ATOM     20  H   UNL     1       4.981  -2.080   0.629  0.00  0.00    +0.295 HD
ENDBRANCH  18  19
ENDBRANCH  15  18
ENDBRANCH   1  15
TORSDOF 5
