REMARK  Name = 443884
REMARK  4 active torsions:
REMARK  status: ('A' for Active; 'I' for Inactive)
REMARK    1  A    between atoms: C_6  and  C_22
REMARK    2  A    between atoms: N_21  and  CA_24
REMARK    3  A    between atoms: CA_24  and  C_26
REMARK    4  A    between atoms: C_26  and  O_27
REMARK                            x       y       z     vdW  Elec       q    Type
REMARK                         _______ _______ _______ _____ _____    ______ ____
ROOT
ATOM      1  N   UNL     1      -0.085  -2.552   0.044  0.00  0.00    +0.390 N 
ATOM      2  N   UNL     1       5.221   0.247   0.141  0.00  0.00    -0.312 N 
ATOM      3  C   UNL     1       0.997  -1.591  -0.311  0.00  0.00    -0.031 C 
ATOM      4  C   UNL     1       0.644  -0.116   0.045  0.00  0.00    -0.045 C 
ATOM      5  C   UNL     1       2.351  -2.072   0.331  0.00  0.00    +0.011 C 
ATOM      6  C   UNL     1      -1.725  -0.753   0.436  0.00  0.00    +0.077 C 
ATOM      7  C   UNL     1      -1.402  -2.029  -0.346  0.00  0.00    -0.063 C 
ATOM      8  C   UNL     1       3.395  -1.017   0.229  0.00  0.00    -0.008 C 
ATOM      9  C   UNL     1       1.732   0.885  -0.017  0.00  0.00    -0.005 C 
ATOM     10  C   UNL     1       3.015   0.332   0.074  0.00  0.00    +0.010 C 
ATOM     11  C   UNL     1      -0.600   0.234   0.418  0.00  0.00    -0.026 C 
ATOM     12  C   UNL     1       4.157   1.114   0.024  0.00  0.00    +0.048 C 
ATOM     13  C   UNL     1       0.116  -3.868  -0.573  0.00  0.00    -0.100 C 
ATOM     14  C   UNL     1       4.769  -1.049   0.269  0.00  0.00    +0.058 C 
ATOM     15  C   UNL     1       1.644   2.275  -0.162  0.00  0.00    -0.000 C 
ATOM     16  C   UNL     1       4.086   2.501  -0.119  0.00  0.00    +0.015 C 
ATOM     17  C   UNL     1       2.803   3.063  -0.211  0.00  0.00    +0.001 C 
ATOM     18  H   UNL     1      -0.049  -2.666   1.057  0.00  0.00    -0.079 HD
ATOM     19  H   UNL     1       6.168   0.514   0.135  0.00  0.00    +0.152 HD
ENDROOT
BRANCH   6  22
ATOM     20  O   UNL     1      -3.167  -0.169  -1.374  0.00  0.00    -0.275 OA
ATOM     21  N   UNL     1      -3.634   0.657   0.752  0.00  0.00    -0.303 N 
ATOM     22  C   ACE A   0      -2.913  -0.074  -0.176  0.00  0.00    +0.224 C 
ATOM     23  H   UNL     1      -3.330   0.655   1.689  0.00  0.00    +0.149 HD
BRANCH  21  24
ATOM     24  CA  UNL     1      -4.811   1.424   0.412  0.00  0.00    +0.101 C 
ATOM     25  CB  UNL     1      -4.448   2.513  -0.590  0.00  0.00    +0.024 C 
BRANCH  24  26
ATOM     26  C   UNL     1      -5.907   0.513  -0.137  0.00  0.00    +0.157 C 
BRANCH  26  27
ATOM     27  O   UNL     1      -6.239  -0.468   0.839  0.00  0.00    -0.380 OA
ATOM     28  H   UNL     1      -6.935  -1.047   0.492  0.00  0.00    +0.211 HD
ENDBRANCH  26  27
ENDBRANCH  24  26
ENDBRANCH  21  24
ENDBRANCH   6  22
TORSDOF 4
