REMARK  Name = 2206
REMARK  1 active torsions:
REMARK  status: ('A' for Active; 'I' for Inactive)
REMARK    1  A    between atoms: N_2  and  C_9
REMARK                            x       y       z     vdW  Elec       q    Type
REMARK                         _______ _______ _______ _____ _____    ______ ____
ROOT
ATOM      1  O   UNL     1      -0.748   2.557   0.011  0.00  0.00    -0.268 OA
ATOM      2  N   UNL     1      -0.450   0.200  -0.150  0.00  0.00    -0.182 N 
ATOM      3  N   UNL     1      -1.379  -0.852  -0.088  0.00  0.00    -0.233 N 
ATOM      4  C   UNL     1      -2.614  -0.285   0.209  0.00  0.00    +0.048 C 
ATOM      5  C   UNL     1      -1.146   1.403  -0.002  0.00  0.00    +0.270 C 
ATOM      6  C   UNL     1      -2.564   1.052   0.262  0.00  0.00    +0.071 C 
ATOM      7  C   UNL     1      -1.267  -1.940  -1.054  0.00  0.00    +0.136 C 
ATOM      8  C   UNL     1      -3.842  -1.110   0.383  0.00  0.00    +0.049 C 
ENDROOT
BRANCH   2   9
ATOM      9  C   UNL     1       0.951   0.013  -0.039  0.00  0.00    +0.073 C 
ATOM     10  C   UNL     1       1.828   1.049  -0.376  0.00  0.00    +0.017 C 
ATOM     11  C   UNL     1       1.466  -1.208   0.409  0.00  0.00    +0.017 C 
ATOM     12  C   UNL     1       3.207   0.866  -0.266  0.00  0.00    +0.001 C 
ATOM     13  C   UNL     1       2.844  -1.391   0.519  0.00  0.00    +0.001 C 
ATOM     14  C   UNL     1       3.715  -0.354   0.181  0.00  0.00    +0.000 C 
ENDBRANCH   2   9
TORSDOF 1
