REMARK  Name = 38945
REMARK  3 active torsions:
REMARK  status: ('A' for Active; 'I' for Inactive)
REMARK    1  A    between atoms: N_2  and  C_5
REMARK    2  A    between atoms: C_3  and  C_13
REMARK    3  A    between atoms: C_13  and  N_15
REMARK                            x       y       z     vdW  Elec       q    Type
REMARK                         _______ _______ _______ _____ _____    ______ ____
ROOT
ATOM      1  O   UNL     1      -1.590   0.216   1.525  0.00  0.00    -0.277 OA
ATOM      2  N   UNL     1      -0.596   0.032  -0.593  0.00  0.00    -0.286 N 
ATOM      3  C   UNL     1      -1.658   0.140   0.301  0.00  0.00    +0.206 C 
ATOM      4  H   UNL     1      -0.835  -0.030  -1.546  0.00  0.00    +0.155 HD
ENDROOT
BRANCH   2   5
ATOM      5  C   UNL     1       0.786  -0.001  -0.293  0.00  0.00    +0.042 C 
ATOM      6  C   UNL     1       1.404  -1.220  -0.059  0.00  0.00    -0.009 C 
ATOM      7  C   UNL     1       1.500   1.187  -0.238  0.00  0.00    -0.009 C 
ATOM      8  C   UNL     1       2.767  -1.252   0.237  0.00  0.00    -0.003 C 
ATOM      9  C   UNL     1       2.863   1.155   0.058  0.00  0.00    -0.003 C 
ATOM     10  C   UNL     1       0.651  -2.510  -0.115  0.00  0.00    +0.032 C 
ATOM     11  C   UNL     1       0.850   2.509  -0.487  0.00  0.00    +0.032 C 
ATOM     12  C   UNL     1       3.496  -0.065   0.295  0.00  0.00    -0.001 C 
ENDBRANCH   2   5
BRANCH   3  13
ATOM     13  C   UNL     1      -2.999   0.139  -0.427  0.00  0.00    +0.013 C 
ATOM     14  C   UNL     1      -3.557  -1.271  -0.584  0.00  0.00    -0.015 C 
BRANCH  13  15
ATOM     15  N   UNL     1      -3.917   0.941   0.379  0.00  0.00    +0.387 N 
ATOM     16  H   UNL     1      -3.542   1.884   0.483  0.00  0.00    -0.089 HD
ATOM     17  H   UNL     1      -4.023   0.514   1.299  0.00  0.00    -0.089 HD
ATOM     18  H   UNL     1      -4.825   0.985  -0.082  0.00  0.00    -0.089 HD
ENDBRANCH  13  15
ENDBRANCH   3  13
TORSDOF 3
