REMARK  Name = 5284583
REMARK  3 active torsions:
REMARK  status: ('A' for Active; 'I' for Inactive)
REMARK    1  A    between atoms: C_1  and  N_3
REMARK    2  A    between atoms: C_1  and  C_10
REMARK    3  A    between atoms: C_1  and  C_13
REMARK                            x       y       z     vdW  Elec       q    Type
REMARK                         _______ _______ _______ _____ _____    ______ ____
ROOT
ATOM      1  C   UNL     1       0.932   0.326  -0.401  0.00  0.00    +0.151 C 
ENDROOT
BRANCH   1   3
ATOM      2  O   UNL     1      -1.608   0.013  -1.961  0.00  0.00    -0.275 OA
ATOM      3  N   UNL     1      -0.404   0.019   0.062  0.00  0.00    -0.273 N 
ATOM      4  C   UNL     1      -0.670  -0.306   1.443  0.00  0.00    +0.094 C 
ATOM      5  C   UNL     1      -2.179  -0.196   1.538  0.00  0.00    +0.031 C 
ATOM      6  C   UNL     1      -2.662  -0.572   0.142  0.00  0.00    +0.087 C 
ATOM      7  C   UNL     1      -1.526  -0.130  -0.750  0.00  0.00    +0.226 C 
ENDBRANCH   1   3
BRANCH   1  10
ATOM      8  O   UNL     1       2.887  -0.754   0.557  0.00  0.00    -0.274 OA
ATOM      9  N   UNL     1       1.388  -2.042  -0.613  0.00  0.00    -0.327 N 
ATOM     10  C   UNL     1       1.842  -0.853  -0.082  0.00  0.00    +0.237 C 
ATOM     11  H   UNL     1       1.898  -2.871  -0.469  0.00  0.00    +0.145 HD
ATOM     12  H   UNL     1       0.554  -2.061  -1.136  0.00  0.00    +0.145 HD
ENDBRANCH   1  10
BRANCH   1  13
ATOM     13  C   UNL     1       1.452   1.649   0.169  0.00  0.00    +0.029 C 
ATOM     14  C   UNL     1       0.548   2.846  -0.104  0.00  0.00    +0.002 C 
ENDBRANCH   1  13
TORSDOF 3
