REMARK  Name = 47811
REMARK  4 active torsions:
REMARK  status: ('A' for Active; 'I' for Inactive)
REMARK    1  A    between atoms: N_1  and  C_19
REMARK    2  A    between atoms: C_6  and  C_22
REMARK    3  A    between atoms: C_19  and  C_20
REMARK    4  A    between atoms: C_22  and  S_23
REMARK                            x       y       z     vdW  Elec       q    Type
REMARK                         _______ _______ _______ _____ _____    ______ ____
ROOT
ATOM      1  N   UNL     1       1.565  -1.452  -0.228  0.00  0.00    +0.389 N 
ATOM      2  N   UNL     1      -4.415  -0.921   0.244  0.00  0.00    -0.312 N 
ATOM      3  C   UNL     1      -0.029   0.479  -0.481  0.00  0.00    +0.004 C 
ATOM      4  C   UNL     1       0.203  -0.977   0.120  0.00  0.00    -0.049 C 
ATOM      5  C   UNL     1       1.056   1.438   0.024  0.00  0.00    +0.001 C 
ATOM      6  C   UNL     1       2.450   0.877  -0.266  0.00  0.00    -0.010 C 
ATOM      7  C   UNL     1       2.594  -0.539   0.302  0.00  0.00    -0.076 C 
ATOM      8  C   UNL     1      -0.918  -1.992  -0.327  0.00  0.00    +0.007 C 
ATOM      9  C   UNL     1      -1.440   0.968  -0.200  0.00  0.00    -0.024 C 
ATOM     10  C   UNL     1      -2.272  -1.410  -0.106  0.00  0.00    -0.009 C 
ATOM     11  C   UNL     1      -2.432  -0.011  -0.061  0.00  0.00    +0.007 C 
ATOM     12  C   UNL     1      -3.763   0.290   0.156  0.00  0.00    +0.048 C 
ATOM     13  C   UNL     1      -1.878   2.298  -0.139  0.00  0.00    -0.004 C 
ATOM     14  C   UNL     1      -3.519  -1.959   0.083  0.00  0.00    +0.057 C 
ATOM     15  C   UNL     1      -4.204   1.609   0.242  0.00  0.00    +0.015 C 
ATOM     16  C   UNL     1      -3.229   2.607   0.085  0.00  0.00    +0.001 C 
ATOM     17  H   UNL     1       1.603  -1.467  -1.247  0.00  0.00    -0.080 HD
ATOM     18  H   UNL     1      -5.381  -1.031   0.399  0.00  0.00    +0.152 HD
ENDROOT
BRANCH   1  19
ATOM     19  C   UNL     1       1.838  -2.807   0.258  0.00  0.00    -0.077 C 
BRANCH  19  20
ATOM     20  C   UNL     1       3.200  -3.285  -0.238  0.00  0.00    -0.023 C 
ATOM     21  C   UNL     1       3.498  -4.699   0.235  0.00  0.00    -0.002 C 
ENDBRANCH  19  20
ENDBRANCH   1  19
BRANCH   6  22
ATOM     22  C   UNL     1       3.529   1.799   0.302  0.00  0.00    +0.055 C 
BRANCH  22  23
ATOM     23  S   UNL     1       3.397   3.446  -0.436  0.00  0.00    -0.139 S 
ATOM     24  C   UNL     1       4.770   4.240   0.431  0.00  0.00    +0.069 C 
ENDBRANCH  22  23
ENDBRANCH   6  22
TORSDOF 4
