REMARK  Name = 11291
REMARK  1 active torsions:
REMARK  status: ('A' for Active; 'I' for Inactive)
REMARK    1  A    between atoms: C_2  and  C_16
REMARK                            x       y       z     vdW  Elec       q    Type
REMARK                         _______ _______ _______ _____ _____    ______ ____
ROOT
ATOM      1  N   UNL     1       2.412  -2.399   0.122  0.00  0.00    +0.388 N 
ATOM      2  C   UNL     1      -0.421   0.096  -0.910  0.00  0.00    +0.060 C 
ATOM      3  C   UNL     1       0.875  -0.552  -0.461  0.00  0.00    -0.062 C 
ATOM      4  C   UNL     1       1.714   0.316   0.130  0.00  0.00    -0.034 C 
ATOM      5  C   UNL     1       1.239  -1.986  -0.681  0.00  0.00    -0.054 C 
ATOM      6  C   UNL     1      -0.179   1.521  -0.463  0.00  0.00    -0.015 C 
ATOM      7  C   UNL     1       3.073  -0.046   0.606  0.00  0.00    +0.003 C 
ATOM      8  C   UNL     1       1.083   1.624   0.149  0.00  0.00    -0.008 C 
ATOM      9  C   UNL     1       3.504  -1.414   0.039  0.00  0.00    -0.072 C 
ATOM     10  C   UNL     1      -1.001   2.628  -0.604  0.00  0.00    -0.004 C 
ATOM     11  C   UNL     1       1.539   2.835   0.641  0.00  0.00    -0.001 C 
ATOM     12  C   UNL     1       2.870  -3.726  -0.285  0.00  0.00    -0.100 C 
ATOM     13  C   UNL     1      -0.546   3.851  -0.108  0.00  0.00    -0.000 C 
ATOM     14  C   UNL     1       0.712   3.954   0.510  0.00  0.00    -0.000 C 
ATOM     15  H   UNL     1       2.119  -2.444   1.099  0.00  0.00    -0.079 HD
ENDROOT
BRANCH   2  16
ATOM     16  C   UNL     1      -1.665  -0.535  -0.323  0.00  0.00    -0.015 C 
ATOM     17  C   UNL     1      -2.861  -0.522  -1.042  0.00  0.00    -0.004 C 
ATOM     18  C   UNL     1      -1.617  -1.131   0.938  0.00  0.00    -0.004 C 
ATOM     19  C   UNL     1      -4.008  -1.103  -0.500  0.00  0.00    -0.000 C 
ATOM     20  C   UNL     1      -2.764  -1.712   1.479  0.00  0.00    -0.000 C 
ATOM     21  C   UNL     1      -3.959  -1.698   0.760  0.00  0.00    -0.000 C 
ENDBRANCH   2  16
TORSDOF 1
