REMARK  Name = 5289354
REMARK  6 active torsions:
REMARK  status: ('A' for Active; 'I' for Inactive)
REMARK    1  A    between atoms: C_1  and  O_2
REMARK    2  A    between atoms: C_1  and  C_4
REMARK    3  A    between atoms: C_1  and  C_8
REMARK    4  A    between atoms: C_4  and  S_5
REMARK    5  A    between atoms: S_5  and  O_6
REMARK    6  A    between atoms: C_8  and  O_9
REMARK                            x       y       z     vdW  Elec       q    Type
REMARK                         _______ _______ _______ _____ _____    ______ ____
ROOT
ATOM      1  C   UNL     1      -0.707  -0.394   0.493  0.00  0.00    +0.153 C 
ENDROOT
BRANCH   1   2
ATOM      2  O   UNL     1      -0.919  -1.443  -0.453  0.00  0.00    -0.381 OA
ATOM      3  H   UNL     1      -0.478  -2.250  -0.145  0.00  0.00    +0.210 HD
ENDBRANCH   1   2
BRANCH   1   4
ATOM      4  C   UNL     1       0.794  -0.246   0.757  0.00  0.00    +0.119 C 
BRANCH   4   5
ATOM      5  S   UNL     1       1.764   0.288  -0.689  0.00  0.00    +0.002 S 
BRANCH   5   6
ATOM      6  O   UNL     1       3.256   0.309   0.038  0.00  0.00    -0.328 OA
ATOM      7  H   UNL     1       3.926   0.582  -0.608  0.00  0.00    +0.227 HD
ENDBRANCH   5   6
ENDBRANCH   4   5
ENDBRANCH   1   4
BRANCH   1   8
ATOM      8  C   UNL     1      -1.399   0.878   0.011  0.00  0.00    +0.167 C 
BRANCH   8   9
ATOM      9  O   UNL     1      -2.788   0.608  -0.157  0.00  0.00    -0.379 OA
ATOM     10  H   UNL     1      -3.239   1.410  -0.464  0.00  0.00    +0.211 HD
ENDBRANCH   8   9
ENDBRANCH   1   8
TORSDOF 6
