REMARK  Name = 448674
REMARK  7 active torsions:
REMARK  status: ('A' for Active; 'I' for Inactive)
REMARK    1  A    between atoms: P_1  and  O_3
REMARK    2  A    between atoms: P_1  and  O_5
REMARK    3  A    between atoms: P_1  and  O_8
REMARK    4  A    between atoms: O_5  and  C_6
REMARK    5  A    between atoms: O_8  and  P_9
REMARK    6  A    between atoms: P_9  and  O_11
REMARK    7  A    between atoms: P_9  and  O_13
REMARK                            x       y       z     vdW  Elec       q    Type
REMARK                         _______ _______ _______ _____ _____    ______ ____
ROOT
ATOM      1  P   UNL     1       0.628  -1.189  -0.033  0.00  0.00    +0.484 P 
ATOM      2  O   UNL     1       0.240  -2.158  -1.112  0.00  0.00    -0.227 OA
ENDROOT
BRANCH   1   3
ATOM      3  O   UNL     1       1.381  -1.863   1.230  0.00  0.00    -0.302 OA
ATOM      4  H   UNL     1       1.598  -1.177   1.881  0.00  0.00    +0.222 HD
ENDBRANCH   1   3
BRANCH   1   5
ATOM      5  O   UNL     1       1.622  -0.005  -0.511  0.00  0.00    -0.273 OA
BRANCH   5   6
ATOM      6  C   UNL     1       2.059   0.972   0.418  0.00  0.00    +0.154 C 
ATOM      7  C   UNL     1       2.971   1.952  -0.288  0.00  0.00    +0.035 C 
ENDBRANCH   5   6
ENDBRANCH   1   5
BRANCH   1   8
ATOM      8  O   UNL     1      -0.621  -0.421   0.647  0.00  0.00    -0.186 OA
BRANCH   8   9
ATOM      9  P   UNL     1      -1.744   0.550   0.009  0.00  0.00    +0.481 P 
ATOM     10  O   UNL     1      -1.204   1.789  -0.643  0.00  0.00    -0.227 OA
BRANCH   9  11
ATOM     11  O   UNL     1      -2.753   0.806   1.245  0.00  0.00    -0.302 OA
ATOM     12  H   UNL     1      -3.050  -0.045   1.602  0.00  0.00    +0.222 HD
ENDBRANCH   9  11
BRANCH   9  13
ATOM     13  O   UNL     1      -2.580  -0.434  -0.964  0.00  0.00    -0.302 OA
ATOM     14  H   UNL     1      -2.888  -1.202  -0.458  0.00  0.00    +0.222 HD
ENDBRANCH   9  13
ENDBRANCH   8   9
ENDBRANCH   1   8
TORSDOF 7
