REMARK  Name = 17036
REMARK  9 active torsions:
REMARK  status: ('A' for Active; 'I' for Inactive)
REMARK    1  A    between atoms: C_1  and  C_2
REMARK    2  A    between atoms: C_1  and  C_8
REMARK    3  A    between atoms: C_1  and  C_15
REMARK    4  A    between atoms: C_1  and  O_23
REMARK    5  A    between atoms: C_15  and  O_16
REMARK    6  A    between atoms: O_16  and  C_17
REMARK    7  A    between atoms: C_17  and  C_18
REMARK    8  A    between atoms: C_18  and  N_19
REMARK    9  A    between atoms: O_23  and  C_24
REMARK                            x       y       z     vdW  Elec       q    Type
REMARK                         _______ _______ _______ _____ _____    ______ ____
ROOT
ATOM      1  C   UNL     1       0.770   0.094   0.239  0.00  0.00    +0.219 C 
ENDROOT
BRANCH   1   2
ATOM      2  C   UNL     1       0.738  -1.435   0.186  0.00  0.00    +0.016 C 
ATOM      3  C   UNL     1       0.309  -2.045  -0.971  0.00  0.00    -0.001 C 
ATOM      4  C   UNL     1       1.137  -2.141   1.297  0.00  0.00    -0.001 C 
ATOM      5  C   UNL     1       0.279  -3.438  -1.019  0.00  0.00    -0.000 C 
ATOM      6  C   UNL     1       1.107  -3.535   1.248  0.00  0.00    -0.000 C 
ATOM      7  C   UNL     1       0.678  -4.184   0.091  0.00  0.00    -0.000 C 
ENDBRANCH   1   2
BRANCH   1   8
ATOM      8  C   UNL     1       2.125   0.628  -0.232  0.00  0.00    +0.016 C 
ATOM      9  C   UNL     1       3.122   0.809   0.699  0.00  0.00    -0.001 C 
ATOM     10  C   UNL     1       2.294   0.906  -1.569  0.00  0.00    -0.001 C 
ATOM     11  C   UNL     1       4.356   1.296   0.269  0.00  0.00    -0.000 C 
ATOM     12  C   UNL     1       3.529   1.392  -1.999  0.00  0.00    -0.000 C 
ATOM     13  C   UNL     1       4.560   1.587  -1.080  0.00  0.00    -0.000 C 
ENDBRANCH   1   8
BRANCH   1  15
ATOM     14  O   UNL     1      -0.356   1.600  -1.327  0.00  0.00    -0.247 OA
ATOM     15  C   UNL     1      -0.430   0.736  -0.462  0.00  0.00    +0.350 C 
BRANCH  15  16
ATOM     16  O   UNL     1      -1.607   0.183  -0.018  0.00  0.00    -0.449 OA
BRANCH  16  17
ATOM     17  C   UNL     1      -2.795   0.673  -0.626  0.00  0.00    +0.186 C 
BRANCH  17  18
ATOM     18  C   UNL     1      -3.988  -0.045  -0.016  0.00  0.00    -0.029 C 
BRANCH  18  19
ATOM     19  N   UNL     1      -5.237   0.440  -0.600  0.00  0.00    +0.387 N 
ATOM     20  C   UNL     1      -5.371   1.882  -0.396  0.00  0.00    -0.101 C 
ATOM     21  C   UNL     1      -6.380  -0.266  -0.022  0.00  0.00    -0.101 C 
ATOM     22  H   UNL     1      -5.218   0.257  -1.603  0.00  0.00    -0.080 HD
ENDBRANCH  18  19
ENDBRANCH  17  18
ENDBRANCH  16  17
ENDBRANCH  15  16
ENDBRANCH   1  15
BRANCH   1  23
ATOM     23  O   UNL     1       0.500   0.538   1.584  0.00  0.00    -0.340 OA
BRANCH  23  24
ATOM     24  C   UNL     1       0.471   1.950   1.649  0.00  0.00    +0.144 C 
ATOM     25  C   UNL     1       0.186   2.372   3.075  0.00  0.00    +0.035 C 
ENDBRANCH  23  24
ENDBRANCH   1  23
TORSDOF 9
