REMARK  Name = 2722
REMARK  1 active torsions:
REMARK  status: ('A' for Active; 'I' for Inactive)
REMARK    1  A    between atoms: C_6  and  O_13
REMARK                            x       y       z     vdW  Elec       q    Type
REMARK                         _______ _______ _______ _____ _____    ______ ____
ROOT
ATOM      1 CL   UNL     1       0.112  -3.323  -0.001  0.00  0.00    -0.082 Cl
ATOM      2 CL   UNL     1      -3.685   0.425   0.000  0.00  0.00    -0.079 Cl
ATOM      3  N   UNL     1       1.240   1.728   0.000  0.00  0.00    -0.241 NA
ATOM      4  C   UNL     1       0.707  -0.622   0.000  0.00  0.00    +0.031 C 
ATOM      5  C   UNL     1       0.329   0.737   0.000  0.00  0.00    +0.116 C 
ATOM      6  C   UNL     1      -1.031   1.038   0.000  0.00  0.00    +0.162 C 
ATOM      7  C   UNL     1      -0.271  -1.631   0.000  0.00  0.00    +0.060 C 
ATOM      8  C   UNL     1       2.075  -0.926   0.000  0.00  0.00    +0.004 C 
ATOM      9  C   UNL     1      -2.003   0.035   0.000  0.00  0.00    +0.094 C 
ATOM     10  C   UNL     1      -1.623  -1.301   0.001  0.00  0.00    +0.026 C 
ATOM     11  C   UNL     1       3.016   0.093   0.000  0.00  0.00    +0.021 C 
ATOM     12  C   UNL     1       2.550   1.392   0.000  0.00  0.00    +0.099 C 
ENDROOT
BRANCH   6  13
ATOM     13  O   UNL     1      -1.415   2.353  -0.001  0.00  0.00    -0.503 OA
ATOM     14  H   UNL     1      -0.768   3.030  -0.001  0.00  0.00    +0.292 HD
ENDBRANCH   6  13
TORSDOF 1
