REMARK  Name = 3369
REMARK  1 active torsions:
REMARK  status: ('A' for Active; 'I' for Inactive)
REMARK    1  A    between atoms: C_7  and  C_16
REMARK                            x       y       z     vdW  Elec       q    Type
REMARK                         _______ _______ _______ _____ _____    ______ ____
ROOT
ATOM      1 CL   UNL     1       0.897  -4.418   0.988  0.00  0.00    -0.082 Cl
ATOM      2  O   UNL     1       2.183   3.472  -0.301  0.00  0.00    -0.272 OA
ATOM      3  N   UNL     1       2.373   1.167  -0.587  0.00  0.00    -0.255 N 
ATOM      4  N   UNL     1      -0.239   1.735   0.855  0.00  0.00    -0.260 NA
ATOM      5  C   UNL     1       0.692  -0.470   0.288  0.00  0.00    +0.032 C 
ATOM      6  C   UNL     1       1.968  -0.165  -0.230  0.00  0.00    +0.055 C 
ATOM      7  C   UNL     1      -0.400   0.545   0.385  0.00  0.00    +0.080 C 
ATOM      8  C   UNL     1       1.087   2.110   1.300  0.00  0.00    +0.210 C 
ATOM      9  C   UNL     1       1.914   2.322   0.057  0.00  0.00    +0.254 C 
ATOM     10  C   UNL     1       0.375  -1.784   0.678  0.00  0.00    +0.014 C 
ATOM     11  C   UNL     1       2.869  -1.233  -0.412  0.00  0.00    +0.016 C 
ATOM     12  C   UNL     1       3.373   1.323  -1.643  0.00  0.00    +0.120 C 
ATOM     13  C   UNL     1       1.298  -2.813   0.515  0.00  0.00    +0.058 C 
ATOM     14  C   UNL     1       2.540  -2.539  -0.042  0.00  0.00    +0.013 C 
ENDROOT
BRANCH   7  16
ATOM     15  F   UNL     1      -2.753   1.645   1.491  0.00  0.00    -0.204 F 
ATOM     16  C   UNL     1      -1.763   0.186  -0.102  0.00  0.00    +0.045 C 
ATOM     17  C   UNL     1      -2.881   0.765   0.487  0.00  0.00    +0.142 C 
ATOM     18  C   UNL     1      -1.901  -0.726  -1.142  0.00  0.00    +0.004 C 
ATOM     19  C   UNL     1      -4.155   0.428   0.029  0.00  0.00    +0.030 C 
ATOM     20  C   UNL     1      -3.175  -1.063  -1.600  0.00  0.00    +0.000 C 
ATOM     21  C   UNL     1      -4.301  -0.486  -1.014  0.00  0.00    +0.002 C 
ENDBRANCH   7  16
TORSDOF 1
