REMARK  Name = 439352
REMARK  7 active torsions:
REMARK  status: ('A' for Active; 'I' for Inactive)
REMARK    1  A    between atoms: C_1  and  O_2
REMARK    2  A    between atoms: C_1  and  C_4
REMARK    3  A    between atoms: C_1  and  C_10
REMARK    4  A    between atoms: C_4  and  O_5
REMARK    5  A    between atoms: C_4  and  C_7
REMARK    6  A    between atoms: C_7  and  S_8
REMARK    7  A    between atoms: C_10  and  S_11
REMARK                            x       y       z     vdW  Elec       q    Type
REMARK                         _______ _______ _______ _____ _____    ______ ____
ROOT
ATOM      1  C   UNL     1      -0.714   0.528   0.560  0.00  0.00    +0.148 C 
ENDROOT
BRANCH   1   2
ATOM      2  O   UNL     1      -0.935   1.756  -0.132  0.00  0.00    -0.381 OA
ATOM      3  H   UNL     1      -0.117   2.277  -0.135  0.00  0.00    +0.210 HD
ENDBRANCH   1   2
BRANCH   1   4
ATOM      4  C   UNL     1       0.511  -0.204  -0.024  0.00  0.00    +0.148 C 
BRANCH   4   5
ATOM      5  O   UNL     1       0.708  -1.404   0.724  0.00  0.00    -0.381 OA
ATOM      6  H   UNL     1      -0.093  -1.950   0.676  0.00  0.00    +0.210 HD
ENDBRANCH   4   5
BRANCH   4   7
ATOM      7  C   UNL     1       1.780   0.654   0.057  0.00  0.00    +0.085 C 
BRANCH   7   8
ATOM      8  S   UNL     1       3.222  -0.224  -0.629  0.00  0.00    -0.165 S 
ATOM      9  H   UNL     1       4.322   0.570  -0.538  0.00  0.00    +0.102 HD
ENDBRANCH   7   8
ENDBRANCH   4   7
ENDBRANCH   1   4
BRANCH   1  10
ATOM     10  C   UNL     1      -2.025  -0.274   0.549  0.00  0.00    +0.085 C 
BRANCH  10  11
ATOM     11  S   UNL     1      -2.547  -0.832  -1.105  0.00  0.00    -0.165 S 
ATOM     12  H   UNL     1      -3.710  -1.528  -1.002  0.00  0.00    +0.102 HD
ENDBRANCH  10  11
ENDBRANCH   1  10
TORSDOF 7
