REMARK  Name = 3299
REMARK  4 active torsions:
REMARK  status: ('A' for Active; 'I' for Inactive)
REMARK    1  A    between atoms: C_6  and  C_16
REMARK    2  A    between atoms: C_7  and  C_23
REMARK    3  A    between atoms: C_23  and  O_24
REMARK    4  A    between atoms: O_24  and  C_25
REMARK                            x       y       z     vdW  Elec       q    Type
REMARK                         _______ _______ _______ _____ _____    ______ ____
ROOT
ATOM      1 CL   UNL     1       3.850  -3.180  -1.866  0.00  0.00    -0.082 Cl
ATOM      2  O   UNL     1      -2.779  -0.671   2.010  0.00  0.00    -0.272 OA
ATOM      3  N   UNL     1      -0.923  -1.853   1.399  0.00  0.00    -0.282 N 
ATOM      4  N   UNL     1      -0.621   0.833   0.057  0.00  0.00    -0.252 NA
ATOM      5  C   UNL     1       0.918  -1.090  -0.095  0.00  0.00    +0.032 C 
ATOM      6  C   UNL     1       0.577   0.359   0.029  0.00  0.00    +0.080 C 
ATOM      7  C   UNL     1      -1.743  -0.072  -0.075  0.00  0.00    +0.277 C 
ATOM      8  C   UNL     1       0.242  -2.080   0.636  0.00  0.00    +0.052 C 
ATOM      9  C   UNL     1      -1.858  -0.856   1.213  0.00  0.00    +0.260 C 
ATOM     10  C   UNL     1       2.023  -1.446  -0.885  0.00  0.00    +0.014 C 
ATOM     11  C   UNL     1       0.750  -3.388   0.648  0.00  0.00    +0.016 C 
ATOM     12  C   UNL     1       2.488  -2.760  -0.902  0.00  0.00    +0.058 C 
ATOM     13  C   UNL     1       1.862  -3.727  -0.123  0.00  0.00    +0.013 C 
ATOM     14  H   UNL     1      -1.086  -2.474   2.145  0.00  0.00    +0.155 HD
ENDROOT
BRANCH   6  16
ATOM     15  F   UNL     1       0.383   3.009  -0.923  0.00  0.00    -0.204 F 
ATOM     16  C   UNL     1       1.687   1.347   0.163  0.00  0.00    +0.045 C 
ATOM     17  C   UNL     1       1.525   2.636  -0.328  0.00  0.00    +0.142 C 
ATOM     18  C   UNL     1       2.871   0.963   0.780  0.00  0.00    +0.004 C 
ATOM     19  C   UNL     1       2.564   3.557  -0.199  0.00  0.00    +0.030 C 
ATOM     20  C   UNL     1       3.910   1.885   0.908  0.00  0.00    +0.000 C 
ATOM     21  C   UNL     1       3.757   3.182   0.419  0.00  0.00    +0.002 C 
ENDBRANCH   6  16
BRANCH   7  23
ATOM     22  O   UNL     1      -2.871   2.022  -0.428  0.00  0.00    -0.247 OA
ATOM     23  C   UNL     1      -2.925   0.802  -0.346  0.00  0.00    +0.349 C 
BRANCH  23  24
ATOM     24  O   UNL     1      -4.042   0.031  -0.481  0.00  0.00    -0.447 OA
BRANCH  24  25
ATOM     25  C   UNL     1      -5.254   0.744  -0.745  0.00  0.00    +0.209 C 
ATOM     26  C   UNL     1      -6.392  -0.246  -0.867  0.00  0.00    +0.051 C 
ENDBRANCH  24  25
ENDBRANCH  23  24
ENDBRANCH   7  23
TORSDOF 4
