REMARK  Name = 5288385
REMARK  5 active torsions:
REMARK  status: ('A' for Active; 'I' for Inactive)
REMARK    1  A    between atoms: C_1  and  C_2
REMARK    2  A    between atoms: C_1  and  C_8
REMARK    3  A    between atoms: C_2  and  N_5
REMARK    4  A    between atoms: C_8  and  C_10
REMARK    5  A    between atoms: C_10  and  O_11
REMARK                            x       y       z     vdW  Elec       q    Type
REMARK                         _______ _______ _______ _____ _____    ______ ____
ROOT
ATOM      1  C   UNL     1       0.228  -0.281   0.611  0.00  0.00    +0.052 C 
ENDROOT
BRANCH   1   2
ATOM      2  C   UNL     1       1.625  -0.533   0.084  0.00  0.00    +0.015 C 
ATOM      3  C   UNL     1       2.497   0.458  -0.193  0.00  0.00    -0.016 C 
ATOM      4  C   UNL     1       2.288   1.932  -0.050  0.00  0.00    +0.032 C 
BRANCH   2   5
ATOM      5  N   UNL     1       1.940  -1.852  -0.120  0.00  0.00    -0.360 N 
ATOM      6  H   UNL     1       1.283  -2.554   0.092  0.00  0.00    +0.142 HD
ATOM      7  H   UNL     1       2.824  -2.098  -0.478  0.00  0.00    +0.142 HD
ENDBRANCH   2   5
ENDBRANCH   1   2
BRANCH   1   8
ATOM      8  C   UNL     1      -0.796  -0.168  -0.519  0.00  0.00    +0.115 C 
BRANCH   8  10
ATOM      9  O   UNL     1      -2.494   0.207   1.185  0.00  0.00    -0.250 OA
ATOM     10  C   UNL     1      -2.191   0.082   0.007  0.00  0.00    +0.314 C 
BRANCH  10  11
ATOM     11  O   UNL     1      -3.097   0.154  -1.004  0.00  0.00    -0.480 OA
ATOM     12  H   UNL     1      -2.816   0.052  -1.892  0.00  0.00    +0.295 HD
ENDBRANCH  10  11
ENDBRANCH   8  10
ENDBRANCH   1   8
TORSDOF 5
