REMARK  Name = 19003
REMARK  5 active torsions:
REMARK  status: ('A' for Active; 'I' for Inactive)
REMARK    1  A    between atoms: N_2  and  CA_9
REMARK    2  A    between atoms: C_3  and  C_19
REMARK    3  A    between atoms: CA_10  and  C_16
REMARK    4  A    between atoms: C_16  and  O_17
REMARK    5  A    between atoms: C_19  and  N_25
REMARK                            x       y       z     vdW  Elec       q    Type
REMARK                         _______ _______ _______ _____ _____    ______ ____
ROOT
ATOM      1  O   UNL     1       2.639  -1.119   1.533  0.00  0.00    -0.277 OA
ATOM      2  N   UNL     1       1.000  -0.937  -0.103  0.00  0.00    -0.298 N 
ATOM      3  C   UNL     1       2.307  -0.885   0.372  0.00  0.00    +0.204 C 
ATOM      4  H   UNL     1       0.835  -0.733  -1.052  0.00  0.00    +0.150 HD
ENDROOT
BRANCH   2   9
ATOM      5  S   UNL     1      -0.817   1.485   0.408  0.00  0.00    -0.118 S 
ATOM      6  O   UNL     1      -1.587  -2.671  -0.837  0.00  0.00    -0.273 OA
ATOM      7  N   UNL     1      -2.128  -0.753   0.428  0.00  0.00    -0.260 N 
ATOM      8  C   UNL     1      -1.056  -0.140   1.216  0.00  0.00    +0.151 C 
ATOM      9  CA  UNL     1      -0.146  -1.284   0.750  0.00  0.00    +0.178 C 
ATOM     10  CA  UNL     1      -2.969   0.093  -0.394  0.00  0.00    +0.184 C 
ATOM     11  C   UNL     1      -2.618   1.559  -0.060  0.00  0.00    +0.068 C 
ATOM     12  C   UNL     1      -1.375  -1.795  -0.029  0.00  0.00    +0.247 C 
ATOM     13  C   UNL     1      -3.392   2.144   1.129  0.00  0.00    +0.013 C 
ATOM     14  C   UNL     1      -2.777   2.463  -1.284  0.00  0.00    +0.013 C 
BRANCH  10  16
ATOM     15  OXT UNL     1      -4.742  -1.132   0.695  0.00  0.00    -0.248 OA
ATOM     16  C   UNL     1      -4.387  -0.301  -0.128  0.00  0.00    +0.333 C 
BRANCH  16  17
ATOM     17  O   UNL     1      -5.234   0.389  -0.930  0.00  0.00    -0.479 OA
ATOM     18  H   UNL     1      -4.896   1.013  -1.542  0.00  0.00    +0.295 HD
ENDBRANCH  16  17
ENDBRANCH  10  16
ENDBRANCH   2   9
BRANCH   3  19
ATOM     19  C   UNL     1       3.322  -0.494  -0.673  0.00  0.00    +0.022 C 
ATOM     20  C   UNL     1       3.003   0.898  -1.238  0.00  0.00    -0.012 C 
ATOM     21  C   UNL     1       4.743  -0.557  -0.092  0.00  0.00    -0.012 C 
ATOM     22  C   UNL     1       3.291   2.017  -0.234  0.00  0.00    -0.002 C 
ATOM     23  C   UNL     1       5.019   0.572   0.903  0.00  0.00    -0.002 C 
ATOM     24  C   UNL     1       4.717   1.940   0.302  0.00  0.00    -0.000 C 
BRANCH  19  25
ATOM     25  N   UNL     1       3.187  -1.492  -1.735  0.00  0.00    +0.388 N 
ATOM     26  H   UNL     1       3.851  -1.287  -2.482  0.00  0.00    -0.088 HD
ATOM     27  H   UNL     1       2.238  -1.466  -2.107  0.00  0.00    -0.088 HD
ATOM     28  H   UNL     1       3.378  -2.420  -1.356  0.00  0.00    -0.088 HD
ENDBRANCH  19  25
ENDBRANCH   3  19
TORSDOF 5
