REMARK  Name = 3488
REMARK  8 active torsions:
REMARK  status: ('A' for Active; 'I' for Inactive)
REMARK    1  A    between atoms: C_1  and  S_7
REMARK    2  A    between atoms: C_2  and  C_22
REMARK    3  A    between atoms: S_7  and  N_12
REMARK    4  A    between atoms: N_11  and  C_16
REMARK    5  A    between atoms: C_22  and  C_23
REMARK    6  A    between atoms: C_23  and  N_25
REMARK    7  A    between atoms: C_26  and  C_29
REMARK    8  A    between atoms: C_30  and  O_35
REMARK                            x       y       z     vdW  Elec       q    Type
REMARK                         _______ _______ _______ _____ _____    ______ ____
ROOT
ATOM      1  C   UNL     1      -2.606   2.281  -0.057  0.00  0.00    +0.125 C 
ATOM      2  C   UNL     1      -0.301   3.719   0.477  0.00  0.00    -0.020 C 
ATOM      3  C   UNL     1      -1.629   2.377  -1.032  0.00  0.00    +0.020 C 
ATOM      4  C   UNL     1      -2.459   2.886   1.179  0.00  0.00    +0.020 C 
ATOM      5  C   UNL     1      -0.467   3.102  -0.763  0.00  0.00    -0.003 C 
ATOM      6  C   UNL     1      -1.297   3.610   1.449  0.00  0.00    -0.003 C 
ENDROOT
BRANCH   1   7
ATOM      7  S   UNL     1      -4.078   1.363  -0.398  0.00  0.00    +0.077 S 
ATOM      8  O   UNL     1      -4.274   1.343  -1.835  0.00  0.00    -0.150 OA
ATOM      9  O   UNL     1      -5.109   1.883   0.478  0.00  0.00    -0.150 OA
BRANCH   7  12
ATOM     10  O   UNL     1      -2.478  -0.917  -1.773  0.00  0.00    -0.251 OA
ATOM     11  N   UNL     1      -2.652  -2.324   0.053  0.00  0.00    -0.289 N 
ATOM     12  N   UNL     1      -3.621  -0.197   0.132  0.00  0.00    -0.169 N 
ATOM     13  C   UNL     1      -2.873  -1.146  -0.634  0.00  0.00    +0.319 C 
ATOM     14  H   UNL     1      -3.011  -2.412   0.965  0.00  0.00    +0.151 HD
ATOM     15  H   UNL     1      -3.895  -0.463   1.040  0.00  0.00    +0.178 HD
BRANCH  11  16
ATOM     16  C   UNL     1      -1.915  -3.435  -0.509  0.00  0.00    +0.073 C 
ATOM     17  C   UNL     1      -2.450  -4.772   0.016  0.00  0.00    +0.020 C 
ATOM     18  C   UNL     1      -0.414  -3.293  -0.240  0.00  0.00    +0.020 C 
ATOM     19  C   UNL     1      -2.090  -5.010   1.482  0.00  0.00    +0.002 C 
ATOM     20  C   UNL     1      -0.057  -3.534   1.227  0.00  0.00    +0.002 C 
ATOM     21  C   UNL     1      -0.589  -4.875   1.723  0.00  0.00    +0.000 C 
ENDBRANCH  11  16
ENDBRANCH   7  12
ENDBRANCH   1   7
BRANCH   2  22
ATOM     22  C   UNL     1       0.940   4.494   0.765  0.00  0.00    +0.048 C 
BRANCH  22  23
ATOM     23  C   UNL     1       2.062   3.648   1.381  0.00  0.00    +0.094 C 
BRANCH  23  25
ATOM     24  O   UNL     1       1.973   0.838   1.959  0.00  0.00    -0.270 OA
ATOM     25  N   UNL     1       2.479   2.580   0.514  0.00  0.00    -0.300 N 
ATOM     26  C   UNL     1       2.399   1.242   0.880  0.00  0.00    +0.249 C 
ATOM     27  H   UNL     1       2.837   2.805  -0.376  0.00  0.00    +0.150 HD
BRANCH  26  29
ATOM     28 CL   UNL     1       3.147   0.056  -4.084  0.00  0.00    -0.082 Cl
ATOM     29  C   UNL     1       2.896   0.260  -0.118  0.00  0.00    +0.088 C 
ATOM     30  C   UNL     1       3.437  -0.936   0.307  0.00  0.00    +0.143 C 
ATOM     31  C   UNL     1       2.796   0.587  -1.456  0.00  0.00    +0.019 C 
ATOM     32  C   UNL     1       3.898  -1.845  -0.645  0.00  0.00    +0.038 C 
ATOM     33  C   UNL     1       3.258  -0.322  -2.408  0.00  0.00    +0.058 C 
ATOM     34  C   UNL     1       3.808  -1.538  -2.003  0.00  0.00    +0.015 C 
BRANCH  30  35
ATOM     35  O   UNL     1       3.534  -1.255   1.629  0.00  0.00    -0.471 OA
ATOM     36  C   UNL     1       4.731  -0.870   2.301  0.00  0.00    +0.252 C 
ENDBRANCH  30  35
ENDBRANCH  26  29
ENDBRANCH  23  25
ENDBRANCH  22  23
ENDBRANCH   2  22
TORSDOF 8
