REMARK  Name = 17754173
REMARK  7 active torsions:
REMARK  status: ('A' for Active; 'I' for Inactive)
REMARK    1  A    between atoms: N_1  and  S_12
REMARK    2  A    between atoms: C_2  and  C_8
REMARK    3  A    between atoms: C_3  and  N_23
REMARK    4  A    between atoms: N_7  and  O_10
REMARK    5  A    between atoms: S_12  and  C_15
REMARK    6  A    between atoms: C_20  and  O_21
REMARK    7  A    between atoms: N_23  and  O_25
REMARK                            x       y       z     vdW  Elec       q    Type
REMARK                         _______ _______ _______ _____ _____    ______ ____
ROOT
ATOM      1  N   UNL     1       1.095   0.569   0.865  0.00  0.00    -0.147 NA
ATOM      2  C   UNL     1       1.569   0.406  -0.539  0.00  0.00    +0.159 C 
ATOM      3  C   UNL     1       1.688  -1.707   0.589  0.00  0.00    +0.100 C 
ATOM      4  C   UNL     1       1.570  -1.097  -0.804  0.00  0.00    +0.047 C 
ATOM      5  C   UNL     1       0.805  -0.783   1.423  0.00  0.00    +0.114 C 
ENDROOT
BRANCH   2   8
ATOM      6  O   UNL     1       3.837   0.554   0.157  0.00  0.00    -0.272 OA
ATOM      7  N   UNL     1       3.068   2.028  -1.450  0.00  0.00    -0.196 N 
ATOM      8  C   UNL     1       2.941   0.993  -0.561  0.00  0.00    +0.261 C 
ATOM      9  H   UNL     1       2.314   2.340  -2.001  0.00  0.00    +0.182 HD
BRANCH   7  10
ATOM     10  O   UNL     1       4.339   2.614  -1.525  0.00  0.00    -0.295 OA
ATOM     11  H   UNL     1       4.326   3.331  -2.178  0.00  0.00    +0.241 HD
ENDBRANCH   7  10
ENDBRANCH   2   8
BRANCH   1  12
ATOM     12  S   UNL     1      -0.026   1.806   1.190  0.00  0.00    +0.064 S 
ATOM     13  O   UNL     1       0.331   2.994   0.437  0.00  0.00    -0.153 OA
ATOM     14  O   UNL     1      -0.256   1.883   2.621  0.00  0.00    -0.153 OA
BRANCH  12  15
ATOM     15  C   UNL     1      -1.479   1.123   0.451  0.00  0.00    +0.122 C 
ATOM     16  C   UNL     1      -2.335   0.322   1.206  0.00  0.00    +0.023 C 
ATOM     17  C   UNL     1      -1.770   1.387  -0.888  0.00  0.00    +0.023 C 
ATOM     18  C   UNL     1      -3.482  -0.216   0.623  0.00  0.00    +0.038 C 
ATOM     19  C   UNL     1      -2.917   0.849  -1.471  0.00  0.00    +0.038 C 
ATOM     20  C   UNL     1      -3.773   0.048  -0.716  0.00  0.00    +0.139 C 
BRANCH  20  21
ATOM     21  O   UNL     1      -4.892  -0.477  -1.285  0.00  0.00    -0.471 OA
ATOM     22  C   UNL     1      -5.723  -1.289  -0.456  0.00  0.00    +0.252 C 
ENDBRANCH  20  21
ENDBRANCH  12  15
ENDBRANCH   1  12
BRANCH   3  23
ATOM     23  N   UNL     1       1.271  -3.098   0.634  0.00  0.00    -0.190 NA
ATOM     24  H   UNL     1       1.179  -3.415   1.599  0.00  0.00    +0.155 HD
BRANCH  23  25
ATOM     25  O   UNL     1       2.334  -3.827  -0.046  0.00  0.00    -0.283 OA
ATOM     26  C   UNL     1       1.805  -5.081  -0.454  0.00  0.00    +0.200 C 
ENDBRANCH  23  25
ENDBRANCH   3  23
TORSDOF 7
