REMARK  Name = 6726
REMARK  3 active torsions:
REMARK  status: ('A' for Active; 'I' for Inactive)
REMARK    1  A    between atoms: C_1  and  N_2
REMARK    2  A    between atoms: C_1  and  C_11
REMARK    3  A    between atoms: C_1  and  C_17
REMARK                            x       y       z     vdW  Elec       q    Type
REMARK                         _______ _______ _______ _____ _____    ______ ____
ROOT
ATOM      1  C   UNL     1      -0.221  -0.009  -0.590  0.00  0.00    -0.012 C 
ENDROOT
BRANCH   1   2
ATOM      2  N   UNL     1       1.113   0.103  -0.004  0.00  0.00    +0.390 N 
ATOM      3  N   UNL     1       3.999   0.191  -0.166  0.00  0.00    +0.383 N 
ATOM      4  C   UNL     1       1.812   1.286  -0.522  0.00  0.00    -0.100 C 
ATOM      5  C   UNL     1       1.899  -1.110  -0.261  0.00  0.00    -0.100 C 
ATOM      6  C   UNL     1       3.212   1.403   0.091  0.00  0.00    -0.101 C 
ATOM      7  C   UNL     1       3.299  -0.993   0.351  0.00  0.00    -0.101 C 
ATOM      8  C   UNL     1       5.332   0.303   0.422  0.00  0.00    -0.101 C 
ATOM      9  H   UNL     1       1.006   0.210   1.005  0.00  0.00    -0.079 HD
ATOM     10  H   UNL     1       4.107   0.085  -1.174  0.00  0.00    -0.080 HD
ENDBRANCH   1   2
BRANCH   1  11
ATOM     11  C   UNL     1      -1.092   1.201  -0.284  0.00  0.00    -0.038 C 
ATOM     12  C   UNL     1      -2.062   1.572  -1.193  0.00  0.00    -0.006 C 
ATOM     13  C   UNL     1      -0.886   1.892   0.893  0.00  0.00    -0.006 C 
ATOM     14  C   UNL     1      -2.861   2.681  -0.913  0.00  0.00    -0.000 C 
ATOM     15  C   UNL     1      -1.685   3.001   1.173  0.00  0.00    -0.000 C 
ATOM     16  C   UNL     1      -2.672   3.395   0.270  0.00  0.00    -0.000 C 
ENDBRANCH   1  11
BRANCH   1  17
ATOM     17  C   UNL     1      -0.910  -1.312  -0.215  0.00  0.00    -0.038 C 
ATOM     18  C   UNL     1      -0.740  -2.415  -1.028  0.00  0.00    -0.006 C 
ATOM     19  C   UNL     1      -1.686  -1.353   0.926  0.00  0.00    -0.006 C 
ATOM     20  C   UNL     1      -1.372  -3.610  -0.684  0.00  0.00    -0.000 C 
ATOM     21  C   UNL     1      -2.318  -2.549   1.269  0.00  0.00    -0.000 C 
ATOM     22  C   UNL     1      -2.161  -3.677   0.464  0.00  0.00    -0.000 C 
ENDBRANCH   1  17
TORSDOF 3
