REMARK  Name = 5311066
REMARK  4 active torsions:
REMARK  status: ('A' for Active; 'I' for Inactive)
REMARK    1  A    between atoms: C_7  and  C_29
REMARK    2  A    between atoms: C_12  and  O_26
REMARK    3  A    between atoms: C_29  and  C_30
REMARK    4  A    between atoms: C_30  and  O_31
REMARK                            x       y       z     vdW  Elec       q    Type
REMARK                         _______ _______ _______ _____ _____    ______ ____
ROOT
ATOM      1  O   UNL     1      -2.709   0.691  -1.121  0.00  0.00    -0.330 OA
ATOM      2  O   UNL     1      -3.345   2.209   0.556  0.00  0.00    -0.334 OA
ATOM      3  O   UNL     1       6.386   1.163  -1.742  0.00  0.00    -0.287 OA
ATOM      4  C   UNL     1      -1.332  -0.705   0.396  0.00  0.00    +0.034 C 
ATOM      5  C   UNL     1      -0.497   0.542   0.763  0.00  0.00    +0.005 C 
ATOM      6  C   UNL     1       0.949   0.221   1.169  0.00  0.00    +0.003 C 
ATOM      7  C   UNL     1      -2.698  -0.025   0.111  0.00  0.00    +0.173 C 
ATOM      8  C   UNL     1       1.664  -0.470  -0.047  0.00  0.00    +0.034 C 
ATOM      9  C   UNL     1      -2.825   1.047   1.197  0.00  0.00    +0.149 C 
ATOM     10  C   UNL     1      -1.400   1.306   1.734  0.00  0.00    +0.033 C 
ATOM     11  C   UNL     1      -0.655  -1.378  -0.813  0.00  0.00    +0.032 C 
ATOM     12  C   UNL     1       0.845  -1.682  -0.600  0.00  0.00    +0.111 C 
ATOM     13  C   UNL     1       3.200  -0.723   0.220  0.00  0.00    +0.036 C 
ATOM     14  C   UNL     1       1.685   1.506   1.589  0.00  0.00    +0.004 C 
ATOM     15  C   UNL     1      -1.478  -1.710   1.569  0.00  0.00    +0.003 C 
ATOM     16  C   UNL     1       3.166   1.268   1.855  0.00  0.00    +0.022 C 
ATOM     17  C   UNL     1      -3.292   1.969  -0.851  0.00  0.00    +0.188 C 
ATOM     18  C   UNL     1       3.812   0.611   0.663  0.00  0.00    -0.038 C 
ATOM     19  C   UNL     1       3.479  -1.772   1.319  0.00  0.00    +0.009 C 
ATOM     20  C   UNL     1       3.868  -1.242  -1.045  0.00  0.00    -0.020 C 
ATOM     21  C   UNL     1      -2.446   3.060  -1.502  0.00  0.00    +0.061 C 
ATOM     22  C   UNL     1      -4.709   1.993  -1.412  0.00  0.00    +0.061 C 
ATOM     23  C   UNL     1       4.830   1.211   0.028  0.00  0.00    +0.034 C 
ATOM     24  C   UNL     1       4.881  -0.647  -1.683  0.00  0.00    +0.038 C 
ATOM     25  C   UNL     1       5.444   0.618  -1.177  0.00  0.00    +0.195 C 
ENDROOT
BRANCH  12  26
ATOM     26  O   UNL     1       0.972  -2.809   0.259  0.00  0.00    -0.384 OA
ATOM     27  H   UNL     1       1.912  -3.005   0.397  0.00  0.00    +0.210 HD
ENDBRANCH  12  26
BRANCH   7  29
ATOM     28  O   UNL     1      -4.498  -1.268   1.058  0.00  0.00    -0.291 OA
ATOM     29  C   UNL     1      -3.852  -0.982   0.051  0.00  0.00    +0.207 C 
BRANCH  29  30
ATOM     30  C   UNL     1      -4.168  -1.566  -1.309  0.00  0.00    +0.204 C 
BRANCH  30  31
ATOM     31  O   UNL     1      -5.278  -2.436  -1.233  0.00  0.00    -0.375 OA
ATOM     32  H   UNL     1      -5.465  -2.800  -2.113  0.00  0.00    +0.211 HD
ENDBRANCH  30  31
ENDBRANCH  29  30
ENDBRANCH   7  29
TORSDOF 4
