REMARK  Name = 31016
REMARK  6 active torsions:
REMARK  status: ('A' for Active; 'I' for Inactive)
REMARK    1  A    between atoms: C_1  and  C_13
REMARK    2  A    between atoms: C_4  and  O_7
REMARK    3  A    between atoms: C_5  and  O_9
REMARK    4  A    between atoms: C_6  and  O_11
REMARK    5  A    between atoms: C_13  and  C_14
REMARK    6  A    between atoms: C_14  and  N_16
REMARK                            x       y       z     vdW  Elec       q    Type
REMARK                         _______ _______ _______ _____ _____    ______ ____
ROOT
ATOM      1  C   UNL     1       1.057   0.166  -0.593  0.00  0.00    -0.018 C 
ATOM      2  C   UNL     1       0.319   1.338  -0.552  0.00  0.00    +0.036 C 
ATOM      3  C   UNL     1       0.474  -1.062  -0.322  0.00  0.00    +0.036 C 
ATOM      4  C   UNL     1      -0.882  -1.118  -0.001  0.00  0.00    +0.175 C 
ATOM      5  C   UNL     1      -1.037   1.282  -0.231  0.00  0.00    +0.175 C 
ATOM      6  C   UNL     1      -1.638   0.053   0.045  0.00  0.00    +0.206 C 
ENDROOT
BRANCH   4   7
ATOM      7  O   UNL     1      -1.457  -2.324   0.266  0.00  0.00    -0.468 OA
ATOM      8  C   UNL     1      -0.615  -3.473   0.197  0.00  0.00    +0.253 C 
ENDBRANCH   4   7
BRANCH   5   9
ATOM      9  O   UNL     1      -1.763   2.433  -0.190  0.00  0.00    -0.468 OA
ATOM     10  C   UNL     1      -1.823   3.118   1.060  0.00  0.00    +0.253 C 
ENDBRANCH   5   9
BRANCH   6  11
ATOM     11  O   UNL     1      -2.964  -0.002   0.358  0.00  0.00    -0.465 OA
ATOM     12  C   UNL     1      -3.799  -0.777  -0.498  0.00  0.00    +0.253 C 
ENDBRANCH   6  11
BRANCH   1  13
ATOM     13  C   UNL     1       2.525   0.227  -0.941  0.00  0.00    +0.005 C 
BRANCH  13  14
ATOM     14  C   UNL     1       3.442   0.403   0.283  0.00  0.00    -0.061 C 
ATOM     15  C   UNL     1       3.324  -0.755   1.275  0.00  0.00    -0.024 C 
BRANCH  14  16
ATOM     16  N   UNL     1       4.837   0.491  -0.159  0.00  0.00    +0.382 N 
ATOM     17  H   UNL     1       4.935   1.260  -0.822  0.00  0.00    -0.089 HD
ATOM     18  H   UNL     1       5.107  -0.383  -0.609  0.00  0.00    -0.089 HD
ATOM     19  H   UNL     1       5.439   0.659   0.647  0.00  0.00    -0.089 HD
ENDBRANCH  14  16
ENDBRANCH  13  14
ENDBRANCH   1  13
TORSDOF 6
