REMARK  Name = 10517
REMARK  9 active torsions:
REMARK  status: ('A' for Active; 'I' for Inactive)
REMARK    1  A    between atoms: C_1  and  C_2
REMARK    2  A    between atoms: C_1  and  C_8
REMARK    3  A    between atoms: C_1  and  C_14
REMARK    4  A    between atoms: C_1  and  C_21
REMARK    5  A    between atoms: C_14  and  C_15
REMARK    6  A    between atoms: C_15  and  N_17
REMARK    7  A    between atoms: C_21  and  C_22
REMARK    8  A    between atoms: C_21  and  O_24
REMARK    9  A    between atoms: O_24  and  C_26
REMARK                            x       y       z     vdW  Elec       q    Type
REMARK                         _______ _______ _______ _____ _____    ______ ____
ROOT
ATOM      1  C   UNL     1      -0.064   0.290  -0.271  0.00  0.00    +0.073 C 
ENDROOT
BRANCH   1   2
ATOM      2  C   UNL     1      -1.288   1.209   0.041  0.00  0.00    -0.016 C 
ATOM      3  C   UNL     1      -2.167   0.782   0.988  0.00  0.00    -0.004 C 
ATOM      4  C   UNL     1      -1.391   2.374  -0.656  0.00  0.00    -0.004 C 
ATOM      5  C   UNL     1      -3.260   1.603   1.266  0.00  0.00    -0.000 C 
ATOM      6  C   UNL     1      -2.484   3.195  -0.377  0.00  0.00    -0.000 C 
ATOM      7  C   UNL     1      -3.419   2.809   0.584  0.00  0.00    -0.000 C 
ENDBRANCH   1   2
BRANCH   1   8
ATOM      8  C   UNL     1       0.836   0.050   0.979  0.00  0.00    -0.016 C 
ATOM      9  C   UNL     1       0.891   1.038   1.915  0.00  0.00    -0.004 C 
ATOM     10  C   UNL     1       1.508  -1.133   1.054  0.00  0.00    -0.004 C 
ATOM     11  C   UNL     1       1.696   0.823   3.034  0.00  0.00    -0.000 C 
ATOM     12  C   UNL     1       2.313  -1.348   2.172  0.00  0.00    -0.000 C 
ATOM     13  C   UNL     1       2.407  -0.370   3.162  0.00  0.00    -0.000 C 
ENDBRANCH   1   8
BRANCH   1  14
ATOM     14  C   UNL     1       0.705   0.955  -1.490  0.00  0.00    -0.009 C 
BRANCH  14  15
ATOM     15  C   UNL     1       2.030   0.310  -1.973  0.00  0.00    -0.058 C 
ATOM     16  C   UNL     1       2.664   1.162  -3.078  0.00  0.00    -0.023 C 
BRANCH  15  17
ATOM     17  N   UNL     1       2.996   0.186  -0.879  0.00  0.00    +0.385 N 
ATOM     18  C   UNL     1       3.337   1.505  -0.349  0.00  0.00    -0.101 C 
ATOM     19  C   UNL     1       4.198  -0.508  -1.338  0.00  0.00    -0.101 C 
ATOM     20  H   UNL     1       2.572  -0.363  -0.132  0.00  0.00    -0.080 HD
ENDBRANCH  15  17
ENDBRANCH  14  15
ENDBRANCH   1  14
BRANCH   1  21
ATOM     21  C   UNL     1      -0.539  -1.149  -0.787  0.00  0.00    +0.176 C 
BRANCH  21  22
ATOM     22  C   UNL     1      -1.391  -1.171  -2.076  0.00  0.00    +0.044 C 
ATOM     23  C   UNL     1      -2.671  -0.353  -1.929  0.00  0.00    +0.004 C 
ENDBRANCH  21  22
BRANCH  21  24
ATOM     24  O   UNL     1      -1.250  -1.843   0.244  0.00  0.00    -0.452 OA
BRANCH  24  26
ATOM     25  O   UNL     1      -1.092  -3.877  -0.840  0.00  0.00    -0.250 OA
ATOM     26  C   UNL     1      -1.652  -3.107  -0.071  0.00  0.00    +0.317 C 
ATOM     27  C   UNL     1      -2.910  -3.433   0.674  0.00  0.00    +0.121 C 
ENDBRANCH  24  26
ENDBRANCH  21  24
ENDBRANCH   1  21
TORSDOF 9
