REMARK  Name = 5287612
REMARK  5 active torsions:
REMARK  status: ('A' for Active; 'I' for Inactive)
REMARK    1  A    between atoms: C_1  and  O_11
REMARK    2  A    between atoms: C_2  and  O_13
REMARK    3  A    between atoms: C_3  and  N_7
REMARK    4  A    between atoms: C_5  and  C_15
REMARK    5  A    between atoms: C_15  and  O_16
REMARK                            x       y       z     vdW  Elec       q    Type
REMARK                         _______ _______ _______ _____ _____    ______ ____
ROOT
ATOM      1  C   UNL     1       1.613  -0.266  -0.414  0.00  0.00    +0.122 C 
ATOM      2  C   UNL     1       0.741  -1.507  -0.214  0.00  0.00    +0.139 C 
ATOM      3  C   UNL     1       1.257   0.835   0.609  0.00  0.00    -0.013 C 
ATOM      4  C   UNL     1      -0.756  -1.177  -0.319  0.00  0.00    +0.056 C 
ATOM      5  C   UNL     1      -1.144   0.132   0.331  0.00  0.00    -0.019 C 
ATOM      6  C   UNL     1      -0.231   1.025   0.753  0.00  0.00    -0.052 C 
ENDROOT
BRANCH   3   7
ATOM      7  N   UNL     1       1.925   2.090   0.251  0.00  0.00    +0.386 N 
ATOM      8  H   UNL     1       2.928   1.927   0.161  0.00  0.00    -0.089 HD
ATOM      9  H   UNL     1       1.757   2.784   0.980  0.00  0.00    -0.089 HD
ATOM     10  H   UNL     1       1.555   2.431  -0.636  0.00  0.00    -0.089 HD
ENDBRANCH   3   7
BRANCH   1  11
ATOM     11  O   UNL     1       1.423   0.195  -1.753  0.00  0.00    -0.384 OA
ATOM     12  H   UNL     1       1.653  -0.513  -2.374  0.00  0.00    +0.210 HD
ENDBRANCH   1  11
BRANCH   2  13
ATOM     13  O   UNL     1       1.025  -2.073   1.064  0.00  0.00    -0.382 OA
ATOM     14  H   UNL     1       1.971  -2.280   1.123  0.00  0.00    +0.210 HD
ENDBRANCH   2  13
BRANCH   5  15
ATOM     15  C   UNL     1      -2.617   0.376   0.483  0.00  0.00    +0.159 C 
BRANCH  15  16
ATOM     16  O   UNL     1      -3.235   0.370  -0.791  0.00  0.00    -0.378 OA
ATOM     17  H   UNL     1      -4.186   0.529  -0.689  0.00  0.00    +0.211 HD
ENDBRANCH  15  16
ENDBRANCH   5  15
TORSDOF 5
