REMARK  Name = 56339
REMARK  7 active torsions:
REMARK  status: ('A' for Active; 'I' for Inactive)
REMARK    1  A    between atoms: N_4  and  C_21
REMARK    2  A    between atoms: C_5  and  C_9
REMARK    3  A    between atoms: C_5  and  C_15
REMARK    4  A    between atoms: C_21  and  O_22
REMARK    5  A    between atoms: O_22  and  P_23
REMARK    6  A    between atoms: P_23  and  O_25
REMARK    7  A    between atoms: P_23  and  O_27
REMARK                            x       y       z     vdW  Elec       q    Type
REMARK                         _______ _______ _______ _____ _____    ______ ____
ROOT
ATOM      1  O   UNL     1       0.404   0.201   1.712  0.00  0.00    -0.272 OA
ATOM      2  O   UNL     1       1.438   0.993  -2.693  0.00  0.00    -0.252 OA
ATOM      3  N   UNL     1      -0.522   0.325  -1.631  0.00  0.00    -0.277 N 
ATOM      4  N   UNL     1       1.272   0.715  -0.380  0.00  0.00    -0.185 N 
ATOM      5  C   UNL     1      -1.023   0.052  -0.286  0.00  0.00    +0.166 C 
ATOM      6  C   UNL     1       0.282   0.326   0.498  0.00  0.00    +0.258 C 
ATOM      7  C   UNL     1       0.814   0.714  -1.677  0.00  0.00    +0.312 C 
ATOM      8  H   UNL     1      -1.082   0.240  -2.437  0.00  0.00    +0.152 HD
ENDROOT
BRANCH   5   9
ATOM      9  C   UNL     1      -1.425  -1.413  -0.072  0.00  0.00    +0.006 C 
ATOM     10  C   UNL     1      -1.853  -1.846   1.185  0.00  0.00    -0.002 C 
ATOM     11  C   UNL     1      -1.363  -2.320  -1.132  0.00  0.00    -0.002 C 
ATOM     12  C   UNL     1      -2.218  -3.178   1.381  0.00  0.00    -0.000 C 
ATOM     13  C   UNL     1      -1.728  -3.651  -0.937  0.00  0.00    -0.000 C 
ATOM     14  C   UNL     1      -2.156  -4.080   0.319  0.00  0.00    -0.000 C 
ENDBRANCH   5   9
BRANCH   5  15
ATOM     15  C   UNL     1      -2.157   1.039   0.006  0.00  0.00    +0.006 C 
ATOM     16  C   UNL     1      -3.351   0.969  -0.716  0.00  0.00    -0.002 C 
ATOM     17  C   UNL     1      -2.003   2.012   0.995  0.00  0.00    -0.002 C 
ATOM     18  C   UNL     1      -4.384   1.868  -0.450  0.00  0.00    -0.000 C 
ATOM     19  C   UNL     1      -3.036   2.911   1.261  0.00  0.00    -0.000 C 
ATOM     20  C   UNL     1      -4.226   2.839   0.539  0.00  0.00    -0.000 C 
ENDBRANCH   5  15
BRANCH   4  21
ATOM     21  C   UNL     1       2.623   1.053   0.023  0.00  0.00    +0.260 C 
BRANCH  21  22
ATOM     22  O   UNL     1       3.416  -0.119  -0.006  0.00  0.00    -0.251 OA
BRANCH  22  23
ATOM     23  P   UNL     1       4.976  -0.003   0.405  0.00  0.00    +0.475 P 
ATOM     24  O   UNL     1       5.757  -1.284   0.351  0.00  0.00    -0.227 OA
BRANCH  23  25
ATOM     25  O   UNL     1       5.539   1.173  -0.553  0.00  0.00    -0.303 OA
ATOM     26  H   UNL     1       4.982   1.961  -0.459  0.00  0.00    +0.222 HD
ENDBRANCH  23  25
BRANCH  23  27
ATOM     27  O   UNL     1       4.924   0.705   1.858  0.00  0.00    -0.303 OA
ATOM     28  H   UNL     1       4.403   1.521   1.802  0.00  0.00    +0.222 HD
ENDBRANCH  23  27
ENDBRANCH  22  23
ENDBRANCH  21  22
ENDBRANCH   4  21
TORSDOF 7
