REMARK  Name = 1800
REMARK  1 active torsions:
REMARK  status: ('A' for Active; 'I' for Inactive)
REMARK    1  A    between atoms: C_5  and  C_14
REMARK                            x       y       z     vdW  Elec       q    Type
REMARK                         _______ _______ _______ _____ _____    ______ ____
ROOT
ATOM      1  N   UNL     1       2.197   1.406   0.000  0.00  0.00    -0.315 N 
ATOM      2  N   UNL     1       2.884  -0.708   0.000  0.00  0.00    -0.315 N 
ATOM      3  C   UNL     1       1.053   0.649   0.000  0.00  0.00    +0.059 C 
ATOM      4  C   UNL     1       1.509  -0.666   0.000  0.00  0.00    +0.059 C 
ATOM      5  C   UNL     1      -1.216  -0.064   0.000  0.00  0.00    +0.030 C 
ATOM      6  C   UNL     1      -0.299   0.992  -0.001  0.00  0.00    +0.018 C 
ATOM      7  C   UNL     1       0.574  -1.715   0.000  0.00  0.00    +0.016 C 
ATOM      8  C   UNL     1      -0.790  -1.394   0.000  0.00  0.00    +0.004 C 
ATOM      9  C   UNL     1       3.263   0.550   0.000  0.00  0.00    +0.182 C 
ATOM     10  H   UNL     1       2.242   2.389  -0.001  0.00  0.00    +0.148 HD
ATOM     11  H   UNL     1       3.459  -1.507   0.000  0.00  0.00    +0.148 HD
ENDROOT
BRANCH   5  14
ATOM     12  N   UNL     1      -3.034   1.502   0.001  0.00  0.00    -0.345 N 
ATOM     13  N   UNL     1      -3.506  -0.782   0.000  0.00  0.00    -0.387 N 
ATOM     14  C   UNL     1      -2.633   0.229  -0.001  0.00  0.00    +0.096 C 
ATOM     15  H   UNL     1      -3.995   1.716   0.001  0.00  0.00    +0.144 HD
ATOM     16  H   UNL     1      -2.369   2.228   0.002  0.00  0.00    +0.144 HD
ATOM     17  H   UNL     1      -4.473  -0.597   0.000  0.00  0.00    +0.157 HD
ATOM     18  H   UNL     1      -3.183  -1.712   0.000  0.00  0.00    +0.157 HD
ENDBRANCH   5  14
TORSDOF 1
