REMARK  Name = 439407
REMARK  2 active torsions:
REMARK  status: ('A' for Active; 'I' for Inactive)
REMARK    1  A    between atoms: C_3  and  O_7
REMARK    2  A    between atoms: C_4  and  O_9
REMARK                            x       y       z     vdW  Elec       q    Type
REMARK                         _______ _______ _______ _____ _____    ______ ____
ROOT
ATOM      1  S   UNL     1      -1.811  -1.019  -0.124  0.00  0.00    -0.079 S 
ATOM      2  S   UNL     1      -1.815   1.012   0.124  0.00  0.00    -0.079 S 
ATOM      3  C   UNL     1       0.963  -0.742  -0.194  0.00  0.00    +0.150 C 
ATOM      4  C   UNL     1       0.960   0.746   0.194  0.00  0.00    +0.150 C 
ATOM      5  C   UNL     1      -0.241  -1.226  -1.015  0.00  0.00    +0.100 C 
ATOM      6  C   UNL     1      -0.246   1.225   1.015  0.00  0.00    +0.100 C 
ENDROOT
BRANCH   3   7
ATOM      7  O   UNL     1       1.098  -1.527   0.990  0.00  0.00    -0.381 OA
ATOM      8  H   UNL     1       1.861  -1.213   1.501  0.00  0.00    +0.210 HD
ENDBRANCH   3   7
BRANCH   4   9
ATOM      9  O   UNL     1       1.092   1.531  -0.990  0.00  0.00    -0.381 OA
ATOM     10  H   UNL     1       1.855   1.220  -1.501  0.00  0.00    +0.210 HD
ENDBRANCH   4   9
TORSDOF 2
