REMARK  Name = 40473221
REMARK  2 active torsions:
REMARK  status: ('A' for Active; 'I' for Inactive)
REMARK    1  A    between atoms: C_4  and  C_13
REMARK    2  A    between atoms: C_8  and  O_14
REMARK                            x       y       z     vdW  Elec       q    Type
REMARK                         _______ _______ _______ _____ _____    ______ ____
ROOT
ATOM      1  N   UNL     1      -1.100   0.826   0.555  0.00  0.00    +0.389 N 
ATOM      2  C   UNL     1      -0.523   0.736  -0.853  0.00  0.00    -0.045 C 
ATOM      3  C   UNL     1      -1.592  -0.588   0.791  0.00  0.00    -0.056 C 
ATOM      4  C   UNL     1       0.808  -0.034  -0.761  0.00  0.00    +0.111 C 
ATOM      5  C   UNL     1      -1.601  -0.061  -1.596  0.00  0.00    -0.022 C 
ATOM      6  C   UNL     1      -2.283  -0.930  -0.531  0.00  0.00    -0.023 C 
ATOM      7  C   UNL     1      -0.338  -1.436   1.055  0.00  0.00    +0.009 C 
ATOM      8  C   UNL     1       0.637  -1.427  -0.131  0.00  0.00    +0.117 C 
ATOM      9  C   UNL     1      -2.136   1.895   0.743  0.00  0.00    -0.100 C 
ATOM     10  H   UNL     1      -0.414   1.127   1.247  0.00  0.00    -0.080 HD
ENDROOT
BRANCH   4  13
ATOM     11  O   UNL     1       1.554   1.079   1.180  0.00  0.00    -0.246 OA
ATOM     12  O   UNL     1       2.854   1.128  -0.701  0.00  0.00    -0.246 OA
ATOM     13  C   UNL     1       1.841   0.808  -0.019  0.00  0.00    +0.365 C 
ENDBRANCH   4  13
BRANCH   8  14
ATOM     14  O   UNL     1       1.879  -1.995   0.267  0.00  0.00    -0.384 OA
ATOM     15  H   UNL     1       2.493  -1.988  -0.484  0.00  0.00    +0.210 HD
ENDBRANCH   8  14
TORSDOF 2
