REMARK  Name = 3219
REMARK  4 active torsions:
REMARK  status: ('A' for Active; 'I' for Inactive)
REMARK    1  A    between atoms: N_3  and  C_19
REMARK    2  A    between atoms: C_19  and  C_20
REMARK    3  A    between atoms: C_20  and  O_21
REMARK    4  A    between atoms: O_21  and  C_22
REMARK                            x       y       z     vdW  Elec       q    Type
REMARK                         _______ _______ _______ _____ _____    ______ ____
ROOT
ATOM      1  N   UNL     1       0.782   1.281  -0.007  0.00  0.00    -0.274 N 
ATOM      2  N   UNL     1       4.012   1.256   0.528  0.00  0.00    +0.387 N 
ATOM      3  N   UNL     1      -1.139  -0.077  -0.374  0.00  0.00    -0.246 N 
ATOM      4  N   UNL     1      -1.509   1.936   0.494  0.00  0.00    -0.376 NA
ATOM      5  C   UNL     1       1.386   1.858  -1.211  0.00  0.00    +0.092 C 
ATOM      6  C   UNL     1       1.625   0.900   1.130  0.00  0.00    +0.072 C 
ATOM      7  C   UNL     1       2.587   2.756  -0.919  0.00  0.00    -0.001 C 
ATOM      8  C   UNL     1       2.953   0.258   0.718  0.00  0.00    -0.056 C 
ATOM      9  C   UNL     1       3.897   1.985  -0.739  0.00  0.00    -0.076 C 
ATOM     10  C   UNL     1      -0.587   1.101   0.057  0.00  0.00    +0.245 C 
ATOM     11  C   UNL     1      -2.497   0.005  -0.205  0.00  0.00    +0.081 C 
ATOM     12  C   UNL     1      -2.703   1.270   0.338  0.00  0.00    +0.130 C 
ATOM     13  C   UNL     1       5.330   0.616   0.605  0.00  0.00    -0.101 C 
ATOM     14  C   UNL     1      -3.532  -0.892  -0.472  0.00  0.00    +0.017 C 
ATOM     15  C   UNL     1      -4.012   1.681   0.639  0.00  0.00    +0.086 C 
ATOM     16  C   UNL     1      -4.829  -0.466  -0.167  0.00  0.00    -0.003 C 
ATOM     17  C   UNL     1      -5.067   0.797   0.379  0.00  0.00    -0.019 C 
ATOM     18  H   UNL     1       3.905   1.938   1.279  0.00  0.00    -0.080 HD
ENDROOT
BRANCH   3  19
ATOM     19  C   UNL     1      -0.426  -1.213  -0.916  0.00  0.00    +0.131 C 
BRANCH  19  20
ATOM     20  C   UNL     1      -0.009  -2.207   0.160  0.00  0.00    +0.164 C 
BRANCH  20  21
ATOM     21  O   UNL     1       0.718  -3.276  -0.431  0.00  0.00    -0.352 OA
BRANCH  21  22
ATOM     22  C   UNL     1       1.126  -4.229   0.541  0.00  0.00    +0.142 C 
ATOM     23  C   UNL     1       1.892  -5.338  -0.148  0.00  0.00    +0.035 C 
ENDBRANCH  21  22
ENDBRANCH  20  21
ENDBRANCH  19  20
ENDBRANCH   3  19
TORSDOF 4
