REMARK  Name = 444635
REMARK  7 active torsions:
REMARK  status: ('A' for Active; 'I' for Inactive)
REMARK    1  A    between atoms: C_2  and  O_13
REMARK    2  A    between atoms: C_3  and  O_7
REMARK    3  A    between atoms: C_4  and  O_9
REMARK    4  A    between atoms: C_5  and  C_18
REMARK    5  A    between atoms: C_6  and  O_11
REMARK    6  A    between atoms: O_13  and  S_14
REMARK    7  A    between atoms: C_18  and  O_19
REMARK                            x       y       z     vdW  Elec       q    Type
REMARK                         _______ _______ _______ _____ _____    ______ ____
ROOT
ATOM      1  O   UNL     1       2.357   0.125  -0.153  0.00  0.00    -0.326 OA
ATOM      2  C   UNL     1      -0.447   0.505   0.309  0.00  0.00    +0.208 C 
ATOM      3  C   UNL     1       0.141  -0.862  -0.043  0.00  0.00    +0.172 C 
ATOM      4  C   UNL     1       0.445   1.635  -0.205  0.00  0.00    +0.199 C 
ATOM      5  C   UNL     1       1.596  -0.938   0.433  0.00  0.00    +0.176 C 
ATOM      6  C   UNL     1       1.897   1.420   0.229  0.00  0.00    +0.262 C 
ENDROOT
BRANCH   3   7
ATOM      7  O   UNL     1       0.104  -1.048  -1.460  0.00  0.00    -0.379 OA
ATOM      8  H   UNL     1      -0.814  -1.001  -1.768  0.00  0.00    +0.211 HD
ENDBRANCH   3   7
BRANCH   4   9
ATOM      9  O   UNL     1      -0.010   2.876   0.336  0.00  0.00    -0.377 OA
ATOM     10  H   UNL     1      -0.931   3.026   0.069  0.00  0.00    +0.211 HD
ENDBRANCH   4   9
BRANCH   6  11
ATOM     11  O   UNL     1       2.695   2.421  -0.401  0.00  0.00    -0.358 OA
ATOM     12  H   UNL     1       3.623   2.306  -0.141  0.00  0.00    +0.213 HD
ENDBRANCH   6  11
BRANCH   2  13
ATOM     13  O   UNL     1      -1.747   0.640  -0.257  0.00  0.00    -0.198 OA
BRANCH  13  14
ATOM     14  S   UNL     1      -2.925  -0.409   0.165  0.00  0.00    +0.239 S 
ATOM     15  O   UNL     1      -4.163  -0.013  -0.821  0.00  0.00    -0.116 OA
ATOM     16  O   UNL     1      -2.478  -1.738  -0.208  0.00  0.00    -0.116 OA
ATOM     17  O   UNL     1      -3.336  -0.135   1.530  0.00  0.00    -0.022 OA
ENDBRANCH  13  14
ENDBRANCH   2  13
BRANCH   5  18
ATOM     18  C   UNL     1       2.267  -2.249   0.039  0.00  0.00    +0.169 C 
BRANCH  18  19
ATOM     19  O   UNL     1       3.604  -2.231   0.506  0.00  0.00    -0.379 OA
ATOM     20  H   UNL     1       4.043  -3.061   0.262  0.00  0.00    +0.211 HD
ENDBRANCH  18  19
ENDBRANCH   5  18
TORSDOF 7
