REMARK  Name = 37851
REMARK  3 active torsions:
REMARK  status: ('A' for Active; 'I' for Inactive)
REMARK    1  A    between atoms: N_1  and  C_5
REMARK    2  A    between atoms: C_5  and  C_6
REMARK    3  A    between atoms: C_6  and  S_7
REMARK                            x       y       z     vdW  Elec       q    Type
REMARK                         _______ _______ _______ _____ _____    ______ ____
ROOT
ATOM      1  N   UNL     1      -0.941  -0.035   0.000  0.00  0.00    +0.386 N 
ATOM      2  C   UNL     1      -1.081   0.876  -1.211  0.00  0.00    -0.096 C 
ATOM      3  C   UNL     1      -1.987  -1.138  -0.072  0.00  0.00    -0.096 C 
ATOM      4  C   UNL     1      -1.146   0.776   1.271  0.00  0.00    -0.096 C 
ENDROOT
BRANCH   1   5
ATOM      5  C   UNL     1       0.449  -0.654   0.011  0.00  0.00    -0.062 C 
BRANCH   5   6
ATOM      6  C   UNL     1       1.512   0.432   0.000  0.00  0.00    +0.031 C 
BRANCH   6   7
ATOM      7  S   UNL     1       3.195  -0.256   0.000  0.00  0.00    -0.170 S 
ATOM      8  H   UNL     1       4.100   0.760  -0.010  0.00  0.00    +0.102 HD
ENDBRANCH   6   7
ENDBRANCH   5   6
ENDBRANCH   1   5
TORSDOF 3
