REMARK  Name = 385
REMARK  8 active torsions:
REMARK  status: ('A' for Active; 'I' for Inactive)
REMARK    1  A    between atoms: C_1  and  C_2
REMARK    2  A    between atoms: C_1  and  C_8
REMARK    3  A    between atoms: C_2  and  C_3
REMARK    4  A    between atoms: C_3  and  C_5
REMARK    5  A    between atoms: C_5  and  O_6
REMARK    6  A    between atoms: C_8  and  C_9
REMARK    7  A    between atoms: C_9  and  C_11
REMARK    8  A    between atoms: C_11  and  O_12
REMARK                            x       y       z     vdW  Elec       q    Type
REMARK                         _______ _______ _______ _____ _____    ______ ____
ROOT
ATOM      1  C   UNL     1       0.012  -0.705   0.005  0.00  0.00    +0.001 C 
ENDROOT
BRANCH   1   2
ATOM      2  C   UNL     1      -1.255   0.156  -0.013  0.00  0.00    +0.012 C 
BRANCH   2   3
ATOM      3  C   UNL     1      -2.531  -0.683  -0.062  0.00  0.00    +0.109 C 
BRANCH   3   5
ATOM      4  O   UNL     1      -3.842   1.368   0.024  0.00  0.00    -0.250 OA
ATOM      5  C   UNL     1      -3.795   0.147  -0.007  0.00  0.00    +0.314 C 
BRANCH   5   6
ATOM      6  O   UNL     1      -4.903  -0.638   0.028  0.00  0.00    -0.480 OA
ATOM      7  H   UNL     1      -4.818  -1.571   0.002  0.00  0.00    +0.295 HD
ENDBRANCH   5   6
ENDBRANCH   3   5
ENDBRANCH   2   3
ENDBRANCH   1   2
BRANCH   1   8
ATOM      8  C   UNL     1       1.272   0.163   0.026  0.00  0.00    +0.012 C 
BRANCH   8   9
ATOM      9  C   UNL     1       2.537  -0.692   0.016  0.00  0.00    +0.109 C 
BRANCH   9  11
ATOM     10  O   UNL     1       3.832   1.374  -0.026  0.00  0.00    -0.250 OA
ATOM     11  C   UNL     1       3.787   0.153  -0.002  0.00  0.00    +0.314 C 
BRANCH  11  12
ATOM     12  O   UNL     1       4.887  -0.642   0.013  0.00  0.00    -0.480 OA
ATOM     13  H   UNL     1       4.791  -1.574   0.031  0.00  0.00    +0.295 HD
ENDBRANCH  11  12
ENDBRANCH   9  11
ENDBRANCH   8   9
ENDBRANCH   1   8
TORSDOF 8
