REMARK  Name = 9294
REMARK  4 active torsions:
REMARK  status: ('A' for Active; 'I' for Inactive)
REMARK    1  A    between atoms: C_1  and  C_2
REMARK    2  A    between atoms: C_1  and  O_8
REMARK    3  A    between atoms: C_1  and  C_10
REMARK    4  A    between atoms: C_10  and  N_12
REMARK                            x       y       z     vdW  Elec       q    Type
REMARK                         _______ _______ _______ _____ _____    ______ ____
ROOT
ATOM      1  C   UNL     1      -0.864   0.188  -0.548  0.00  0.00    +0.113 C 
ENDROOT
BRANCH   1   2
ATOM      2  C   UNL     1       0.621   0.164  -0.258  0.00  0.00    +0.002 C 
ATOM      3  C   UNL     1       1.255   1.337   0.113  0.00  0.00    -0.002 C 
ATOM      4  C   UNL     1       1.313  -1.030  -0.370  0.00  0.00    -0.002 C 
ATOM      5  C   UNL     1       2.624   1.315   0.381  0.00  0.00    -0.000 C 
ATOM      6  C   UNL     1       2.681  -1.051  -0.102  0.00  0.00    -0.000 C 
ATOM      7  C   UNL     1       3.337   0.122   0.274  0.00  0.00    -0.000 C 
ENDBRANCH   1   2
BRANCH   1   8
ATOM      8  O   UNL     1      -1.105  -0.806  -1.548  0.00  0.00    -0.382 OA
ATOM      9  H   UNL     1      -2.050  -0.825  -1.765  0.00  0.00    +0.211 HD
ENDBRANCH   1   8
BRANCH   1  10
ATOM     10  C   UNL     1      -1.744  -0.087   0.692  0.00  0.00    -0.030 C 
ATOM     11  C   UNL     1      -1.504  -1.475   1.288  0.00  0.00    -0.021 C 
BRANCH  10  12
ATOM     12  N   UNL     1      -3.161   0.009   0.321  0.00  0.00    +0.385 N 
ATOM     13  C   UNL     1      -3.454   1.315  -0.243  0.00  0.00    -0.105 C 
ATOM     14  H   UNL     1      -3.736  -0.134   1.152  0.00  0.00    -0.084 HD
ATOM     15  H   UNL     1      -3.368  -0.706  -0.377  0.00  0.00    -0.084 HD
ENDBRANCH  10  12
ENDBRANCH   1  10
TORSDOF 4
