REMARK  Name = 1978
REMARK  11 active torsions:
REMARK  status: ('A' for Active; 'I' for Inactive)
REMARK    1  A    between atoms: C_1  and  O_17
REMARK    2  A    between atoms: C_2  and  C_15
REMARK    3  A    between atoms: C_3  and  N_8
REMARK    4  A    between atoms: C_9  and  C_11
REMARK    5  A    between atoms: C_11  and  C_12
REMARK    6  A    between atoms: O_17  and  C_18
REMARK    7  A    between atoms: C_18  and  C_19
REMARK    8  A    between atoms: C_19  and  O_20
REMARK    9  A    between atoms: C_19  and  C_22
REMARK   10  A    between atoms: C_22  and  N_23
REMARK   11  A    between atoms: N_23  and  C_26
REMARK                            x       y       z     vdW  Elec       q    Type
REMARK                         _______ _______ _______ _____ _____    ______ ____
ROOT
ATOM      1  C   UNL     1       0.670   1.081   0.412  0.00  0.00    +0.141 C 
ATOM      2  C   UNL     1       0.239   1.056  -0.914  0.00  0.00    +0.070 C 
ATOM      3  C   UNL     1      -1.980   0.444  -0.181  0.00  0.00    +0.051 C 
ATOM      4  C   UNL     1      -1.086   0.738  -1.211  0.00  0.00    +0.021 C 
ATOM      5  C   UNL     1      -0.223   0.787   1.442  0.00  0.00    +0.038 C 
ATOM      6  C   UNL     1      -1.548   0.469   1.145  0.00  0.00    +0.018 C 
ENDROOT
BRANCH   3   8
ATOM      7  O   UNL     1      -4.258  -0.276   1.636  0.00  0.00    -0.275 OA
ATOM      8  N   UNL     1      -3.325   0.120  -0.481  0.00  0.00    -0.284 N 
ATOM      9  C   UNL     1      -4.342  -0.197   0.415  0.00  0.00    +0.226 C 
ATOM     10  H   UNL     1      -3.569   0.119  -1.435  0.00  0.00    +0.155 HD
BRANCH   9  11
ATOM     11  C   UNL     1      -5.641  -0.481  -0.329  0.00  0.00    +0.085 C 
BRANCH  11  12
ATOM     12  C   UNL     1      -6.812  -0.838   0.585  0.00  0.00    +0.010 C 
ATOM     13  C   UNL     1      -8.093  -1.115  -0.189  0.00  0.00    +0.001 C 
ENDBRANCH  11  12
ENDBRANCH   9  11
ENDBRANCH   3   8
BRANCH   2  15
ATOM     14  O   UNL     1       2.112   2.144  -1.848  0.00  0.00    -0.291 OA
ATOM     15  C   UNL     1       1.156   1.360  -2.004  0.00  0.00    +0.176 C 
ATOM     16  C   UNL     1       0.961   0.718  -3.372  0.00  0.00    +0.077 C 
ENDBRANCH   2  15
BRANCH   1  17
ATOM     17  O   UNL     1       1.962   1.389   0.722  0.00  0.00    -0.473 OA
BRANCH  17  18
ATOM     18  C   UNL     1       2.505   0.794   1.898  0.00  0.00    +0.232 C 
BRANCH  18  19
ATOM     19  C   UNL     1       4.005   0.592   1.701  0.00  0.00    +0.133 C 
BRANCH  19  20
ATOM     20  O   UNL     1       4.606   1.864   1.441  0.00  0.00    -0.383 OA
ATOM     21  H   UNL     1       5.561   1.751   1.313  0.00  0.00    +0.210 HD
ENDBRANCH  19  20
BRANCH  19  22
ATOM     22  C   UNL     1       4.343  -0.343   0.537  0.00  0.00    -0.048 C 
BRANCH  22  23
ATOM     23  N   UNL     1       3.738  -1.658   0.698  0.00  0.00    +0.387 N 
ATOM     24  H   UNL     1       2.728  -1.552   0.788  0.00  0.00    -0.084 HD
ATOM     25  H   UNL     1       4.126  -2.095   1.534  0.00  0.00    -0.084 HD
BRANCH  23  26
ATOM     26  C   UNL     1       4.028  -2.509  -0.448  0.00  0.00    -0.062 C 
ATOM     27  C   UNL     1       3.101  -2.165  -1.610  0.00  0.00    -0.023 C 
ATOM     28  C   UNL     1       3.882  -3.973  -0.044  0.00  0.00    -0.023 C 
ENDBRANCH  23  26
ENDBRANCH  22  23
ENDBRANCH  19  22
ENDBRANCH  18  19
ENDBRANCH  17  18
ENDBRANCH   1  17
TORSDOF 11
