REMARK  Name = 736715
REMARK  3 active torsions:
REMARK  status: ('A' for Active; 'I' for Inactive)
REMARK    1  A    between atoms: C_3  and  C_8
REMARK    2  A    between atoms: C_9  and  C_11
REMARK    3  A    between atoms: C_11  and  O_12
REMARK                            x       y       z     vdW  Elec       q    Type
REMARK                         _______ _______ _______ _____ _____    ______ ____
ROOT
ATOM      1  N   UNL     1      -1.989  -1.102   0.012  0.00  0.00    -0.315 N 
ATOM      2  N   UNL     1      -3.136   0.800  -0.002  0.00  0.00    -0.314 N 
ATOM      3  C   UNL     1      -1.057  -0.103  -0.006  0.00  0.00    +0.061 C 
ATOM      4  C   UNL     1      -1.788   1.061  -0.015  0.00  0.00    +0.074 C 
ATOM      5  C   UNL     1      -3.222  -0.512   0.014  0.00  0.00    +0.182 C 
ATOM      6  H   UNL     1      -1.806  -2.069   0.023  0.00  0.00    +0.148 HD
ATOM      7  H   UNL     1      -3.874   1.451  -0.003  0.00  0.00    +0.148 HD
ENDROOT
BRANCH   3   8
ATOM      8  C   UNL     1       0.305  -0.429  -0.011  0.00  0.00    +0.022 C 
ATOM      9  C   UNL     1       1.374   0.448  -0.004  0.00  0.00    +0.083 C 
BRANCH   9  11
ATOM     10  O   UNL     1       3.145  -1.187  -0.011  0.00  0.00    -0.245 OA
ATOM     11  C   UNL     1       2.773  -0.025   0.001  0.00  0.00    +0.338 C 
BRANCH  11  12
ATOM     12  O   UNL     1       3.595   1.050   0.020  0.00  0.00    -0.477 OA
ATOM     13  H   UNL     1       3.235   1.915   0.029  0.00  0.00    +0.295 HD
ENDBRANCH  11  12
ENDBRANCH   9  11
ENDBRANCH   3   8
TORSDOF 3
