REMARK  Name = 6971294
REMARK  5 active torsions:
REMARK  status: ('A' for Active; 'I' for Inactive)
REMARK    1  A    between atoms: N_2  and  C_10
REMARK    2  A    between atoms: C_5  and  O_8
REMARK    3  A    between atoms: C_10  and  CA_11
REMARK    4  A    between atoms: CA_11  and  N_12
REMARK    5  A    between atoms: CA_11  and  C_18
REMARK                            x       y       z     vdW  Elec       q    Type
REMARK                         _______ _______ _______ _____ _____    ______ ____
ROOT
ATOM      1  O   UNL     1      -3.717  -1.052   0.280  0.00  0.00    -0.283 OA
ATOM      2  N   UNL     1      -0.059   0.396  -0.719  0.00  0.00    -0.284 N 
ATOM      3  C   UNL     1      -0.997   1.201  -0.087  0.00  0.00    +0.106 C 
ATOM      4  C   UNL     1      -0.404  -0.926  -0.966  0.00  0.00    +0.069 C 
ATOM      5  C   UNL     1      -2.224   0.800   0.276  0.00  0.00    +0.188 C 
ATOM      6  C   UNL     1      -1.588  -1.475  -0.665  0.00  0.00    +0.061 C 
ATOM      7  C   UNL     1      -2.611  -0.613  -0.011  0.00  0.00    +0.232 C 
ENDROOT
BRANCH   5   8
ATOM      8  O   UNL     1      -3.119   1.637   0.897  0.00  0.00    -0.502 OA
ATOM      9  H   UNL     1      -2.882   2.525   1.079  0.00  0.00    +0.292 HD
ENDBRANCH   5   8
BRANCH   2  10
ATOM     10  C   UNL     1       1.272   0.900  -1.040  0.00  0.00    +0.085 C 
BRANCH  10  11
ATOM     11  CA  UNL     1       2.260   0.749   0.115  0.00  0.00    +0.061 C 
BRANCH  11  12
ATOM     12  N   UNL     1       3.520   1.468  -0.257  0.00  0.00    +0.390 N 
ATOM     13  H1  UNL     1       3.293   2.411  -0.573  0.00  0.00    -0.088 HD
ATOM     14  H2  UNL     1       3.992   0.963  -1.006  0.00  0.00    -0.088 HD
ATOM     15  H3  UNL     1       4.134   1.521   0.556  0.00  0.00    -0.088 HD
ENDBRANCH  11  12
BRANCH  11  18
ATOM     16  O   UNL     1       2.946  -1.504  -0.251  0.00  0.00    -0.248 OA
ATOM     17  OXT UNL     1       2.215  -0.891   1.821  0.00  0.00    -0.248 OA
ATOM     18  C   UNL     1       2.506  -0.689   0.607  0.00  0.00    +0.346 C 
ENDBRANCH  11  18
ENDBRANCH  10  11
ENDBRANCH   2  10
TORSDOF 5
