REMARK  Name = 3518
REMARK  4 active torsions:
REMARK  status: ('A' for Active; 'I' for Inactive)
REMARK    1  A    between atoms: C_1  and  N_2
REMARK    2  A    between atoms: C_1  and  C_11
REMARK    3  A    between atoms: C_11  and  N_12
REMARK    4  A    between atoms: N_12  and  C_15
REMARK                            x       y       z     vdW  Elec       q    Type
REMARK                         _______ _______ _______ _____ _____    ______ ____
ROOT
ATOM      1  C   UNL     1       0.522   1.200   0.190  0.00  0.00    -0.051 C 
ENDROOT
BRANCH   1   2
ATOM      2  N   UNL     1      -0.829   0.639   0.201  0.00  0.00    +0.388 N 
ATOM      3  C   UNL     1      -1.012  -0.296   1.317  0.00  0.00    -0.077 C 
ATOM      4  C   UNL     1      -1.826   1.714   0.169  0.00  0.00    -0.077 C 
ATOM      5  C   UNL     1      -1.445  -1.677   0.814  0.00  0.00    -0.023 C 
ATOM      6  C   UNL     1      -3.291   1.262   0.142  0.00  0.00    -0.023 C 
ATOM      7  C   UNL     1      -2.826  -1.769   0.154  0.00  0.00    -0.002 C 
ATOM      8  C   UNL     1      -3.682   0.361  -1.030  0.00  0.00    -0.002 C 
ATOM      9  C   UNL     1      -2.962  -0.986  -1.153  0.00  0.00    -0.000 C 
ATOM     10  H   UNL     1      -0.967   0.084  -0.644  0.00  0.00    -0.080 HD
ENDBRANCH   1   2
BRANCH   1  11
ATOM     11  C   UNL     1       1.554   0.095   0.010  0.00  0.00    +0.106 C 
BRANCH  11  12
ATOM     12  N   UNL     1       2.890   0.693  -0.026  0.00  0.00    -0.242 NA
BRANCH  12  15
ATOM     13  N   UNL     1       5.173   0.366  -0.242  0.00  0.00    -0.370 N 
ATOM     14  N   UNL     1       3.848  -1.485  -0.350  0.00  0.00    -0.370 N 
ATOM     15  C   UNL     1       3.887  -0.117  -0.197  0.00  0.00    +0.188 C 
ATOM     16  H   UNL     1       5.340   1.332  -0.144  0.00  0.00    +0.159 HD
ATOM     17  H   UNL     1       5.928  -0.253  -0.371  0.00  0.00    +0.159 HD
ATOM     18  H   UNL     1       2.985  -1.958  -0.337  0.00  0.00    +0.159 HD
ATOM     19  H   UNL     1       4.684  -1.990  -0.473  0.00  0.00    +0.159 HD
ENDBRANCH  12  15
ENDBRANCH  11  12
ENDBRANCH   1  11
TORSDOF 4
