REMARK  Name = 6918986
REMARK  5 active torsions:
REMARK  status: ('A' for Active; 'I' for Inactive)
REMARK    1  A    between atoms: C_1  and  C_3
REMARK    2  A    between atoms: C_1  and  CA_11
REMARK    3  A    between atoms: C_8  and  O_9
REMARK    4  A    between atoms: CA_11  and  N_12
REMARK    5  A    between atoms: CA_11  and  C_18
REMARK                            x       y       z     vdW  Elec       q    Type
REMARK                         _______ _______ _______ _____ _____    ______ ____
ROOT
ATOM      1  C   UNL     1      -1.422   0.950   0.962  0.00  0.00    +0.016 C 
ENDROOT
BRANCH   1   3
ATOM      2  I   UNL     1       2.827  -2.528   0.631  0.00  0.00    -0.039 I 
ATOM      3  C   UNL     1       0.010   0.751   0.525  0.00  0.00    -0.023 C 
ATOM      4  C   UNL     1       0.616  -0.479   0.724  0.00  0.00    +0.004 C 
ATOM      5  C   UNL     1       0.691   1.803  -0.066  0.00  0.00    -0.001 C 
ATOM      6  C   UNL     1       1.938  -0.662   0.320  0.00  0.00    +0.063 C 
ATOM      7  C   UNL     1       2.013   1.620  -0.470  0.00  0.00    +0.037 C 
ATOM      8  C   UNL     1       2.637   0.388  -0.277  0.00  0.00    +0.139 C 
BRANCH   8   9
ATOM      9  O   UNL     1       3.931   0.251  -0.686  0.00  0.00    -0.505 OA
ATOM     10  H   UNL     1       4.375  -0.566  -0.569  0.00  0.00    +0.292 HD
ENDBRANCH   8   9
ENDBRANCH   1   3
BRANCH   1  11
ATOM     11  CA  UNL     1      -2.429   0.602  -0.141  0.00  0.00    +0.045 C 
BRANCH  11  12
ATOM     12  N   UNL     1      -3.785   0.981   0.368  0.00  0.00    +0.389 N 
ATOM     13  H1  UNL     1      -3.789   1.970   0.621  0.00  0.00    -0.088 HD
ATOM     14  H2  UNL     1      -4.009   0.420   1.190  0.00  0.00    -0.088 HD
ATOM     15  H3  UNL     1      -4.480   0.813  -0.359  0.00  0.00    -0.088 HD
ENDBRANCH  11  12
BRANCH  11  18
ATOM     16  O   UNL     1      -2.538  -1.692   0.411  0.00  0.00    -0.248 OA
ATOM     17  OXT UNL     1      -2.133  -1.107  -1.762  0.00  0.00    -0.248 OA
ATOM     18  C   UNL     1      -2.356  -0.879  -0.539  0.00  0.00    +0.345 C 
ENDBRANCH  11  18
ENDBRANCH   1  11
TORSDOF 5
