REMARK  Name = 104838
REMARK  8 active torsions:
REMARK  status: ('A' for Active; 'I' for Inactive)
REMARK    1  A    between atoms: C_4  and  C_13
REMARK    2  A    between atoms: C_7  and  C_10
REMARK    3  A    between atoms: C_8  and  S_17
REMARK    4  A    between atoms: C_10  and  O_11
REMARK    5  A    between atoms: C_13  and  O_15
REMARK    6  A    between atoms: S_17  and  C_18
REMARK    7  A    between atoms: C_18  and  C_19
REMARK    8  A    between atoms: C_19  and  N_20
REMARK                            x       y       z     vdW  Elec       q    Type
REMARK                         _______ _______ _______ _____ _____    ______ ____
ROOT
ATOM      1  O   UNL     1       2.492   1.545   1.440  0.00  0.00    -0.274 OA
ATOM      2  N   UNL     1       1.660   0.647  -0.577  0.00  0.00    -0.254 N 
ATOM      3  C   UNL     1       2.075  -0.722  -0.954  0.00  0.00    +0.096 C 
ATOM      4  C   UNL     1       2.979  -0.694   0.308  0.00  0.00    +0.123 C 
ATOM      5  C   UNL     1       0.760  -1.504  -1.053  0.00  0.00    +0.055 C 
ATOM      6  C   UNL     1       2.415   0.723   0.556  0.00  0.00    +0.233 C 
ATOM      7  C   UNL     1       0.299   0.753  -0.630  0.00  0.00    +0.132 C 
ATOM      8  C   UNL     1      -0.279  -0.420  -0.917  0.00  0.00    +0.025 C 
ENDROOT
BRANCH   7  10
ATOM      9  O   UNL     1      -1.445   2.140   0.199  0.00  0.00    -0.244 OA
ATOM     10  C   UNL     1      -0.351   2.025  -0.333  0.00  0.00    +0.352 C 
BRANCH  10  11
ATOM     11  O   UNL     1       0.437   3.047  -0.733  0.00  0.00    -0.476 OA
ATOM     12  H   UNL     1       1.265   2.871  -1.134  0.00  0.00    +0.295 HD
ENDBRANCH  10  11
ENDBRANCH   7  10
BRANCH   4  13
ATOM     13  C   UNL     1       4.474  -0.748   0.101  0.00  0.00    +0.121 C 
ATOM     14  C   UNL     1       5.220  -0.246   1.333  0.00  0.00    +0.032 C 
BRANCH  13  15
ATOM     15  O   UNL     1       4.868  -2.093  -0.167  0.00  0.00    -0.384 OA
ATOM     16  H   UNL     1       4.397  -2.419  -0.950  0.00  0.00    +0.210 HD
ENDBRANCH  13  15
ENDBRANCH   4  13
BRANCH   8  17
ATOM     17  S   UNL     1      -1.957  -0.748  -1.058  0.00  0.00    -0.114 S 
BRANCH  17  18
ATOM     18  C   UNL     1      -2.339  -1.200   0.651  0.00  0.00    +0.088 C 
BRANCH  18  19
ATOM     19  C   UNL     1      -3.803  -1.589   0.789  0.00  0.00    +0.139 C 
BRANCH  19  20
ATOM     20  N   UNL     1      -4.632  -0.442   0.410  0.00  0.00    -0.253 NA
ATOM     21  N   UNL     1      -6.973   0.164   0.180  0.00  0.00    -0.341 N 
ATOM     22  C   UNL     1      -5.900  -0.639   0.453  0.00  0.00    +0.152 C 
ATOM     23  H   UNL     1      -7.887  -0.187   0.278  0.00  0.00    +0.144 HD
ATOM     24  H   UNL     1      -6.830   1.092  -0.114  0.00  0.00    +0.144 HD
ENDBRANCH  19  20
ENDBRANCH  18  19
ENDBRANCH  17  18
ENDBRANCH   8  17
TORSDOF 8
