REMARK  Name = 5801
REMARK  2 active torsions:
REMARK  status: ('A' for Active; 'I' for Inactive)
REMARK    1  A    between atoms: C_1  and  N_7
REMARK    2  A    between atoms: C_2  and  O_10
REMARK                            x       y       z     vdW  Elec       q    Type
REMARK                         _______ _______ _______ _____ _____    ______ ____
ROOT
ATOM      1  C   UNL     1       0.622   0.682   0.000  0.00  0.00    +0.076 C 
ATOM      2  C   UNL     1       0.593  -0.712   0.000  0.00  0.00    +0.146 C 
ATOM      3  C   UNL     1      -0.571   1.405   0.000  0.00  0.00    +0.017 C 
ATOM      4  C   UNL     1      -0.629  -1.384   0.000  0.00  0.00    +0.038 C 
ATOM      5  C   UNL     1      -1.793   0.733   0.000  0.00  0.00    +0.001 C 
ATOM      6  C   UNL     1      -1.822  -0.662   0.000  0.00  0.00    +0.003 C 
ENDROOT
BRANCH   1   7
ATOM      7  N   UNL     1       1.852   1.375   0.000  0.00  0.00    -0.355 N 
ATOM      8  H   UNL     1       2.700   0.874   0.000  0.00  0.00    +0.142 HD
ATOM      9  H   UNL     1       1.862   2.360   0.001  0.00  0.00    +0.142 HD
ENDBRANCH   1   7
BRANCH   2  10
ATOM     10  O   UNL     1       1.748  -1.437   0.000  0.00  0.00    -0.504 OA
ATOM     11  H   UNL     1       2.576  -0.998   0.000  0.00  0.00    +0.292 HD
ENDBRANCH   2  10
TORSDOF 2
