REMARK  Name = 107526
REMARK  10 active torsions:
REMARK  status: ('A' for Active; 'I' for Inactive)
REMARK    1  A    between atoms: C_1  and  O_2
REMARK    2  A    between atoms: C_1  and  C_4
REMARK    3  A    between atoms: C_1  and  C_12
REMARK    4  A    between atoms: C_4  and  O_5
REMARK    5  A    between atoms: C_4  and  C_7
REMARK    6  A    between atoms: C_7  and  O_8
REMARK    7  A    between atoms: C_7  and  C_11
REMARK    8  A    between atoms: C_12  and  O_13
REMARK    9  A    between atoms: C_12  and  C_15
REMARK   10  A    between atoms: C_15  and  O_16
REMARK                            x       y       z     vdW  Elec       q    Type
REMARK                         _______ _______ _______ _____ _____    ______ ____
ROOT
ATOM      1  C   UNL     1       0.347  -0.092  -0.256  0.00  0.00    +0.169 C 
ENDROOT
BRANCH   1   2
ATOM      2  O   UNL     1      -0.018  -1.352   0.319  0.00  0.00    -0.379 OA
ATOM      3  H   UNL     1      -0.944  -1.547   0.109  0.00  0.00    +0.211 HD
ENDBRANCH   1   2
BRANCH   1   4
ATOM      4  C   UNL     1      -0.645   0.995   0.191  0.00  0.00    +0.174 C 
BRANCH   4   5
ATOM      5  O   UNL     1      -0.439   1.209   1.593  0.00  0.00    -0.379 OA
ATOM      6  H   UNL     1       0.502   1.374   1.760  0.00  0.00    +0.211 HD
ENDBRANCH   4   5
BRANCH   4   7
ATOM      7  C   UNL     1      -2.133   0.733  -0.078  0.00  0.00    +0.205 C 
BRANCH   7   8
ATOM      8  O   UNL     1      -2.314   0.644  -1.487  0.00  0.00    -0.375 OA
ATOM      9  H   UNL     1      -1.991   1.457  -1.907  0.00  0.00    +0.211 HD
ENDBRANCH   7   8
BRANCH   7  11
ATOM     10  O   UNL     1      -3.066  -1.508  -0.114  0.00  0.00    -0.286 OA
ATOM     11  C   UNL     1      -2.650  -0.552   0.534  0.00  0.00    +0.239 C 
ENDBRANCH   7  11
ENDBRANCH   4   7
ENDBRANCH   1   4
BRANCH   1  12
ATOM     12  C   UNL     1       1.817   0.165   0.107  0.00  0.00    +0.169 C 
BRANCH  12  13
ATOM     13  O   UNL     1       2.250   1.331  -0.609  0.00  0.00    -0.379 OA
ATOM     14  H   UNL     1       1.672   2.078  -0.390  0.00  0.00    +0.211 HD
ENDBRANCH  12  13
BRANCH  12  15
ATOM     15  C   UNL     1       2.760  -0.970  -0.277  0.00  0.00    +0.169 C 
BRANCH  15  16
ATOM     16  O   UNL     1       4.091  -0.603   0.077  0.00  0.00    -0.379 OA
ATOM     17  H   UNL     1       4.699  -1.320  -0.164  0.00  0.00    +0.211 HD
ENDBRANCH  15  16
ENDBRANCH  12  15
ENDBRANCH   1  12
TORSDOF 10
