REMARK  Name = 5505
REMARK  5 active torsions:
REMARK  status: ('A' for Active; 'I' for Inactive)
REMARK    1  A    between atoms: S_1  and  C_4
REMARK    2  A    between atoms: S_1  and  N_13
REMARK    3  A    between atoms: N_12  and  C_17
REMARK    4  A    between atoms: C_17  and  C_18
REMARK    5  A    between atoms: C_18  and  C_19
REMARK                            x       y       z     vdW  Elec       q    Type
REMARK                         _______ _______ _______ _____ _____    ______ ____
ROOT
ATOM      1  S   UNL     1       1.078   2.115   0.278  0.00  0.00    +0.077 S 
ATOM      2  O   UNL     1       1.073   2.760  -1.021  0.00  0.00    -0.150 OA
ATOM      3  O   UNL     1       1.701   2.760   1.417  0.00  0.00    -0.150 OA
ENDROOT
BRANCH   1   4
ATOM      4  C   UNL     1       1.846   0.533   0.103  0.00  0.00    +0.125 C 
ATOM      5  C   UNL     1       1.841  -0.087  -1.134  0.00  0.00    +0.020 C 
ATOM      6  C   UNL     1       2.439  -0.057   1.206  0.00  0.00    +0.020 C 
ATOM      7  C   UNL     1       3.049  -1.945  -0.172  0.00  0.00    -0.022 C 
ATOM      8  C   UNL     1       2.447  -1.336  -1.273  0.00  0.00    -0.003 C 
ATOM      9  C   UNL     1       3.045  -1.306   1.068  0.00  0.00    -0.003 C 
ATOM     10  C   UNL     1       3.697  -3.280  -0.320  0.00  0.00    +0.031 C 
ENDBRANCH   1   4
BRANCH   1  13
ATOM     11  O   UNL     1      -1.355   1.256  -1.452  0.00  0.00    -0.251 OA
ATOM     12  N   UNL     1      -2.738   0.967   0.379  0.00  0.00    -0.288 N 
ATOM     13  N   UNL     1      -0.517   1.660   0.691  0.00  0.00    -0.169 N 
ATOM     14  C   UNL     1      -1.540   1.288  -0.239  0.00  0.00    +0.319 C 
ATOM     15  H   UNL     1      -2.788   1.023   1.361  0.00  0.00    +0.151 HD
ATOM     16  H   UNL     1      -0.752   1.654   1.647  0.00  0.00    +0.178 HD
BRANCH  12  17
ATOM     17  C   UNL     1      -3.911   0.557  -0.343  0.00  0.00    +0.091 C 
BRANCH  17  18
ATOM     18  C   UNL     1      -3.975  -0.954  -0.538  0.00  0.00    +0.021 C 
BRANCH  18  19
ATOM     19  C   UNL     1      -4.027  -1.716   0.788  0.00  0.00    +0.002 C 
ATOM     20  C   UNL     1      -4.152  -3.215   0.562  0.00  0.00    +0.000 C 
ENDBRANCH  18  19
ENDBRANCH  17  18
ENDBRANCH  12  17
ENDBRANCH   1  13
TORSDOF 5
