REMARK  Name = 447488
REMARK  5 active torsions:
REMARK  status: ('A' for Active; 'I' for Inactive)
REMARK    1  A    between atoms: C_3  and  C_20
REMARK    2  A    between atoms: C_9  and  C_14
REMARK    3  A    between atoms: C_18  and  O_26
REMARK    4  A    between atoms: C_19  and  O_24
REMARK    5  A    between atoms: O_26  and  C_27
REMARK                            x       y       z     vdW  Elec       q    Type
REMARK                         _______ _______ _______ _____ _____    ______ ____
ROOT
ATOM      1 CL   UNL     1       5.475   2.782   0.461  0.00  0.00    -0.082 Cl
ATOM      2  N   UNL     1       0.838   0.431   0.327  0.00  0.00    -0.312 N 
ATOM      3  C   UNL     1       0.434  -0.852   0.068  0.00  0.00    +0.051 C 
ATOM      4  C   UNL     1       2.686  -0.743  -0.101  0.00  0.00    +0.015 C 
ATOM      5  C   UNL     1       2.208   0.527   0.230  0.00  0.00    +0.049 C 
ATOM      6  C   UNL     1       1.556  -1.602  -0.201  0.00  0.00    +0.016 C 
ATOM      7  C   UNL     1       4.074  -0.924  -0.262  0.00  0.00    +0.005 C 
ATOM      8  C   UNL     1       3.052   1.629   0.409  0.00  0.00    +0.026 C 
ATOM      9  C   UNL     1       4.930   0.169  -0.086  0.00  0.00    +0.041 C 
ATOM     10  C   UNL     1       4.425   1.425   0.244  0.00  0.00    +0.062 C 
ATOM     11  H   UNL     1       0.235   1.177   0.549  0.00  0.00    +0.152 HD
ENDROOT
BRANCH   9  14
ATOM     12  N   UNL     1       6.853  -1.320  -0.587  0.00  0.00    -0.343 N 
ATOM     13  N   UNL     1       7.207   0.938  -0.099  0.00  0.00    -0.285 NA
ATOM     14  C   UNL     1       6.360  -0.061  -0.259  0.00  0.00    +0.118 C 
ATOM     15  H   UNL     1       7.822  -1.455  -0.700  0.00  0.00    +0.144 HD
ATOM     16  H   UNL     1       6.234  -2.075  -0.707  0.00  0.00    +0.144 HD
ATOM     17  H   UNL     1       8.173   0.788  -0.215  0.00  0.00    +0.188 HD
ENDBRANCH   9  14
BRANCH   3  20
ATOM     18  C   UNL     1      -3.300  -0.721  -0.182  0.00  0.00    +0.172 C 
ATOM     19  C   UNL     1      -1.963  -0.327  -0.220  0.00  0.00    +0.169 C 
ATOM     20  C   UNL     1      -0.955  -1.238   0.101  0.00  0.00    +0.050 C 
ATOM     21  C   UNL     1      -3.632  -2.027   0.177  0.00  0.00    +0.040 C 
ATOM     22  C   UNL     1      -1.289  -2.545   0.460  0.00  0.00    +0.004 C 
ATOM     23  C   UNL     1      -2.626  -2.939   0.498  0.00  0.00    +0.003 C 
BRANCH  19  24
ATOM     24  O   UNL     1      -1.654   0.955  -0.574  0.00  0.00    -0.503 OA
ATOM     25  H   UNL     1      -2.337   1.560  -0.788  0.00  0.00    +0.292 HD
ENDBRANCH  19  24
BRANCH  18  26
ATOM     26  O   UNL     1      -4.293   0.158  -0.492  0.00  0.00    -0.476 OA
BRANCH  26  27
ATOM     27  C   UNL     1      -5.256   0.429   0.518  0.00  0.00    +0.166 C 
ATOM     28  C   UNL     1      -6.647   0.116  -0.011  0.00  0.00    +0.044 C 
ATOM     29  C   UNL     1      -5.324   1.923   0.799  0.00  0.00    +0.044 C 
ATOM     30  C   UNL     1      -7.016   1.332  -0.860  0.00  0.00    +0.004 C 
ATOM     31  C   UNL     1      -6.145   2.484  -0.360  0.00  0.00    +0.004 C 
ENDBRANCH  26  27
ENDBRANCH  18  26
ENDBRANCH   3  20
TORSDOF 5
