REMARK  Name = 60977
REMARK  6 active torsions:
REMARK  status: ('A' for Active; 'I' for Inactive)
REMARK    1  A    between atoms: N_1  and  C_18
REMARK    2  A    between atoms: C_2  and  C_8
REMARK    3  A    between atoms: C_2  and  O_14
REMARK    4  A    between atoms: O_14  and  C_16
REMARK    5  A    between atoms: C_18  and  C_19
REMARK    6  A    between atoms: C_19  and  C_20
REMARK                            x       y       z     vdW  Elec       q    Type
REMARK                         _______ _______ _______ _____ _____    ______ ____
ROOT
ATOM      1  N   UNL     1      -0.816   0.851   0.633  0.00  0.00    +0.387 N 
ATOM      2  C   UNL     1       2.145   0.784   0.357  0.00  0.00    +0.150 C 
ATOM      3  C   UNL     1       1.190   1.237  -0.772  0.00  0.00    +0.022 C 
ATOM      4  C   UNL     1       1.403   1.011   1.694  0.00  0.00    +0.022 C 
ATOM      5  C   UNL     1      -0.205   0.606  -0.678  0.00  0.00    -0.073 C 
ATOM      6  C   UNL     1       0.029   0.339   1.720  0.00  0.00    -0.073 C 
ATOM      7  H   UNL     1      -0.903   1.860   0.754  0.00  0.00    -0.080 HD
ENDROOT
BRANCH   2   8
ATOM      8  C   UNL     1       2.732  -0.625   0.240  0.00  0.00    +0.013 C 
ATOM      9  C   UNL     1       2.396  -1.430  -0.847  0.00  0.00    -0.001 C 
ATOM     10  C   UNL     1       3.601  -1.100   1.221  0.00  0.00    -0.001 C 
ATOM     11  C   UNL     1       2.931  -2.714  -0.954  0.00  0.00    -0.000 C 
ATOM     12  C   UNL     1       4.135  -2.385   1.115  0.00  0.00    -0.000 C 
ATOM     13  C   UNL     1       3.800  -3.191   0.027  0.00  0.00    -0.000 C 
ENDBRANCH   2   8
BRANCH   2  14
ATOM     14  O   UNL     1       3.260   1.692   0.338  0.00  0.00    -0.452 OA
BRANCH  14  16
ATOM     15  O   UNL     1       3.870   0.920  -1.752  0.00  0.00    -0.250 OA
ATOM     16  C   UNL     1       4.037   1.649  -0.784  0.00  0.00    +0.318 C 
ATOM     17  C   UNL     1       5.153   2.643  -0.665  0.00  0.00    +0.121 C 
ENDBRANCH  14  16
ENDBRANCH   2  14
BRANCH   1  18
ATOM     18  C   UNL     1      -2.151   0.257   0.697  0.00  0.00    -0.073 C 
BRANCH  18  19
ATOM     19  C   UNL     1      -3.080   0.886  -0.342  0.00  0.00    +0.004 C 
BRANCH  19  20
ATOM     20  C   UNL     1      -4.467   0.299  -0.272  0.00  0.00    -0.024 C 
ATOM     21  C   UNL     1      -4.775  -0.814  -1.039  0.00  0.00    -0.004 C 
ATOM     22  C   UNL     1      -5.413   0.882   0.559  0.00  0.00    -0.004 C 
ATOM     23  C   UNL     1      -6.059  -1.357  -0.975  0.00  0.00    -0.000 C 
ATOM     24  C   UNL     1      -6.696   0.339   0.623  0.00  0.00    -0.000 C 
ATOM     25  C   UNL     1      -7.019  -0.780  -0.143  0.00  0.00    -0.000 C 
ENDBRANCH  19  20
ENDBRANCH  18  19
ENDBRANCH   1  18
TORSDOF 6
