REMARK  Name = 17754112
REMARK  5 active torsions:
REMARK  status: ('A' for Active; 'I' for Inactive)
REMARK    1  A    between atoms: C_1  and  C_9
REMARK    2  A    between atoms: C_2  and  O_7
REMARK    3  A    between atoms: C_9  and  C_10
REMARK    4  A    between atoms: C_10  and  C_13
REMARK    5  A    between atoms: C_13  and  O_14
REMARK                            x       y       z     vdW  Elec       q    Type
REMARK                         _______ _______ _______ _____ _____    ______ ____
ROOT
ATOM      1  C   UNL     1       0.649  -0.177   0.488  0.00  0.00    +0.012 C 
ATOM      2  C   UNL     1       1.620  -0.990  -0.097  0.00  0.00    +0.130 C 
ATOM      3  C   UNL     1       0.900   1.182   0.679  0.00  0.00    -0.001 C 
ATOM      4  C   UNL     1       2.842  -0.443  -0.491  0.00  0.00    +0.036 C 
ATOM      5  C   UNL     1       2.121   1.728   0.285  0.00  0.00    -0.000 C 
ATOM      6  C   UNL     1       3.092   0.916  -0.300  0.00  0.00    +0.003 C 
ENDROOT
BRANCH   2   7
ATOM      7  O   UNL     1       1.392  -2.319  -0.290  0.00  0.00    -0.506 OA
ATOM      8  H   UNL     1       0.576  -2.697  -0.029  0.00  0.00    +0.292 HD
ENDBRANCH   2   7
BRANCH   1   9
ATOM      9  C   UNL     1      -0.677  -0.750   0.921  0.00  0.00    +0.040 C 
BRANCH   9  10
ATOM     10  C   UNL     1      -1.754  -0.707  -0.175  0.00  0.00    +0.103 C 
ATOM     11  C   UNL     1      -2.890  -1.700   0.084  0.00  0.00    +0.012 C 
BRANCH  10  13
ATOM     12  O   UNL     1      -2.863   1.301   0.652  0.00  0.00    -0.250 OA
ATOM     13  C   UNL     1      -2.313   0.704  -0.265  0.00  0.00    +0.314 C 
BRANCH  13  14
ATOM     14  O   UNL     1      -2.120   1.254  -1.492  0.00  0.00    -0.480 OA
ATOM     15  H   UNL     1      -1.693   0.761  -2.165  0.00  0.00    +0.295 HD
ENDBRANCH  13  14
ENDBRANCH  10  13
ENDBRANCH   9  10
ENDBRANCH   1   9
TORSDOF 5
