REMARK  Name = 3102
REMARK  2 active torsions:
REMARK  status: ('A' for Active; 'I' for Inactive)
REMARK    1  A    between atoms: C_2  and  C_3
REMARK    2  A    between atoms: C_2  and  C_9
REMARK                            x       y       z     vdW  Elec       q    Type
REMARK                         _______ _______ _______ _____ _____    ______ ____
ROOT
ATOM      1  O   UNL     1       0.029  -2.329   0.000  0.00  0.00    -0.287 OA
ATOM      2  C   UNL     1      -0.004  -1.089   0.000  0.00  0.00    +0.196 C 
ENDROOT
BRANCH   2   3
ATOM      3  C   UNL     1      -1.279  -0.390   0.000  0.00  0.00    +0.039 C 
ATOM      4  C   UNL     1      -1.310   1.005   0.000  0.00  0.00    +0.003 C 
ATOM      5  C   UNL     1      -2.471  -1.114   0.000  0.00  0.00    +0.003 C 
ATOM      6  C   UNL     1      -2.533   1.675   0.000  0.00  0.00    +0.000 C 
ATOM      7  C   UNL     1      -3.694  -0.443   0.000  0.00  0.00    +0.000 C 
ATOM      8  C   UNL     1      -3.725   0.951   0.000  0.00  0.00    +0.000 C 
ENDBRANCH   2   3
BRANCH   2   9
ATOM      9  C   UNL     1       1.305  -0.368   0.000  0.00  0.00    +0.039 C 
ATOM     10  C   UNL     1       1.298   1.007   0.000  0.00  0.00    +0.003 C 
ATOM     11  C   UNL     1       2.463  -1.109   0.000  0.00  0.00    +0.003 C 
ATOM     12  C   UNL     1       2.520   1.680   0.000  0.00  0.00    +0.000 C 
ATOM     13  C   UNL     1       3.685  -0.436   0.001  0.00  0.00    +0.000 C 
ATOM     14  C   UNL     1       3.714   0.958   0.000  0.00  0.00    +0.000 C 
ENDBRANCH   2   9
TORSDOF 2
