REMARK  Name = 22308
REMARK  9 active torsions:
REMARK  status: ('A' for Active; 'I' for Inactive)
REMARK    1  A    between atoms: C_1  and  C_2
REMARK    2  A    between atoms: C_1  and  C_8
REMARK    3  A    between atoms: C_1  and  C_14
REMARK    4  A    between atoms: C_1  and  C_21
REMARK    5  A    between atoms: C_14  and  C_15
REMARK    6  A    between atoms: C_15  and  N_17
REMARK    7  A    between atoms: C_21  and  C_22
REMARK    8  A    between atoms: C_21  and  O_24
REMARK    9  A    between atoms: O_24  and  C_26
REMARK                            x       y       z     vdW  Elec       q    Type
REMARK                         _______ _______ _______ _____ _____    ______ ____
ROOT
ATOM      1  C   UNL     1      -0.035  -0.102  -0.320  0.00  0.00    +0.073 C 
ENDROOT
BRANCH   1   2
ATOM      2  C   UNL     1      -0.493   1.379  -0.506  0.00  0.00    -0.016 C 
ATOM      3  C   UNL     1      -0.781   1.792  -1.770  0.00  0.00    -0.004 C 
ATOM      4  C   UNL     1      -0.574   2.155   0.609  0.00  0.00    -0.004 C 
ATOM      5  C   UNL     1      -1.190   3.115  -1.937  0.00  0.00    -0.000 C 
ATOM      6  C   UNL     1      -0.983   3.479   0.443  0.00  0.00    -0.000 C 
ATOM      7  C   UNL     1      -1.292   3.959  -0.830  0.00  0.00    -0.000 C 
ENDBRANCH   1   2
BRANCH   1   8
ATOM      8  C   UNL     1       1.265  -0.430  -1.114  0.00  0.00    -0.016 C 
ATOM      9  C   UNL     1       2.384   0.287  -0.815  0.00  0.00    -0.004 C 
ATOM     10  C   UNL     1       1.198  -1.412  -2.056  0.00  0.00    -0.004 C 
ATOM     11  C   UNL     1       3.548  -0.005  -1.525  0.00  0.00    -0.000 C 
ATOM     12  C   UNL     1       2.362  -1.705  -2.767  0.00  0.00    -0.000 C 
ATOM     13  C   UNL     1       3.537  -1.002  -2.501  0.00  0.00    -0.000 C 
ENDBRANCH   1   8
BRANCH   1  14
ATOM     14  C   UNL     1      -1.272  -1.014  -0.719  0.00  0.00    -0.009 C 
BRANCH  14  15
ATOM     15  C   UNL     1      -2.565  -0.926   0.133  0.00  0.00    -0.058 C 
ATOM     16  C   UNL     1      -3.185   0.470   0.014  0.00  0.00    -0.023 C 
BRANCH  15  17
ATOM     17  N   UNL     1      -3.561  -1.908  -0.301  0.00  0.00    +0.385 N 
ATOM     18  C   UNL     1      -4.755  -1.827   0.539  0.00  0.00    -0.101 C 
ATOM     19  C   UNL     1      -2.998  -3.256  -0.263  0.00  0.00    -0.101 C 
ATOM     20  H   UNL     1      -3.829  -1.697  -1.262  0.00  0.00    -0.080 HD
ENDBRANCH  15  17
ENDBRANCH  14  15
ENDBRANCH   1  14
BRANCH   1  21
ATOM     21  C   UNL     1       0.266  -0.425   1.219  0.00  0.00    +0.176 C 
BRANCH  21  22
ATOM     22  C   UNL     1       0.722  -1.866   1.538  0.00  0.00    +0.044 C 
ATOM     23  C   UNL     1       2.003  -2.237   0.796  0.00  0.00    +0.004 C 
ENDBRANCH  21  22
BRANCH  21  24
ATOM     24  O   UNL     1       1.228   0.489   1.758  0.00  0.00    -0.452 OA
BRANCH  24  26
ATOM     25  O   UNL     1       0.744  -0.091   3.941  0.00  0.00    -0.250 OA
ATOM     26  C   UNL     1       1.507   0.329   3.083  0.00  0.00    +0.317 C 
ATOM     27  C   UNL     1       2.920   0.752   3.351  0.00  0.00    +0.121 C 
ENDBRANCH  24  26
ENDBRANCH  21  24
ENDBRANCH   1  21
TORSDOF 9
