REMARK  Name = 4054
REMARK  1 active torsions:
REMARK  status: ('A' for Active; 'I' for Inactive)
REMARK    1  A    between atoms: C_3  and  N_13
REMARK                            x       y       z     vdW  Elec       q    Type
REMARK                         _______ _______ _______ _____ _____    ______ ____
ROOT
ATOM      1  C   UNL     1      -1.318  -0.650  -0.273  0.00  0.00    -0.002 C 
ATOM      2  C   UNL     1       1.223  -0.813  -0.271  0.00  0.00    -0.002 C 
ATOM      3  C   UNL     1       0.093   1.460  -0.303  0.00  0.00    -0.049 C 
ATOM      4  C   UNL     1       0.000   0.035   1.777  0.00  0.00    -0.002 C 
ATOM      5  C   UNL     1      -0.093  -1.454  -0.768  0.00  0.00    -0.000 C 
ATOM      6  C   UNL     1      -1.209   0.799  -0.804  0.00  0.00    -0.020 C 
ATOM      7  C   UNL     1       1.301   0.637  -0.802  0.00  0.00    -0.020 C 
ATOM      8  C   UNL     1      -1.298  -0.616   1.272  0.00  0.00    -0.000 C 
ATOM      9  C   UNL     1       1.205  -0.776   1.274  0.00  0.00    -0.000 C 
ATOM     10  C   UNL     1       0.092   1.472   1.239  0.00  0.00    -0.020 C 
ATOM     11  C   UNL     1      -2.614  -1.300  -0.770  0.00  0.00    -0.000 C 
ATOM     12  C   UNL     1       2.426  -1.623  -0.766  0.00  0.00    -0.000 C 
ENDROOT
BRANCH   3  13
ATOM     13  N   UNL     1       0.192   2.830  -0.804  0.00  0.00    +0.383 N 
ATOM     14  H   UNL     1       0.192   2.821  -1.824  0.00  0.00    -0.089 HD
ATOM     15  H   UNL     1       1.057   3.254  -0.468  0.00  0.00    -0.089 HD
ATOM     16  H   UNL     1      -0.604   3.373  -0.469  0.00  0.00    -0.089 HD
ENDBRANCH   3  13
TORSDOF 1
