REMARK  Name = 8063
REMARK  3 active torsions:
REMARK  status: ('A' for Active; 'I' for Inactive)
REMARK    1  A    between atoms: C_1  and  C_2
REMARK    2  A    between atoms: C_1  and  C_4
REMARK    3  A    between atoms: C_4  and  C_6
REMARK                            x       y       z     vdW  Elec       q    Type
REMARK                         _______ _______ _______ _____ _____    ______ ____
ROOT
ATOM      1  C   UNL     1      -0.406   0.165   0.034  0.00  0.00    +0.008 C 
ENDROOT
BRANCH   1   2
ATOM      2  C   UNL     1      -1.793  -0.473  -0.008  0.00  0.00    +0.000 C 
ATOM      3  C   UNL     1      -2.891   0.579  -0.010  0.00  0.00    +0.000 C 
ENDBRANCH   1   2
BRANCH   1   4
ATOM      4  C   UNL     1       0.693  -0.892  -0.004  0.00  0.00    +0.072 C 
BRANCH   4   6
ATOM      5  O   UNL     1       2.318   0.912  -0.009  0.00  0.00    -0.288 OA
ATOM      6  C   UNL     1       2.078  -0.291  -0.003  0.00  0.00    +0.207 C 
ENDBRANCH   4   6
ENDBRANCH   1   4
TORSDOF 3
