REMARK  Name = 446862
REMARK  11 active torsions:
REMARK  status: ('A' for Active; 'I' for Inactive)
REMARK    1  A    between atoms: C_2  and  C_10
REMARK    2  A    between atoms: C_3  and  C_20
REMARK    3  A    between atoms: C_4  and  O_8
REMARK    4  A    between atoms: C_10  and  N_11
REMARK    5  A    between atoms: N_11  and  CA_14
REMARK    6  A    between atoms: CA_14  and  C_17
REMARK    7  A    between atoms: C_17  and  O_18
REMARK    8  A    between atoms: C_20  and  O_21
REMARK    9  A    between atoms: O_21  and  P_22
REMARK   10  A    between atoms: P_22  and  O_24
REMARK   11  A    between atoms: P_22  and  O_26
REMARK                            x       y       z     vdW  Elec       q    Type
REMARK                         _______ _______ _______ _____ _____    ______ ____
ROOT
ATOM      1  N   UNL     1      -3.276   1.756   0.547  0.00  0.00    -0.245 NA
ATOM      2  C   UNL     1      -1.374  -0.154  -0.153  0.00  0.00    -0.009 C 
ATOM      3  C   UNL     1      -0.976   1.016   0.472  0.00  0.00    +0.024 C 
ATOM      4  C   UNL     1      -2.712  -0.382  -0.432  0.00  0.00    +0.141 C 
ATOM      5  C   UNL     1      -3.619   0.599  -0.064  0.00  0.00    +0.092 C 
ATOM      6  C   UNL     1      -1.960   1.934   0.800  0.00  0.00    +0.096 C 
ATOM      7  C   UNL     1      -5.075   0.414  -0.339  0.00  0.00    +0.055 C 
ENDROOT
BRANCH   4   8
ATOM      8  O   UNL     1      -3.122  -1.522  -1.046  0.00  0.00    -0.505 OA
ATOM      9  H   UNL     1      -2.496  -2.176  -1.288  0.00  0.00    +0.292 HD
ENDBRANCH   4   8
BRANCH   2  10
ATOM     10  C   ACE A   0      -0.349  -1.189  -0.533  0.00  0.00    -0.051 C 
BRANCH  10  11
ATOM     11  N   UNL     1      -0.130  -2.153   0.535  0.00  0.00    +0.395 N 
ATOM     12  H1  UNL     1      -1.009  -2.629   0.740  0.00  0.00    -0.083 HD
ATOM     13  H2  UNL     1       0.206  -1.657   1.360  0.00  0.00    -0.083 HD
BRANCH  11  14
ATOM     14  CA  UNL     1       0.871  -3.143   0.143  0.00  0.00    +0.040 C 
ATOM     15  CB  UNL     1       1.071  -4.146   1.270  0.00  0.00    -0.012 C 
BRANCH  14  17
ATOM     16  OXT UNL     1       2.819  -1.744   0.622  0.00  0.00    -0.253 OA
ATOM     17  C   UNL     1       2.161  -2.412  -0.162  0.00  0.00    +0.293 C 
BRANCH  17  18
ATOM     18  O   UNL     1       2.519  -2.605  -1.459  0.00  0.00    -0.482 OA
ATOM     19  H   UNL     1       1.980  -3.126  -2.021  0.00  0.00    +0.295 HD
ENDBRANCH  17  18
ENDBRANCH  14  17
ENDBRANCH  11  14
ENDBRANCH  10  11
ENDBRANCH   2  10
BRANCH   3  20
ATOM     20  C   UNL     1       0.450   1.304   0.793  0.00  0.00    +0.181 C 
BRANCH  20  21
ATOM     21  O   UNL     1       1.054   1.984  -0.301  0.00  0.00    -0.268 OA
BRANCH  21  22
ATOM     22  P   UNL     1       2.611   2.401  -0.179  0.00  0.00    +0.473 P 
ATOM     23  O   UNL     1       3.562   1.258   0.023  0.00  0.00    -0.227 OA
BRANCH  22  24
ATOM     24  O   UNL     1       2.619   3.521   0.988  0.00  0.00    -0.303 OA
ATOM     25  H   UNL     1       1.977   4.216   0.774  0.00  0.00    +0.222 HD
ENDBRANCH  22  24
BRANCH  22  26
ATOM     26  O   UNL     1       2.855   3.264  -1.524  0.00  0.00    -0.303 OA
ATOM     27  H   UNL     1       2.200   3.978  -1.574  0.00  0.00    +0.222 HD
ENDBRANCH  22  26
ENDBRANCH  21  22
ENDBRANCH  20  21
ENDBRANCH   3  20
TORSDOF 11
