REMARK  Name = 72281
REMARK  5 active torsions:
REMARK  status: ('A' for Active; 'I' for Inactive)
REMARK    1  A    between atoms: C_3  and  C_12
REMARK    2  A    between atoms: C_8  and  O_22
REMARK    3  A    between atoms: C_11  and  O_24
REMARK    4  A    between atoms: C_15  and  O_20
REMARK    5  A    between atoms: C_17  and  O_18
REMARK                            x       y       z     vdW  Elec       q    Type
REMARK                         _______ _______ _______ _____ _____    ______ ____
ROOT
ATOM      1  O   UNL     1       0.514  -0.717  -0.042  0.00  0.00    -0.474 OA
ATOM      2  O   UNL     1       2.436   2.908  -0.096  0.00  0.00    -0.291 OA
ATOM      3  C   UNL     1      -0.107   0.452   0.515  0.00  0.00    +0.196 C 
ATOM      4  C   UNL     1       0.357   1.716  -0.206  0.00  0.00    +0.117 C 
ATOM      5  C   UNL     1       2.596   0.553  -0.026  0.00  0.00    +0.103 C 
ATOM      6  C   UNL     1       1.854   1.829  -0.086  0.00  0.00    +0.183 C 
ATOM      7  C   UNL     1       1.883  -0.650  -0.030  0.00  0.00    +0.148 C 
ATOM      8  C   UNL     1       3.993   0.545  -0.010  0.00  0.00    +0.142 C 
ATOM      9  C   UNL     1       2.571  -1.864  -0.052  0.00  0.00    +0.074 C 
ATOM     10  C   UNL     1       4.675  -0.672  -0.011  0.00  0.00    +0.073 C 
ATOM     11  C   UNL     1       3.966  -1.874  -0.037  0.00  0.00    +0.140 C 
ENDROOT
BRANCH   3  12
ATOM     12  C   UNL     1      -1.610   0.288   0.417  0.00  0.00    +0.021 C 
ATOM     13  C   UNL     1      -2.221   0.199  -0.833  0.00  0.00    +0.039 C 
ATOM     14  C   UNL     1      -2.381   0.228   1.577  0.00  0.00    +0.003 C 
ATOM     15  C   UNL     1      -3.605   0.049  -0.923  0.00  0.00    +0.168 C 
ATOM     16  C   UNL     1      -3.765   0.078   1.487  0.00  0.00    +0.040 C 
ATOM     17  C   UNL     1      -4.377  -0.011   0.237  0.00  0.00    +0.172 C 
BRANCH  17  18
ATOM     18  O   UNL     1      -5.729  -0.158   0.162  0.00  0.00    -0.468 OA
ATOM     19  C   UNL     1      -6.236  -1.491   0.151  0.00  0.00    +0.253 C 
ENDBRANCH  17  18
BRANCH  15  20
ATOM     20  O   UNL     1      -4.191  -0.039  -2.150  0.00  0.00    -0.503 OA
ATOM     21  H   UNL     1      -3.665   0.003  -2.924  0.00  0.00    +0.292 HD
ENDBRANCH  15  20
ENDBRANCH   3  12
BRANCH   8  22
ATOM     22  O   UNL     1       4.735   1.688  -0.001  0.00  0.00    -0.505 OA
ATOM     23  H   UNL     1       4.310   2.523   0.000  0.00  0.00    +0.292 HD
ENDBRANCH   8  22
BRANCH  11  24
ATOM     24  O   UNL     1       4.637  -3.058  -0.046  0.00  0.00    -0.505 OA
ATOM     25  H   UNL     1       4.162  -3.866  -0.064  0.00  0.00    +0.292 HD
ENDBRANCH  11  24
TORSDOF 5
