REMARK  Name = 6714002
REMARK  10 active torsions:
REMARK  status: ('A' for Active; 'I' for Inactive)
REMARK    1  A    between atoms: C_6  and  C_24
REMARK    2  A    between atoms: C_6  and  O_31
REMARK    3  A    between atoms: C_9  and  O_21
REMARK    4  A    between atoms: C_24  and  C_25
REMARK    5  A    between atoms: C_25  and  O_26
REMARK    6  A    between atoms: O_26  and  C_28
REMARK    7  A    between atoms: C_28  and  C_29
REMARK    8  A    between atoms: O_31  and  C_33
REMARK    9  A    between atoms: C_33  and  O_34
REMARK   10  A    between atoms: O_34  and  C_35
REMARK                            x       y       z     vdW  Elec       q    Type
REMARK                         _______ _______ _______ _____ _____    ______ ____
ROOT
ATOM      1  O   UNL     1       7.029  -0.281   2.689  0.00  0.00    -0.287 OA
ATOM      2  C   UNL     1      -0.269   0.168  -1.078  0.00  0.00    +0.043 C 
ATOM      3  C   UNL     1       0.800  -0.942  -1.184  0.00  0.00    +0.004 C 
ATOM      4  C   UNL     1       2.234  -0.405  -1.299  0.00  0.00    +0.003 C 
ATOM      5  C   UNL     1       2.558   0.445  -0.019  0.00  0.00    +0.034 C 
ATOM      6  C   UNL     1      -1.548  -0.713  -1.047  0.00  0.00    +0.193 C 
ATOM      7  C   UNL     1       0.028   0.977   0.200  0.00  0.00    +0.033 C 
ATOM      8  C   UNL     1       0.261  -1.849  -2.287  0.00  0.00    +0.004 C 
ATOM      9  C   UNL     1       1.469   1.532   0.248  0.00  0.00    +0.111 C 
ATOM     10  C   UNL     1       4.057   0.946   0.001  0.00  0.00    +0.036 C 
ATOM     11  C   UNL     1      -1.268  -1.825  -2.084  0.00  0.00    +0.048 C 
ATOM     12  C   UNL     1       3.232  -1.566  -1.463  0.00  0.00    +0.004 C 
ATOM     13  C   UNL     1      -0.311   1.100  -2.321  0.00  0.00    +0.004 C 
ATOM     14  C   UNL     1       4.679  -1.092  -1.451  0.00  0.00    +0.022 C 
ATOM     15  C   UNL     1       4.952  -0.281  -0.210  0.00  0.00    -0.038 C 
ATOM     16  C   UNL     1       4.391   1.978  -1.100  0.00  0.00    +0.009 C 
ATOM     17  C   UNL     1       4.361   1.627   1.327  0.00  0.00    -0.020 C 
ATOM     18  C   UNL     1       5.900  -0.671   0.657  0.00  0.00    +0.034 C 
ATOM     19  C   UNL     1       5.302   1.243   2.195  0.00  0.00    +0.038 C 
ATOM     20  C   UNL     1       6.149   0.070   1.910  0.00  0.00    +0.195 C 
ENDROOT
BRANCH   9  21
ATOM     21  O   UNL     1       1.591   2.619  -0.659  0.00  0.00    -0.384 OA
ATOM     22  H   UNL     1       2.496   2.966  -0.627  0.00  0.00    +0.210 HD
ENDBRANCH   9  21
BRANCH   6  24
ATOM     23  O   UNL     1      -3.542  -0.256  -2.268  0.00  0.00    -0.288 OA
ATOM     24  C   UNL     1      -2.824   0.028  -1.310  0.00  0.00    +0.230 C 
BRANCH  24  25
ATOM     25  C   UNL     1      -3.170   1.135  -0.337  0.00  0.00    +0.276 C 
BRANCH  25  26
ATOM     26  O   UNL     1      -4.570   1.275  -0.218  0.00  0.00    -0.440 OA
BRANCH  26  28
ATOM     27  O   UNL     1      -4.291   2.993   1.296  0.00  0.00    -0.250 OA
ATOM     28  C   UNL     1      -5.011   2.253   0.641  0.00  0.00    +0.317 C 
BRANCH  28  29
ATOM     29  C   UNL     1      -6.522   2.274   0.652  0.00  0.00    +0.110 C 
ATOM     30  C   UNL     1      -7.073   3.324   1.601  0.00  0.00    +0.012 C 
ENDBRANCH  28  29
ENDBRANCH  26  28
ENDBRANCH  25  26
ENDBRANCH  24  25
ENDBRANCH   6  24
BRANCH   6  31
ATOM     31  O   UNL     1      -1.739  -1.301   0.236  0.00  0.00    -0.418 OA
BRANCH  31  33
ATOM     32  O   UNL     1      -3.562  -2.469  -0.557  0.00  0.00    -0.203 OA
ATOM     33  C   UNL     1      -2.790  -2.167   0.343  0.00  0.00    +0.512 C 
BRANCH  33  34
ATOM     34  O   UNL     1      -2.830  -2.633   1.623  0.00  0.00    -0.418 OA
BRANCH  34  35
ATOM     35  C   UNL     1      -3.883  -3.559   1.910  0.00  0.00    +0.212 C 
ATOM     36  C   UNL     1      -3.789  -3.978   3.362  0.00  0.00    +0.051 C 
ENDBRANCH  34  35
ENDBRANCH  33  34
ENDBRANCH  31  33
ENDBRANCH   6  31
TORSDOF 10
