REMARK  Name = 62278
REMARK  7 active torsions:
REMARK  status: ('A' for Active; 'I' for Inactive)
REMARK    1  A    between atoms: N_1  and  C_19
REMARK    2  A    between atoms: C_2  and  N_9
REMARK    3  A    between atoms: N_9  and  C_11
REMARK    4  A    between atoms: C_10  and  C_17
REMARK    5  A    between atoms: C_19  and  C_20
REMARK    6  A    between atoms: C_20  and  C_21
REMARK    7  A    between atoms: C_20  and  O_27
REMARK                            x       y       z     vdW  Elec       q    Type
REMARK                         _______ _______ _______ _____ _____    ______ ____
ROOT
ATOM      1  N   UNL     1       1.163  -0.189  -0.514  0.00  0.00    +0.389 N 
ATOM      2  C   UNL     1      -1.611  -1.067  -0.200  0.00  0.00    +0.076 C 
ATOM      3  C   UNL     1      -1.079  -0.499  -1.515  0.00  0.00    -0.003 C 
ATOM      4  C   UNL     1      -0.781  -0.545   0.974  0.00  0.00    -0.003 C 
ATOM      5  C   UNL     1       0.425  -0.743  -1.658  0.00  0.00    -0.076 C 
ATOM      6  C   UNL     1       0.713  -0.789   0.749  0.00  0.00    -0.076 C 
ATOM      7  H   UNL     1       0.972   0.812  -0.473  0.00  0.00    -0.080 HD
ENDROOT
BRANCH   2   9
ATOM      8  O   UNL     1      -3.850  -2.963   0.027  0.00  0.00    -0.275 OA
ATOM      9  N   UNL     1      -3.006  -0.748  -0.030  0.00  0.00    -0.260 N 
ATOM     10  C   UNL     1      -4.026  -1.742   0.071  0.00  0.00    +0.229 C 
BRANCH   9  11
ATOM     11  C   UNL     1      -3.396   0.658   0.042  0.00  0.00    +0.054 C 
ATOM     12  C   UNL     1      -3.424   1.244   1.273  0.00  0.00    +0.015 C 
ATOM     13  C   UNL     1      -3.707   1.288  -1.126  0.00  0.00    +0.015 C 
ATOM     14  C   UNL     1      -3.797   2.586   1.341  0.00  0.00    +0.001 C 
ATOM     15  C   UNL     1      -4.080   2.630  -1.058  0.00  0.00    +0.001 C 
ATOM     16  C   UNL     1      -4.125   3.279   0.176  0.00  0.00    +0.000 C 
ENDBRANCH   9  11
BRANCH  10  17
ATOM     17  C   UNL     1      -5.446  -1.198   0.199  0.00  0.00    +0.086 C 
ATOM     18  C   UNL     1      -6.490  -2.298   0.318  0.00  0.00    +0.010 C 
ENDBRANCH  10  17
ENDBRANCH   2   9
BRANCH   1  19
ATOM     19  C   UNL     1       2.601  -0.386  -0.691  0.00  0.00    -0.043 C 
BRANCH  19  20
ATOM     20  C   UNL     1       3.387   0.289   0.440  0.00  0.00    +0.112 C 
BRANCH  20  21
ATOM     21  C   UNL     1       4.878   0.094   0.273  0.00  0.00    +0.002 C 
ATOM     22  C   UNL     1       5.484  -1.010   0.847  0.00  0.00    -0.002 C 
ATOM     23  C   UNL     1       5.604   1.024  -0.451  0.00  0.00    -0.002 C 
ATOM     24  C   UNL     1       6.859  -1.189   0.693  0.00  0.00    -0.000 C 
ATOM     25  C   UNL     1       6.978   0.845  -0.606  0.00  0.00    -0.000 C 
ATOM     26  C   UNL     1       7.606  -0.262  -0.034  0.00  0.00    -0.000 C 
ENDBRANCH  20  21
BRANCH  20  27
ATOM     27  O   UNL     1       3.120   1.691   0.459  0.00  0.00    -0.382 OA
ATOM     28  H   UNL     1       2.167   1.837   0.566  0.00  0.00    +0.211 HD
ENDBRANCH  20  27
ENDBRANCH  19  20
ENDBRANCH   1  19
TORSDOF 7
