REMARK  Name = 151166
REMARK  5 active torsions:
REMARK  status: ('A' for Active; 'I' for Inactive)
REMARK    1  A    between atoms: C_1  and  C_18
REMARK    2  A    between atoms: C_2  and  N_8
REMARK    3  A    between atoms: N_8  and  C_12
REMARK    4  A    between atoms: C_18  and  C_20
REMARK    5  A    between atoms: C_20  and  O_21
REMARK                            x       y       z     vdW  Elec       q    Type
REMARK                         _______ _______ _______ _____ _____    ______ ____
ROOT
ATOM      1  C   UNL     1      -1.834  -0.078  -0.441  0.00  0.00    +0.002 C 
ATOM      2  C   UNL     1      -0.631   0.357   0.116  0.00  0.00    +0.045 C 
ATOM      3  C   UNL     1      -2.973   0.721  -0.353  0.00  0.00    -0.007 C 
ATOM      4  C   UNL     1      -2.911   1.956   0.293  0.00  0.00    -0.022 C 
ATOM      5  C   UNL     1      -0.569   1.592   0.762  0.00  0.00    +0.014 C 
ATOM      6  C   UNL     1      -1.708   2.391   0.850  0.00  0.00    -0.003 C 
ATOM      7  C   UNL     1      -4.129   2.811   0.388  0.00  0.00    +0.031 C 
ENDROOT
BRANCH   2   8
ATOM      8  N   UNL     1       0.532  -0.439   0.036  0.00  0.00    -0.310 N 
ATOM      9  H   UNL     1       0.350  -1.406   0.015  0.00  0.00    +0.152 HD
BRANCH   8  12
ATOM     10 CL   UNL     1       2.438  -2.478   1.246  0.00  0.00    -0.081 Cl
ATOM     11  F   UNL     1       1.377   1.920  -1.119  0.00  0.00    -0.203 F 
ATOM     12  C   UNL     1       1.902  -0.120  -0.019  0.00  0.00    +0.087 C 
ATOM     13  C   UNL     1       2.872  -0.979   0.504  0.00  0.00    +0.073 C 
ATOM     14  C   UNL     1       2.294   1.084  -0.612  0.00  0.00    +0.154 C 
ATOM     15  C   UNL     1       4.223  -0.638   0.436  0.00  0.00    +0.013 C 
ATOM     16  C   UNL     1       3.645   1.425  -0.680  0.00  0.00    +0.031 C 
ATOM     17  C   UNL     1       4.609   0.564  -0.156  0.00  0.00    +0.003 C 
ENDBRANCH   8  12
ENDBRANCH   2   8
BRANCH   1  18
ATOM     18  C   UNL     1      -1.929  -1.397  -1.137  0.00  0.00    +0.137 C 
BRANCH  18  20
ATOM     19  O   UNL     1      -2.478  -2.443   0.992  0.00  0.00    -0.250 OA
ATOM     20  C   UNL     1      -2.303  -2.539  -0.215  0.00  0.00    +0.318 C 
BRANCH  20  21
ATOM     21  O   UNL     1      -2.427  -3.712  -0.890  0.00  0.00    -0.480 OA
ATOM     22  H   UNL     1      -2.284  -3.738  -1.815  0.00  0.00    +0.295 HD
ENDBRANCH  20  21
ENDBRANCH  18  20
ENDBRANCH   1  18
TORSDOF 5
