REMARK  Name = 61996
REMARK  6 active torsions:
REMARK  status: ('A' for Active; 'I' for Inactive)
REMARK    1  A    between atoms: N_1  and  C_20
REMARK    2  A    between atoms: C_2  and  N_10
REMARK    3  A    between atoms: N_10  and  C_12
REMARK    4  A    between atoms: C_11  and  C_18
REMARK    5  A    between atoms: C_20  and  C_21
REMARK    6  A    between atoms: C_21  and  C_22
REMARK                            x       y       z     vdW  Elec       q    Type
REMARK                         _______ _______ _______ _____ _____    ______ ____
ROOT
ATOM      1  N   UNL     1       1.344  -0.138  -0.404  0.00  0.00    +0.387 N 
ATOM      2  C   UNL     1      -1.437  -1.010  -0.055  0.00  0.00    +0.076 C 
ATOM      3  C   UNL     1      -0.900  -0.526  -1.417  0.00  0.00    -0.002 C 
ATOM      4  C   UNL     1      -0.596  -0.429   1.086  0.00  0.00    -0.003 C 
ATOM      5  C   UNL     1       0.620  -0.763  -1.519  0.00  0.00    -0.076 C 
ATOM      6  C   UNL     1       0.895  -0.685   0.882  0.00  0.00    -0.076 C 
ATOM      7  C   UNL     1      -1.599  -1.220  -2.592  0.00  0.00    -0.000 C 
ATOM      8  H   UNL     1       1.141   0.861  -0.413  0.00  0.00    -0.080 HD
ENDROOT
BRANCH   2  10
ATOM      9  O   UNL     1      -3.699  -2.850   0.374  0.00  0.00    -0.275 OA
ATOM     10  N   UNL     1      -2.826  -0.658   0.141  0.00  0.00    -0.260 N 
ATOM     11  C   UNL     1      -3.855  -1.627   0.342  0.00  0.00    +0.229 C 
BRANCH  10  12
ATOM     12  C   UNL     1      -3.193   0.757   0.132  0.00  0.00    +0.054 C 
ATOM     13  C   UNL     1      -3.170   1.422   1.321  0.00  0.00    +0.015 C 
ATOM     14  C   UNL     1      -3.534   1.313  -1.065  0.00  0.00    +0.015 C 
ATOM     15  C   UNL     1      -3.521   2.772   1.313  0.00  0.00    +0.001 C 
ATOM     16  C   UNL     1      -3.886   2.663  -1.073  0.00  0.00    +0.001 C 
ATOM     17  C   UNL     1      -3.879   3.392   0.116  0.00  0.00    +0.000 C 
ENDBRANCH  10  12
BRANCH  11  18
ATOM     18  C   UNL     1      -5.262  -1.052   0.481  0.00  0.00    +0.086 C 
ATOM     19  C   UNL     1      -6.317  -2.123   0.708  0.00  0.00    +0.010 C 
ENDBRANCH  11  18
ENDBRANCH   2  10
BRANCH   1  20
ATOM     20  C   UNL     1       2.786  -0.323  -0.562  0.00  0.00    -0.073 C 
BRANCH  20  21
ATOM     21  C   UNL     1       3.557   0.425   0.526  0.00  0.00    +0.004 C 
BRANCH  21  22
ATOM     22  C   UNL     1       5.047   0.261   0.361  0.00  0.00    -0.024 C 
ATOM     23  C   UNL     1       5.689  -0.798   0.986  0.00  0.00    -0.004 C 
ATOM     24  C   UNL     1       5.751   1.171  -0.412  0.00  0.00    -0.004 C 
ATOM     25  C   UNL     1       7.067  -0.950   0.834  0.00  0.00    -0.000 C 
ATOM     26  C   UNL     1       7.130   1.019  -0.565  0.00  0.00    -0.000 C 
ATOM     27  C   UNL     1       7.787  -0.042   0.058  0.00  0.00    -0.000 C 
ENDBRANCH  21  22
ENDBRANCH  20  21
ENDBRANCH   1  20
TORSDOF 6
