REMARK  Name = 439771
REMARK  4 active torsions:
REMARK  status: ('A' for Active; 'I' for Inactive)
REMARK    1  A    between atoms: CA_1  and  N_2
REMARK    2  A    between atoms: CA_1  and  C_7
REMARK    3  A    between atoms: CA_1  and  C_9
REMARK    4  A    between atoms: C_9  and  O_10
REMARK                            x       y       z     vdW  Elec       q    Type
REMARK                         _______ _______ _______ _____ _____    ______ ____
ROOT
ATOM      1  CA  UNL     1       0.080  -0.650  -0.469  0.00  0.00    +0.052 C 
ENDROOT
BRANCH   1   2
ATOM      2  N   UNL     1      -0.648  -1.910  -0.294  0.00  0.00    +0.390 N 
ATOM      3  H1  UNL     1      -0.063  -2.687  -0.603  0.00  0.00    -0.088 HD
ATOM      4  H2  UNL     1      -1.504  -1.888  -0.848  0.00  0.00    -0.088 HD
ATOM      5  H3  UNL     1      -0.883  -2.033   0.691  0.00  0.00    -0.088 HD
ENDBRANCH   1   2
BRANCH   1   7
ATOM      6 CL   UNL     1       2.312   0.798   0.190  0.00  0.00    -0.115 Cl
ATOM      7  C   UNL     1       1.370  -0.708   0.345  0.00  0.00    +0.084 C 
ENDBRANCH   1   7
BRANCH   1   9
ATOM      8  OXT UNL     1      -1.639   0.384   0.922  0.00  0.00    -0.253 OA
ATOM      9  C   UNL     1      -0.832   0.470   0.005  0.00  0.00    +0.294 C 
BRANCH   9  10
ATOM     10  O   UNL     1      -0.644   1.616  -0.700  0.00  0.00    -0.482 OA
ATOM     11  H   UNL     1      -0.017   1.641  -1.395  0.00  0.00    +0.295 HD
ENDBRANCH   9  10
ENDBRANCH   1   9
TORSDOF 4
