REMARK  Name = 9287
REMARK  3 active torsions:
REMARK  status: ('A' for Active; 'I' for Inactive)
REMARK    1  A    between atoms: C_2  and  C_11
REMARK    2  A    between atoms: C_11  and  C_12
REMARK    3  A    between atoms: C_12  and  N_14
REMARK                            x       y       z     vdW  Elec       q    Type
REMARK                         _______ _______ _______ _____ _____    ______ ____
ROOT
ATOM      1  N   UNL     1      -0.899   2.028   0.045  0.00  0.00    -0.312 N 
ATOM      2  C   UNL     1       0.600   0.459   0.513  0.00  0.00    -0.008 C 
ATOM      3  C   UNL     1      -0.643  -0.180   0.245  0.00  0.00    +0.011 C 
ATOM      4  C   UNL     1      -1.567   0.827  -0.045  0.00  0.00    +0.048 C 
ATOM      5  C   UNL     1       0.411   1.815   0.382  0.00  0.00    +0.057 C 
ATOM      6  C   UNL     1      -1.073  -1.521   0.221  0.00  0.00    +0.001 C 
ATOM      7  C   UNL     1      -2.904   0.558  -0.359  0.00  0.00    +0.015 C 
ATOM      8  C   UNL     1      -2.407  -1.806  -0.091  0.00  0.00    +0.000 C 
ATOM      9  C   UNL     1      -3.307  -0.780  -0.376  0.00  0.00    +0.001 C 
ATOM     10  H   UNL     1      -1.305   2.911  -0.109  0.00  0.00    +0.152 HD
ENDROOT
BRANCH   2  11
ATOM     11  C   UNL     1       1.871  -0.205   0.867  0.00  0.00    +0.006 C 
BRANCH  11  12
ATOM     12  C   UNL     1       2.763  -0.579  -0.345  0.00  0.00    -0.061 C 
ATOM     13  C   UNL     1       3.174   0.645  -1.164  0.00  0.00    -0.024 C 
BRANCH  12  14
ATOM     14  N   UNL     1       3.980  -1.261   0.105  0.00  0.00    +0.382 N 
ATOM     15  H   UNL     1       3.727  -2.082   0.655  0.00  0.00    -0.089 HD
ATOM     16  H   UNL     1       4.533  -0.625   0.680  0.00  0.00    -0.089 HD
ATOM     17  H   UNL     1       4.528  -1.550  -0.705  0.00  0.00    -0.089 HD
ENDBRANCH  12  14
ENDBRANCH  11  12
ENDBRANCH   2  11
TORSDOF 3
