REMARK  Name = 62529
REMARK  2 active torsions:
REMARK  status: ('A' for Active; 'I' for Inactive)
REMARK    1  A    between atoms: C_1  and  N_7
REMARK    2  A    between atoms: C_1  and  C_15
REMARK                            x       y       z     vdW  Elec       q    Type
REMARK                         _______ _______ _______ _____ _____    ______ ____
ROOT
ATOM      1  C   UNL     1       0.586   0.006   0.000  0.00  0.00    +0.040 C 
ATOM      2  C   UNL     1       1.270  -1.341   0.307  0.00  0.00    -0.005 C 
ATOM      3  C   UNL     1       1.282   1.151   0.761  0.00  0.00    -0.005 C 
ATOM      4  C   UNL     1       2.784  -1.303   0.083  0.00  0.00    -0.001 C 
ATOM      5  C   UNL     1       2.796   1.181   0.537  0.00  0.00    -0.001 C 
ATOM      6  C   UNL     1       3.439  -0.164   0.857  0.00  0.00    -0.000 C 
ENDROOT
BRANCH   1   7
ATOM      7  N   UNL     1      -0.804  -0.070   0.448  0.00  0.00    +0.398 N 
ATOM      8  C   UNL     1      -1.501   1.195   0.176  0.00  0.00    -0.076 C 
ATOM      9  C   UNL     1      -1.490  -1.202  -0.191  0.00  0.00    -0.076 C 
ATOM     10  C   UNL     1      -2.944   1.151   0.683  0.00  0.00    -0.023 C 
ATOM     11  C   UNL     1      -2.932  -1.325   0.304  0.00  0.00    -0.023 C 
ATOM     12  C   UNL     1      -3.705  -0.029   0.088  0.00  0.00    -0.004 C 
ATOM     13  H   UNL     1      -0.815  -0.224   1.456  0.00  0.00    -0.078 HD
ENDBRANCH   1   7
BRANCH   1  15
ATOM     14  N   UNL     1       0.616   0.479  -2.597  0.00  0.00    -0.198 NA
ATOM     15  C   UNL     1       0.603   0.271  -1.455  0.00  0.00    +0.052 C 
ENDBRANCH   1  15
TORSDOF 2
