REMARK  Name = 449120
REMARK  0 active torsions:
REMARK  status: ('A' for Active; 'I' for Inactive)
REMARK                            x       y       z     vdW  Elec       q    Type
REMARK                         _______ _______ _______ _____ _____    ______ ____
ROOT
ATOM      1  O   UNL     1      -2.651  -0.649   0.698  0.00  0.00    -0.275 OA
ATOM      2  N   UNL     1      -0.634  -0.067  -0.299  0.00  0.00    -0.280 N 
ATOM      3  C   UNL     1       1.651   0.575   0.393  0.00  0.00    +0.020 C 
ATOM      4  C   UNL     1       2.131  -0.841   0.036  0.00  0.00    +0.003 C 
ATOM      5  C   UNL     1       0.415   0.951  -0.438  0.00  0.00    +0.093 C 
ATOM      6  C   UNL     1       0.993  -1.854   0.162  0.00  0.00    +0.022 C 
ATOM      7  C   UNL     1      -0.221  -1.425  -0.656  0.00  0.00    +0.093 C 
ATOM      8  C   UNL     1       2.770   1.593   0.191  0.00  0.00    +0.002 C 
ATOM      9  C   UNL     1      -1.945   0.175   0.110  0.00  0.00    +0.226 C 
ATOM     10  C   UNL     1      -2.508   1.540  -0.197  0.00  0.00    +0.095 C 
ENDROOT
TORSDOF 0
