REMARK  Name = 107765
REMARK  6 active torsions:
REMARK  status: ('A' for Active; 'I' for Inactive)
REMARK    1  A    between atoms: C_5  and  O_23
REMARK    2  A    between atoms: C_8  and  C_27
REMARK    3  A    between atoms: C_20  and  O_25
REMARK    4  A    between atoms: C_27  and  O_29
REMARK    5  A    between atoms: C_27  and  C_31
REMARK    6  A    between atoms: C_31  and  C_32
REMARK                            x       y       z     vdW  Elec       q    Type
REMARK                         _______ _______ _______ _____ _____    ______ ____
ROOT
ATOM      1  O   UNL     1       0.531   2.124   0.798  0.00  0.00    -0.474 OA
ATOM      2  N   UNL     1       1.677  -3.060   0.637  0.00  0.00    +0.387 N 
ATOM      3  C   UNL     1       0.414  -1.242  -0.461  0.00  0.00    -0.010 C 
ATOM      4  C   UNL     1       0.814  -0.302   0.701  0.00  0.00    +0.057 C 
ATOM      5  C   UNL     1      -1.343   0.680  -0.100  0.00  0.00    +0.132 C 
ATOM      6  C   UNL     1      -0.179   0.849   0.916  0.00  0.00    +0.194 C 
ATOM      7  C   UNL     1      -0.970  -1.859  -0.116  0.00  0.00    +0.003 C 
ATOM      8  C   UNL     1      -1.995  -0.719   0.162  0.00  0.00    +0.053 C 
ATOM      9  C   UNL     1       1.605  -2.251  -0.602  0.00  0.00    -0.053 C 
ATOM     10  C   UNL     1       0.149  -0.449  -1.789  0.00  0.00    +0.001 C 
ATOM     11  C   UNL     1      -0.808   0.726  -1.541  0.00  0.00    +0.031 C 
ATOM     12  C   UNL     1       1.101  -1.068   2.010  0.00  0.00    -0.015 C 
ATOM     13  C   UNL     1       2.001   0.454   0.251  0.00  0.00    +0.013 C 
ATOM     14  C   UNL     1       2.969  -1.513  -0.938  0.00  0.00    +0.005 C 
ATOM     15  C   UNL     1       2.033  -2.273   1.821  0.00  0.00    -0.077 C 
ATOM     16  C   UNL     1       3.069  -0.082  -0.449  0.00  0.00    -0.025 C 
ATOM     17  C   UNL     1       1.806   1.807   0.401  0.00  0.00    +0.168 C 
ATOM     18  C   UNL     1       2.520  -4.244   0.508  0.00  0.00    -0.101 C 
ATOM     19  C   UNL     1       4.085   0.798  -0.820  0.00  0.00    -0.001 C 
ATOM     20  C   UNL     1       2.790   2.697   0.031  0.00  0.00    +0.167 C 
ATOM     21  C   UNL     1       3.954   2.177  -0.555  0.00  0.00    +0.039 C 
ATOM     22  H   UNL     1       0.725  -3.396   0.783  0.00  0.00    -0.080 HD
ENDROOT
BRANCH   5  23
ATOM     23  O   UNL     1      -2.295   1.714   0.102  0.00  0.00    -0.352 OA
ATOM     24  C   UNL     1      -1.726   2.998  -0.116  0.00  0.00    +0.174 C 
ENDBRANCH   5  23
BRANCH  20  25
ATOM     25  O   UNL     1       2.629   4.036   0.180  0.00  0.00    -0.503 OA
ATOM     26  H   UNL     1       1.848   4.373   0.572  0.00  0.00    +0.292 HD
ENDBRANCH  20  25
BRANCH   8  27
ATOM     27  C   UNL     1      -3.293  -0.952  -0.618  0.00  0.00    +0.091 C 
ATOM     28  C   UNL     1      -3.921  -2.285  -0.198  0.00  0.00    +0.029 C 
BRANCH  27  29
ATOM     29  O   UNL     1      -2.976  -1.034  -2.009  0.00  0.00    -0.387 OA
ATOM     30  H   UNL     1      -2.576  -0.200  -2.299  0.00  0.00    +0.210 HD
ENDBRANCH  27  29
BRANCH  27  31
ATOM     31  C   UNL     1      -4.312   0.187  -0.417  0.00  0.00    +0.027 C 
BRANCH  31  32
ATOM     32  C   UNL     1      -4.693   0.450   1.045  0.00  0.00    +0.002 C 
ATOM     33  C   UNL     1      -5.636   1.638   1.166  0.00  0.00    +0.000 C 
ENDBRANCH  31  32
ENDBRANCH  27  31
ENDBRANCH   8  27
TORSDOF 6
