REMARK  Name = 5322
REMARK  4 active torsions:
REMARK  status: ('A' for Active; 'I' for Inactive)
REMARK    1  A    between atoms: S_1  and  N_6
REMARK    2  A    between atoms: S_1  and  C_15
REMARK    3  A    between atoms: N_5  and  C_13
REMARK    4  A    between atoms: C_20  and  N_21
REMARK                            x       y       z     vdW  Elec       q    Type
REMARK                         _______ _______ _______ _____ _____    ______ ____
ROOT
ATOM      1  S   UNL     1       1.222  -1.962  -0.384  0.00  0.00    +0.075 S 
ATOM      2  O   UNL     1       0.647  -1.914  -1.715  0.00  0.00    -0.150 OA
ATOM      3  O   UNL     1       2.027  -3.095   0.028  0.00  0.00    -0.150 OA
ENDROOT
BRANCH   1   6
ATOM      4  O   UNL     1      -2.905   0.642  -1.962  0.00  0.00    -0.193 OA
ATOM      5  N   UNL     1      -3.517   0.316   0.242  0.00  0.00    -0.205 N 
ATOM      6  N   UNL     1      -0.002  -1.696   0.774  0.00  0.00    -0.188 N 
ATOM      7  N   UNL     1      -1.452  -0.512  -0.649  0.00  0.00    -0.304 NA
ATOM      8  C   UNL     1      -1.202  -0.989   0.524  0.00  0.00    +0.214 C 
ATOM      9  C   UNL     1      -3.207  -0.212   1.478  0.00  0.00    +0.081 C 
ATOM     10  C   UNL     1      -2.072  -0.876   1.702  0.00  0.00    +0.067 C 
ATOM     11  C   UNL     1      -2.639   0.175  -0.854  0.00  0.00    +0.274 C 
ATOM     12  H   UNL     1       0.136  -2.059   1.679  0.00  0.00    +0.176 HD
BRANCH   5  13
ATOM     13  C   UNL     1      -4.775   1.032   0.064  0.00  0.00    +0.109 C 
ATOM     14  C   UNL     1      -4.583   2.507   0.358  0.00  0.00    +0.025 C 
ENDBRANCH   5  13
ENDBRANCH   1   6
BRANCH   1  15
ATOM     15  C   UNL     1       2.213  -0.515  -0.165  0.00  0.00    +0.125 C 
ATOM     16  C   UNL     1       3.252  -0.539   0.749  0.00  0.00    +0.021 C 
ATOM     17  C   UNL     1       1.930   0.617  -0.910  0.00  0.00    +0.021 C 
ATOM     18  C   UNL     1       4.033   0.603   0.923  0.00  0.00    +0.015 C 
ATOM     19  C   UNL     1       2.712   1.759  -0.737  0.00  0.00    +0.015 C 
ATOM     20  C   UNL     1       3.763   1.752   0.180  0.00  0.00    +0.042 C 
BRANCH  20  21
ATOM     21  N   UNL     1       4.554   2.907   0.354  0.00  0.00    -0.357 N 
ATOM     22  H   UNL     1       5.296   2.903   1.000  0.00  0.00    +0.142 HD
ATOM     23  H   UNL     1       4.364   3.718  -0.172  0.00  0.00    +0.142 HD
ENDBRANCH  20  21
ENDBRANCH   1  15
TORSDOF 4
