REMARK  Name = 2375
REMARK  8 active torsions:
REMARK  status: ('A' for Active; 'I' for Inactive)
REMARK    1  A    between atoms: N_2  and  C_5
REMARK    2  A    between atoms: C_3  and  C_17
REMARK    3  A    between atoms: C_8  and  C_14
REMARK    4  A    between atoms: C_9  and  C_16
REMARK    5  A    between atoms: C_17  and  O_19
REMARK    6  A    between atoms: C_17  and  C_21
REMARK    7  A    between atoms: C_21  and  S_22
REMARK    8  A    between atoms: S_22  and  C_26
REMARK                            x       y       z     vdW  Elec       q    Type
REMARK                         _______ _______ _______ _____ _____    ______ ____
ROOT
ATOM      1  O   UNL     1      -0.126   3.026  -0.779  0.00  0.00    -0.272 OA
ATOM      2  N   UNL     1      -0.686   1.287   0.686  0.00  0.00    -0.282 N 
ATOM      3  C   UNL     1       0.110   2.317   0.198  0.00  0.00    +0.252 C 
ATOM      4  H   UNL     1      -0.349   0.818   1.483  0.00  0.00    +0.155 HD
ENDROOT
BRANCH   2   5
ATOM      5  C   UNL     1      -1.924   0.833   0.171  0.00  0.00    +0.050 C 
ATOM      6  C   UNL     1      -2.575  -0.216   0.798  0.00  0.00    +0.019 C 
ATOM      7  C   UNL     1      -2.457   1.448  -0.950  0.00  0.00    +0.015 C 
ATOM      8  C   UNL     1      -3.795  -0.663   0.290  0.00  0.00    +0.082 C 
ATOM      9  C   UNL     1      -4.346  -0.054  -0.838  0.00  0.00    +0.072 C 
ATOM     10  C   UNL     1      -3.677   1.001  -1.458  0.00  0.00    +0.011 C 
BRANCH   8  14
ATOM     11  F   UNL     1      -3.786  -2.251   2.053  0.00  0.00    -0.166 F 
ATOM     12  F   UNL     1      -5.715  -1.458   1.438  0.00  0.00    -0.166 F 
ATOM     13  F   UNL     1      -4.651  -2.854   0.144  0.00  0.00    -0.166 F 
ATOM     14  C   UNL     1      -4.483  -1.798   0.979  0.00  0.00    +0.419 C 
ENDBRANCH   8  14
BRANCH   9  16
ATOM     15  N   UNL     1      -6.607  -0.854  -1.818  0.00  0.00    -0.191 NA
ATOM     16  C   UNL     1      -5.595  -0.496  -1.380  0.00  0.00    +0.100 C 
ENDBRANCH   9  16
ENDBRANCH   2   5
BRANCH   3  17
ATOM     17  C   UNL     1       1.394   2.524   1.024  0.00  0.00    +0.179 C 
ATOM     18  C   UNL     1       1.048   2.868   2.477  0.00  0.00    +0.041 C 
BRANCH  17  19
ATOM     19  O   UNL     1       2.092   3.643   0.478  0.00  0.00    -0.377 OA
ATOM     20  H   UNL     1       2.906   3.793   0.983  0.00  0.00    +0.211 HD
ENDBRANCH  17  19
BRANCH  17  21
ATOM     21  C   UNL     1       2.339   1.319   0.978  0.00  0.00    +0.191 C 
BRANCH  21  22
ATOM     22  S   UNL     1       2.902   0.932  -0.654  0.00  0.00    +0.012 S 
ATOM     23  O   UNL     1       3.739   2.019  -1.126  0.00  0.00    -0.169 OA
ATOM     24  O   UNL     1       1.750   0.503  -1.427  0.00  0.00    -0.169 OA
BRANCH  22  26
ATOM     25  F   UNL     1       6.401  -3.722   0.128  0.00  0.00    -0.204 F 
ATOM     26  C   UNL     1       3.954  -0.468  -0.418  0.00  0.00    +0.106 C 
ATOM     27  C   UNL     1       3.412  -1.740  -0.479  0.00  0.00    +0.021 C 
ATOM     28  C   UNL     1       5.303  -0.267  -0.178  0.00  0.00    +0.021 C 
ATOM     29  C   UNL     1       4.242  -2.845  -0.294  0.00  0.00    +0.031 C 
ATOM     30  C   UNL     1       6.133  -1.372   0.008  0.00  0.00    +0.031 C 
ATOM     31  C   UNL     1       5.603  -2.661  -0.050  0.00  0.00    +0.140 C 
ENDBRANCH  22  26
ENDBRANCH  21  22
ENDBRANCH  17  21
ENDBRANCH   3  17
TORSDOF 8
