REMARK  Name = 456255
REMARK  9 active torsions:
REMARK  status: ('A' for Active; 'I' for Inactive)
REMARK    1  A    between atoms: CA_5  and  N_11
REMARK    2  A    between atoms: CA_7  and  C_24
REMARK    3  A    between atoms: C_8  and  C_27
REMARK    4  A    between atoms: C_12  and  C_14
REMARK    5  A    between atoms: C_14  and  C_15
REMARK    6  A    between atoms: C_14  and  O_21
REMARK    7  A    between atoms: C_24  and  O_25
REMARK    8  A    between atoms: C_27  and  S_28
REMARK    9  A    between atoms: S_28  and  C_33
REMARK                            x       y       z     vdW  Elec       q    Type
REMARK                         _______ _______ _______ _____ _____    ______ ____
ROOT
ATOM      1  S   UNL     1       0.832   0.216   1.352  0.00  0.00    -0.114 S 
ATOM      2  O   UNL     1       0.725  -3.577  -1.334  0.00  0.00    -0.273 OA
ATOM      3  N   UNL     1      -0.046  -2.054   0.293  0.00  0.00    -0.242 N 
ATOM      4  C   UNL     1       0.883  -1.590   1.306  0.00  0.00    +0.155 C 
ATOM      5  CA  UNL     1       1.994  -2.223   0.440  0.00  0.00    +0.178 C 
ATOM      6  C   UNL     1       0.827  -2.819  -0.398  0.00  0.00    +0.251 C 
ATOM      7  CA  UNL     1      -1.356  -1.697   0.249  0.00  0.00    +0.124 C 
ATOM      8  C   UNL     1      -1.828  -0.652   0.970  0.00  0.00    -0.002 C 
ATOM      9  C   UNL     1      -0.936   0.265   1.803  0.00  0.00    +0.083 C 
ENDROOT
BRANCH   5  11
ATOM     10  O   UNL     1       4.725  -1.513   1.063  0.00  0.00    -0.272 OA
ATOM     11  N   UNL     1       2.874  -1.341  -0.327  0.00  0.00    -0.294 N 
ATOM     12  C   UNL     1       4.184  -1.058   0.058  0.00  0.00    +0.254 C 
ATOM     13  H   UNL     1       2.525  -0.929  -1.150  0.00  0.00    +0.150 HD
BRANCH  12  14
ATOM     14  C   UNL     1       4.901  -0.133  -0.915  0.00  0.00    +0.209 C 
BRANCH  14  15
ATOM     15  C   UNL     1       4.782   1.314  -0.499  0.00  0.00    +0.013 C 
ATOM     16  C   UNL     1       3.714   2.067  -0.961  0.00  0.00    -0.001 C 
ATOM     17  C   UNL     1       5.741   1.862   0.337  0.00  0.00    -0.001 C 
ATOM     18  C   UNL     1       3.603   3.403  -0.577  0.00  0.00    -0.000 C 
ATOM     19  C   UNL     1       5.630   3.198   0.721  0.00  0.00    -0.000 C 
ATOM     20  C   UNL     1       4.561   3.969   0.264  0.00  0.00    -0.000 C 
ENDBRANCH  14  15
BRANCH  14  21
ATOM     21  O   UNL     1       6.276  -0.482  -0.969  0.00  0.00    -0.372 OA
ATOM     22  H   UNL     1       6.364  -1.411  -1.236  0.00  0.00    +0.211 HD
ENDBRANCH  14  21
ENDBRANCH  12  14
ENDBRANCH   5  11
BRANCH   7  24
ATOM     23  OXT UNL     1      -2.385  -2.179  -1.839  0.00  0.00    -0.244 OA
ATOM     24  C   UNL     1      -2.223  -2.453  -0.666  0.00  0.00    +0.351 C 
BRANCH  24  25
ATOM     25  O   UNL     1      -2.795  -3.474   0.001  0.00  0.00    -0.476 OA
ATOM     26  H   UNL     1      -2.607  -3.604   0.910  0.00  0.00    +0.295 HD
ENDBRANCH  24  25
ENDBRANCH   7  24
BRANCH   8  27
ATOM     27  C   UNL     1      -3.280  -0.244   1.038  0.00  0.00    +0.089 C 
BRANCH  27  28
ATOM     28  S   UNL     1      -3.630   0.934  -0.277  0.00  0.00    -0.070 S 
BRANCH  28  33
ATOM     29  N   UNL     1      -6.058   2.077  -0.734  0.00  0.00    -0.206 N 
ATOM     30  N   UNL     1      -6.055   0.711   0.951  0.00  0.00    -0.101 NA
ATOM     31  N   UNL     1      -7.313   2.094  -0.264  0.00  0.00    -0.042 NA
ATOM     32  N   UNL     1      -7.305   1.256   0.766  0.00  0.00    -0.022 NA
ATOM     33  C   UNL     1      -5.347   1.240   0.020  0.00  0.00    +0.211 A 
ATOM     34  C   UNL     1      -5.695   2.884  -1.871  0.00  0.00    +0.158 C 
ENDBRANCH  28  33
ENDBRANCH  27  28
ENDBRANCH   8  27
TORSDOF 9
