REMARK  Name = 448008
REMARK  5 active torsions:
REMARK  status: ('A' for Active; 'I' for Inactive)
REMARK    1  A    between atoms: C_4  and  C_10
REMARK    2  A    between atoms: C_5  and  N_16
REMARK    3  A    between atoms: N_16  and  C_19
REMARK    4  A    between atoms: C_22  and  C_26
REMARK    5  A    between atoms: C_26  and  O_27
REMARK                            x       y       z     vdW  Elec       q    Type
REMARK                         _______ _______ _______ _____ _____    ______ ____
ROOT
ATOM      1  O   UNL     1       4.195  -1.566  -0.367  0.00  0.00    -0.270 OA
ATOM      2  O   UNL     1       3.633   2.976  -0.554  0.00  0.00    -0.268 OA
ATOM      3  N   UNL     1       4.298   0.748  -0.567  0.00  0.00    -0.247 N 
ATOM      4  C   UNL     1       2.278  -0.154  -0.017  0.00  0.00    +0.072 C 
ATOM      5  C   UNL     1       2.116   1.178  -0.074  0.00  0.00    +0.107 C 
ATOM      6  C   UNL     1       3.695  -0.454  -0.337  0.00  0.00    +0.253 C 
ATOM      7  C   UNL     1       3.422   1.782  -0.425  0.00  0.00    +0.265 C 
ATOM      8  H   UNL     1       5.248   0.854  -0.805  0.00  0.00    +0.158 HD
ENDROOT
BRANCH   4  10
ATOM      9 CL   UNL     1      -1.374  -3.388  -1.751  0.00  0.00    -0.082 Cl
ATOM     10  C   UNL     1       1.259  -1.163   0.279  0.00  0.00    +0.007 C 
ATOM     11  C   UNL     1       0.514  -1.727  -0.757  0.00  0.00    +0.012 C 
ATOM     12  C   UNL     1       1.034  -1.560   1.597  0.00  0.00    +0.000 C 
ATOM     13  C   UNL     1      -0.456  -2.689  -0.474  0.00  0.00    +0.058 C 
ATOM     14  C   UNL     1       0.064  -2.522   1.879  0.00  0.00    +0.001 C 
ATOM     15  C   UNL     1      -0.681  -3.086   0.844  0.00  0.00    +0.011 C 
ENDBRANCH   4  10
BRANCH   5  16
ATOM     16  N   UNL     1       1.036   1.974   0.104  0.00  0.00    -0.309 N 
ATOM     17  H   UNL     1       1.198   2.940   0.001  0.00  0.00    +0.152 HD
BRANCH  16  19
ATOM     18 CL   UNL     1      -4.525   0.438   1.463  0.00  0.00    -0.082 Cl
ATOM     19  C   UNL     1      -0.286   1.608   0.416  0.00  0.00    +0.049 C 
ATOM     20  C   UNL     1      -1.200   1.344  -0.606  0.00  0.00    +0.022 C 
ATOM     21  C   UNL     1      -0.689   1.507   1.750  0.00  0.00    +0.015 C 
ATOM     22  C   UNL     1      -2.511   0.981  -0.296  0.00  0.00    +0.087 C 
ATOM     23  C   UNL     1      -2.000   1.145   2.059  0.00  0.00    +0.013 C 
ATOM     24  C   UNL     1      -2.911   0.882   1.036  0.00  0.00    +0.064 C 
BRANCH  22  26
ATOM     25  O   UNL     1      -4.478   1.329  -1.614  0.00  0.00    -0.245 OA
ATOM     26  C   UNL     1      -3.429   0.717  -1.398  0.00  0.00    +0.339 C 
BRANCH  26  27
ATOM     27  O   UNL     1      -3.004  -0.301  -2.192  0.00  0.00    -0.477 OA
ATOM     28  H   UNL     1      -2.201  -0.744  -1.997  0.00  0.00    +0.295 HD
ENDBRANCH  26  27
ENDBRANCH  22  26
ENDBRANCH  16  19
ENDBRANCH   5  16
TORSDOF 5
