REMARK  Name = 444612
REMARK  5 active torsions:
REMARK  status: ('A' for Active; 'I' for Inactive)
REMARK    1  A    between atoms: N_5  and  C_12
REMARK    2  A    between atoms: C_6  and  O_26
REMARK    3  A    between atoms: C_11  and  S_20
REMARK    4  A    between atoms: C_17  and  O_18
REMARK    5  A    between atoms: S_20  and  N_23
REMARK                            x       y       z     vdW  Elec       q    Type
REMARK                         _______ _______ _______ _____ _____    ______ ____
ROOT
ATOM      1  S   UNL     1       0.079   0.984  -0.024  0.00  0.00    +0.082 S 
ATOM      2  S   UNL     1      -2.872   1.324  -0.241  0.00  0.00    -0.047 S 
ATOM      3  O   UNL     1       0.183   1.707   1.228  0.00  0.00    -0.149 OA
ATOM      4  O   UNL     1       0.234   1.635  -1.308  0.00  0.00    -0.149 OA
ATOM      5  N   UNL     1       1.043  -0.460   0.036  0.00  0.00    -0.187 N 
ATOM      6  C   UNL     1      -0.838  -2.080   0.433  0.00  0.00    +0.156 C 
ATOM      7  C   UNL     1       0.513  -1.536   0.954  0.00  0.00    +0.150 C 
ATOM      8  C   UNL     1      -1.873  -1.012   0.208  0.00  0.00    +0.033 C 
ATOM      9  C   UNL     1      -1.543   0.306  -0.011  0.00  0.00    +0.154 C 
ATOM     10  C   UNL     1      -3.291  -1.183   0.174  0.00  0.00    +0.027 C 
ATOM     11  C   UNL     1      -3.955   0.005  -0.063  0.00  0.00    +0.152 C 
ENDROOT
BRANCH   5  12
ATOM     12  C   UNL     1       2.467  -0.209   0.080  0.00  0.00    +0.069 C 
ATOM     13  C   UNL     1       3.060   0.196   1.272  0.00  0.00    +0.019 C 
ATOM     14  C   UNL     1       3.233  -0.373  -1.069  0.00  0.00    +0.019 C 
ATOM     15  C   UNL     1       4.432   0.439   1.315  0.00  0.00    +0.038 C 
ATOM     16  C   UNL     1       4.606  -0.129  -1.027  0.00  0.00    +0.038 C 
ATOM     17  C   UNL     1       5.206   0.277   0.166  0.00  0.00    +0.139 C 
BRANCH  17  18
ATOM     18  O   UNL     1       6.545   0.514   0.207  0.00  0.00    -0.471 OA
ATOM     19  C   UNL     1       7.276   0.329  -1.004  0.00  0.00    +0.252 C 
ENDBRANCH  17  18
ENDBRANCH   5  12
BRANCH  11  20
ATOM     20  S   UNL     1      -5.655   0.423  -0.213  0.00  0.00    +0.063 S 
ATOM     21  O   UNL     1      -5.700   1.625  -1.038  0.00  0.00    -0.153 OA
ATOM     22  O   UNL     1      -6.309  -0.803  -0.652  0.00  0.00    -0.153 OA
BRANCH  20  23
ATOM     23  N   UNL     1      -6.260   0.833   1.342  0.00  0.00    -0.203 NA
ATOM     24  H   UNL     1      -7.247   1.078   1.269  0.00  0.00    +0.144 HD
ATOM     25  H   UNL     1      -5.738   1.628   1.711  0.00  0.00    +0.144 HD
ENDBRANCH  20  23
ENDBRANCH  11  20
BRANCH   6  26
ATOM     26  O   UNL     1      -0.583  -2.811  -0.768  0.00  0.00    -0.378 OA
ATOM     27  H   UNL     1       0.087  -3.491  -0.597  0.00  0.00    +0.211 HD
ENDBRANCH   6  26
TORSDOF 5
