REMARK  Name = 14584
REMARK  3 active torsions:
REMARK  status: ('A' for Active; 'I' for Inactive)
REMARK    1  A    between atoms: C_3  and  C_8
REMARK    2  A    between atoms: C_4  and  N_14
REMARK    3  A    between atoms: N_14  and  C_17
REMARK                            x       y       z     vdW  Elec       q    Type
REMARK                         _______ _______ _______ _____ _____    ______ ____
ROOT
ATOM      1  C   UNL     1       0.391   1.928  -0.408  0.00  0.00    +0.002 C 
ATOM      2  C   UNL     1       1.943   0.884   0.808  0.00  0.00    -0.019 C 
ATOM      3  C   UNL     1       0.009   0.428  -0.593  0.00  0.00    +0.003 C 
ATOM      4  C   UNL     1       1.021  -0.277   0.358  0.00  0.00    -0.058 C 
ATOM      5  C   UNL     1       0.910   1.989   1.033  0.00  0.00    -0.002 C 
ATOM      6  C   UNL     1       1.689   2.192  -1.197  0.00  0.00    +0.000 C 
ATOM      7  C   UNL     1       2.754   1.467  -0.363  0.00  0.00    -0.002 C 
ENDROOT
BRANCH   3   8
ATOM      8  C   UNL     1      -1.425   0.030  -0.290  0.00  0.00    -0.024 C 
ATOM      9  C   UNL     1      -2.010  -1.034  -0.974  0.00  0.00    -0.004 C 
ATOM     10  C   UNL     1      -2.152   0.730   0.671  0.00  0.00    -0.004 C 
ATOM     11  C   UNL     1      -3.327  -1.400  -0.696  0.00  0.00    -0.000 C 
ATOM     12  C   UNL     1      -3.469   0.364   0.949  0.00  0.00    -0.000 C 
ATOM     13  C   UNL     1      -4.057  -0.701   0.266  0.00  0.00    -0.000 C 
ENDBRANCH   3   8
BRANCH   4  14
ATOM     14  N   UNL     1       1.715  -1.395  -0.266  0.00  0.00    +0.385 N 
ATOM     15  H   UNL     1       2.226  -1.057  -1.081  0.00  0.00    -0.084 HD
ATOM     16  H   UNL     1       1.025  -2.094  -0.541  0.00  0.00    -0.084 HD
BRANCH  14  17
ATOM     17  C   UNL     1       2.654  -2.008   0.664  0.00  0.00    -0.082 C 
ATOM     18  C   UNL     1       3.355  -3.197   0.040  0.00  0.00    -0.026 C 
ENDBRANCH  14  17
ENDBRANCH   4  14
TORSDOF 3
