REMARK  Name = 3062316
REMARK  5 active torsions:
REMARK  status: ('A' for Active; 'I' for Inactive)
REMARK    1  A    between atoms: C_5  and  C_28
REMARK    2  A    between atoms: N_8  and  C_22
REMARK    3  A    between atoms: C_22  and  C_23
REMARK    4  A    between atoms: C_23  and  O_24
REMARK    5  A    between atoms: N_27  and  C_31
REMARK                            x       y       z     vdW  Elec       q    Type
REMARK                         _______ _______ _______ _____ _____    ______ ____
ROOT
ATOM      1  S   UNL     1       1.941  -1.581   0.268  0.00  0.00    -0.047 S 
ATOM      2  N   UNL     1      -0.504  -0.532   0.268  0.00  0.00    -0.271 N 
ATOM      3  N   UNL     1       1.347   0.931   0.124  0.00  0.00    -0.222 NA
ATOM      4  C   UNL     1       0.835  -0.273   0.215  0.00  0.00    +0.165 C 
ATOM      5  C   UNL     1       3.231  -0.456   0.160  0.00  0.00    +0.105 C 
ATOM      6  C   UNL     1       2.724   0.825   0.093  0.00  0.00    +0.112 C 
ATOM      7  H   UNL     1      -0.741  -1.472   0.442  0.00  0.00    +0.156 HD
ATOM      8  N   UNL     1      -7.937  -0.764  -0.378  0.00  0.00    +0.391 N 
ATOM      9  N   UNL     1      -5.236   0.130  -0.123  0.00  0.00    -0.290 N 
ATOM     10  N   UNL     1      -3.748   2.007  -0.194  0.00  0.00    -0.333 NA
ATOM     11  N   UNL     1      -1.370   1.669   0.002  0.00  0.00    -0.332 NA
ATOM     12  C   UNL     1      -6.824  -1.647  -0.746  0.00  0.00    -0.055 C 
ATOM     13  C   UNL     1      -7.543   0.096   0.745  0.00  0.00    -0.055 C 
ATOM     14  C   UNL     1      -5.594  -0.838  -1.164  0.00  0.00    +0.070 C 
ATOM     15  C   UNL     1      -6.338   0.964   0.375  0.00  0.00    +0.070 C 
ATOM     16  C   UNL     1      -3.941   0.659  -0.082  0.00  0.00    +0.181 C 
ATOM     17  C   UNL     1      -2.865  -0.216   0.074  0.00  0.00    +0.151 C 
ATOM     18  C   UNL     1      -1.604   0.345   0.110  0.00  0.00    +0.183 C 
ATOM     19  C   UNL     1      -2.471   2.431  -0.145  0.00  0.00    +0.117 C 
ATOM     20  C   UNL     1      -2.252   3.901  -0.267  0.00  0.00    +0.143 C 
ATOM     21  H   UNL     1      -8.168  -0.175  -1.179  0.00  0.00    -0.079 HD
ENDROOT
BRANCH   5  24
ATOM     22  O   UNL     1       4.891  -2.126   0.185  0.00  0.00    -0.269 OA
ATOM     23  N   UNL     1       5.577   0.092   0.060  0.00  0.00    -0.280 N 
ATOM     24  C   UNL     1       4.581  -0.910   0.151  0.00  0.00    +0.257 C 
ATOM     25  H   UNL     1       5.241   1.017   0.039  0.00  0.00    +0.155 HD
BRANCH  23  27
ATOM     26 CL   UNL     1       6.740  -0.141  -2.724  0.00  0.00    -0.081 Cl
ATOM     27  C   UNL     1       6.987  -0.040  -0.005  0.00  0.00    +0.057 C 
ATOM     28  C   UNL     1       7.712  -0.053   1.177  0.00  0.00    -0.008 C 
ATOM     29  C   UNL     1       7.616  -0.154  -1.235  0.00  0.00    +0.071 C 
ATOM     30  C   UNL     1       9.100  -0.182   1.128  0.00  0.00    -0.003 C 
ATOM     31  C   UNL     1       7.050   0.069   2.512  0.00  0.00    +0.032 C 
ATOM     32  C   UNL     1       9.004  -0.283  -1.284  0.00  0.00    +0.013 C 
ATOM     33  C   UNL     1       9.746  -0.297  -0.103  0.00  0.00    +0.001 C 
ENDBRANCH  23  27
ENDBRANCH   5  24
BRANCH   8  34
ATOM     34  C   UNL     1      -9.122  -1.548  -0.032  0.00  0.00    -0.045 C 
BRANCH  34  35
ATOM     35  C   UNL     1     -10.302  -0.636   0.262  0.00  0.00    +0.115 C 
BRANCH  35  36
ATOM     36  O   UNL     1     -11.433  -1.439   0.575  0.00  0.00    -0.384 OA
ATOM     37  H   UNL     1     -12.193  -0.867   0.765  0.00  0.00    +0.210 HD
ENDBRANCH  35  36
ENDBRANCH  34  35
ENDBRANCH   8  34
TORSDOF 5
