REMARK  Name = 2749
REMARK  2 active torsions:
REMARK  status: ('A' for Active; 'I' for Inactive)
REMARK    1  A    between atoms: N_2  and  O_15
REMARK    2  A    between atoms: C_3  and  C_9
REMARK                            x       y       z     vdW  Elec       q    Type
REMARK                         _______ _______ _______ _____ _____    ______ ____
ROOT
ATOM      1  O   UNL     1      -3.303   1.878   0.036  0.00  0.00    -0.267 OA
ATOM      2  N   UNL     1      -1.128   1.075  -0.008  0.00  0.00    -0.150 N 
ATOM      3  C   UNL     1      -0.215   0.046   0.006  0.00  0.00    +0.058 C 
ATOM      4  C   UNL     1      -0.680  -1.216   0.003  0.00  0.00    +0.009 C 
ATOM      5  C   UNL     1      -2.109  -1.477  -0.006  0.00  0.00    -0.016 C 
ATOM      6  C   UNL     1      -2.498   0.950   0.021  0.00  0.00    +0.274 C 
ATOM      7  C   UNL     1      -2.988  -0.461   0.003  0.00  0.00    +0.056 C 
ATOM      8  C   UNL     1      -2.535  -2.913  -0.023  0.00  0.00    +0.031 C 
ENDROOT
BRANCH   3   9
ATOM      9  C   UNL     1       1.250   0.366   0.006  0.00  0.00    +0.039 C 
ATOM     10  C   UNL     1       1.928  -0.178  -1.259  0.00  0.00    +0.006 C 
ATOM     11  C   UNL     1       1.929  -0.185   1.268  0.00  0.00    +0.006 C 
ATOM     12  C   UNL     1       3.430   0.095  -1.257  0.00  0.00    +0.000 C 
ATOM     13  C   UNL     1       3.432   0.088   1.265  0.00  0.00    +0.000 C 
ATOM     14  C   UNL     1       4.099  -0.447   0.002  0.00  0.00    +0.000 C 
ENDBRANCH   3   9
BRANCH   2  15
ATOM     15  O   UNL     1      -0.612   2.380  -0.056  0.00  0.00    -0.288 OA
ATOM     16  H   UNL     1       0.315   2.516  -0.077  0.00  0.00    +0.242 HD
ENDBRANCH   2  15
TORSDOF 2
