REMARK  Name = 3032285
REMARK  5 active torsions:
REMARK  status: ('A' for Active; 'I' for Inactive)
REMARK    1  A    between atoms: C_6  and  C_12
REMARK    2  A    between atoms: C_6  and  C_17
REMARK    3  A    between atoms: C_12  and  C_14
REMARK    4  A    between atoms: C_14  and  C_15
REMARK    5  A    between atoms: C_17  and  C_18
REMARK                            x       y       z     vdW  Elec       q    Type
REMARK                         _______ _______ _______ _____ _____    ______ ____
ROOT
ATOM      1  S   UNL     1       2.761   3.313   0.154  0.00  0.00    -0.018 S 
ATOM      2  O   UNL     1       1.550  -1.216   1.747  0.00  0.00    -0.274 OA
ATOM      3  O   UNL     1      -0.287   0.290  -2.313  0.00  0.00    -0.274 OA
ATOM      4  N   UNL     1       1.964   0.907   0.982  0.00  0.00    -0.267 N 
ATOM      5  N   UNL     1       1.047   1.659  -1.044  0.00  0.00    -0.267 N 
ATOM      6  C   UNL     1       0.112  -0.362  -0.011  0.00  0.00    +0.142 C 
ATOM      7  C   UNL     1       1.278  -0.298   0.973  0.00  0.00    +0.235 C 
ATOM      8  C   UNL     1       0.275   0.524  -1.244  0.00  0.00    +0.235 C 
ATOM      9  C   UNL     1       1.871   1.903   0.034  0.00  0.00    +0.143 C 
ATOM     10  H   UNL     1       2.575   1.066   1.737  0.00  0.00    +0.157 HD
ATOM     11  H   UNL     1       1.001   2.356  -1.738  0.00  0.00    +0.157 HD
ENDROOT
BRANCH   6  12
ATOM     12  C   UNL     1      -1.136   0.138   0.739  0.00  0.00    +0.017 C 
ATOM     13  C   UNL     1      -1.366  -0.719   1.987  0.00  0.00    +0.001 C 
BRANCH  12  14
ATOM     14  C   UNL     1      -2.399   0.122  -0.141  0.00  0.00    +0.001 C 
BRANCH  14  15
ATOM     15  C   UNL     1      -3.640   0.676   0.563  0.00  0.00    +0.000 C 
ATOM     16  C   UNL     1      -4.841   0.704  -0.371  0.00  0.00    +0.000 C 
ENDBRANCH  14  15
ENDBRANCH  12  14
ENDBRANCH   6  12
BRANCH   6  17
ATOM     17  C   UNL     1      -0.108  -1.816  -0.451  0.00  0.00    +0.043 C 
BRANCH  17  18
ATOM     18  C   UNL     1       1.136  -2.382  -1.050  0.00  0.00    -0.025 C 
ATOM     19  C   UNL     1       1.783  -3.442  -0.553  0.00  0.00    -0.005 C 
ENDBRANCH  17  18
ENDBRANCH   6  17
TORSDOF 5
