REMARK  Name = 5280961
REMARK  4 active torsions:
REMARK  status: ('A' for Active; 'I' for Inactive)
REMARK    1  A    between atoms: C_4  and  C_12
REMARK    2  A    between atoms: C_7  and  O_20
REMARK    3  A    between atoms: C_11  and  O_22
REMARK    4  A    between atoms: C_17  and  O_18
REMARK                            x       y       z     vdW  Elec       q    Type
REMARK                         _______ _______ _______ _____ _____    ______ ____
ROOT
ATOM      1  O   UNL     1       1.205   2.034  -0.019  0.00  0.00    -0.450 OA
ATOM      2  O   UNL     1      -0.086  -1.836  -0.069  0.00  0.00    -0.286 OA
ATOM      3  C   UNL     1       1.728  -0.336  -0.011  0.00  0.00    +0.107 C 
ATOM      4  C   UNL     1      -0.657   0.475  -0.027  0.00  0.00    +0.077 C 
ATOM      5  C   UNL     1       2.111   1.005  -0.006  0.00  0.00    +0.154 C 
ATOM      6  C   UNL     1       0.292  -0.672  -0.034  0.00  0.00    +0.204 C 
ATOM      7  C   UNL     1       2.696  -1.343   0.002  0.00  0.00    +0.143 C 
ATOM      8  C   UNL     1      -0.130   1.709  -0.019  0.00  0.00    +0.183 C 
ATOM      9  C   UNL     1       3.464   1.346   0.011  0.00  0.00    +0.074 C 
ATOM     10  C   UNL     1       4.048  -1.000   0.019  0.00  0.00    +0.073 C 
ATOM     11  C   UNL     1       4.432   0.341   0.024  0.00  0.00    +0.140 C 
ENDROOT
BRANCH   4  12
ATOM     12  C   UNL     1      -2.116   0.279  -0.009  0.00  0.00    +0.006 C 
ATOM     13  C   UNL     1      -2.827   0.201  -1.208  0.00  0.00    +0.003 C 
ATOM     14  C   UNL     1      -2.793   0.170   1.207  0.00  0.00    +0.003 C 
ATOM     15  C   UNL     1      -4.209   0.014  -1.191  0.00  0.00    +0.037 C 
ATOM     16  C   UNL     1      -4.175  -0.017   1.224  0.00  0.00    +0.037 C 
ATOM     17  C   UNL     1      -4.883  -0.095   0.025  0.00  0.00    +0.134 C 
BRANCH  17  18
ATOM     18  O   UNL     1      -6.232  -0.277   0.042  0.00  0.00    -0.506 OA
ATOM     19  H   UNL     1      -6.707  -0.329  -0.764  0.00  0.00    +0.292 HD
ENDBRANCH  17  18
ENDBRANCH   4  12
BRANCH   7  20
ATOM     20  O   UNL     1       2.377  -2.668  -0.001  0.00  0.00    -0.505 OA
ATOM     21  H   UNL     1       1.479  -2.934  -0.013  0.00  0.00    +0.292 HD
ENDBRANCH   7  20
BRANCH  11  22
ATOM     22  O   UNL     1       5.753   0.670   0.040  0.00  0.00    -0.505 OA
ATOM     23  H   UNL     1       6.012   1.570   0.043  0.00  0.00    +0.292 HD
ENDBRANCH  11  22
TORSDOF 4
