REMARK  Name = 445856
REMARK  3 active torsions:
REMARK  status: ('A' for Active; 'I' for Inactive)
REMARK    1  A    between atoms: C_1  and  C_4
REMARK    2  A    between atoms: C_1  and  N_7
REMARK    3  A    between atoms: C_1  and  C_11
REMARK                            x       y       z     vdW  Elec       q    Type
REMARK                         _______ _______ _______ _____ _____    ______ ____
ROOT
ATOM      1  C   UNL     1       0.302  -0.494   0.637  0.00  0.00    +0.013 C 
ENDROOT
BRANCH   1   4
ATOM      2  O   UNL     1      -1.429  -1.147  -0.936  0.00  0.00    -0.277 OA
ATOM      3  N   UNL     1      -1.880   0.577   0.545  0.00  0.00    -0.304 N 
ATOM      4  C   UNL     1      -1.082  -0.410  -0.015  0.00  0.00    +0.202 C 
ATOM      5  C   UNL     1      -3.224   0.831   0.082  0.00  0.00    +0.111 C 
ATOM      6  H   UNL     1      -1.519   1.121   1.282  0.00  0.00    +0.149 HD
ENDBRANCH   1   4
BRANCH   1   7
ATOM      7  N   UNL     1       0.674  -1.912   0.656  0.00  0.00    +0.387 N 
ATOM      8  H   UNL     1       1.594  -2.017   1.084  0.00  0.00    -0.089 HD
ATOM      9  H   UNL     1       0.701  -2.269  -0.299  0.00  0.00    -0.089 HD
ATOM     10  H   UNL     1      -0.014  -2.437   1.196  0.00  0.00    -0.089 HD
ENDBRANCH   1   7
BRANCH   1  11
ATOM     11  C   UNL     1       1.370   0.414  -0.053  0.00  0.00    -0.010 C 
ATOM     12  C   UNL     1       2.735   0.265   0.652  0.00  0.00    -0.002 C 
ATOM     13  C   UNL     1       1.553  -0.030  -1.522  0.00  0.00    -0.002 C 
ATOM     14  C   UNL     1       0.982   1.906  -0.047  0.00  0.00    -0.002 C 
ENDBRANCH   1  11
TORSDOF 3
