REMARK  Name = 10548
REMARK  8 active torsions:
REMARK  status: ('A' for Active; 'I' for Inactive)
REMARK    1  A    between atoms: P_1  and  S_3
REMARK    2  A    between atoms: P_1  and  O_10
REMARK    3  A    between atoms: P_1  and  O_13
REMARK    4  A    between atoms: S_3  and  C_4
REMARK    5  A    between atoms: C_4  and  C_5
REMARK    6  A    between atoms: C_5  and  N_6
REMARK    7  A    between atoms: O_10  and  C_11
REMARK    8  A    between atoms: O_13  and  C_14
REMARK                            x       y       z     vdW  Elec       q    Type
REMARK                         _______ _______ _______ _____ _____    ______ ____
ROOT
ATOM      1  P   UNL     1      -1.595   0.558  -0.310  0.00  0.00    +0.393 P 
ATOM      2  O   UNL     1      -1.423   1.365  -1.571  0.00  0.00    -0.246 OA
ENDROOT
BRANCH   1   3
ATOM      3  S   UNL     1       0.015   0.887   0.992  0.00  0.00    -0.033 S 
BRANCH   3   4
ATOM      4  C   UNL     1       1.484   0.355   0.061  0.00  0.00    +0.047 C 
BRANCH   4   5
ATOM      5  C   UNL     1       2.764   0.525   0.863  0.00  0.00    -0.061 C 
BRANCH   5   6
ATOM      6  N   UNL     1       3.966   0.078   0.044  0.00  0.00    +0.386 N 
ATOM      7  C   UNL     1       4.011   0.863  -1.260  0.00  0.00    -0.096 C 
ATOM      8  C   UNL     1       5.242   0.334   0.834  0.00  0.00    -0.096 C 
ATOM      9  C   UNL     1       3.848  -1.408  -0.263  0.00  0.00    -0.096 C 
ENDBRANCH   5   6
ENDBRANCH   4   5
ENDBRANCH   3   4
ENDBRANCH   1   3
BRANCH   1  10
ATOM     10  O   UNL     1      -2.978   0.919   0.465  0.00  0.00    -0.287 OA
BRANCH  10  11
ATOM     11  C   UNL     1      -4.210   0.722  -0.208  0.00  0.00    +0.152 C 
ATOM     12  C   UNL     1      -5.344   1.125   0.710  0.00  0.00    +0.035 C 
ENDBRANCH  10  11
ENDBRANCH   1  10
BRANCH   1  13
ATOM     13  O   UNL     1      -1.766  -1.027  -0.633  0.00  0.00    -0.287 OA
BRANCH  13  14
ATOM     14  C   UNL     1      -1.940  -1.952   0.427  0.00  0.00    +0.152 C 
ATOM     15  C   UNL     1      -2.072  -3.344  -0.151  0.00  0.00    +0.035 C 
ENDBRANCH  13  14
ENDBRANCH   1  13
TORSDOF 8
