REMARK  Name = 98527
REMARK  5 active torsions:
REMARK  status: ('A' for Active; 'I' for Inactive)
REMARK    1  A    between atoms: C_2  and  C_12
REMARK    2  A    between atoms: C_3  and  O_8
REMARK    3  A    between atoms: C_5  and  O_10
REMARK    4  A    between atoms: C_12  and  C_13
REMARK    5  A    between atoms: C_13  and  N_14
REMARK                            x       y       z     vdW  Elec       q    Type
REMARK                         _______ _______ _______ _____ _____    ______ ____
ROOT
ATOM      1 BR   UNL     1       3.530  -1.355  -0.806  0.00  0.00    -0.046 Br
ATOM      2  C   UNL     1      -0.750   0.268   0.190  0.00  0.00    +0.013 C 
ATOM      3  C   UNL     1      -0.555  -1.083  -0.096  0.00  0.00    +0.135 C 
ATOM      4  C   UNL     1       0.333   1.146   0.181  0.00  0.00    +0.036 C 
ATOM      5  C   UNL     1       1.612   0.674  -0.115  0.00  0.00    +0.145 C 
ATOM      6  C   UNL     1       0.724  -1.556  -0.391  0.00  0.00    +0.046 C 
ATOM      7  C   UNL     1       1.807  -0.678  -0.400  0.00  0.00    +0.071 C 
ENDROOT
BRANCH   3   8
ATOM      8  O   UNL     1      -1.603  -1.955  -0.091  0.00  0.00    -0.472 OA
ATOM      9  C   UNL     1      -1.902  -2.601   1.145  0.00  0.00    +0.252 C 
ENDBRANCH   3   8
BRANCH   5  10
ATOM     10  O   UNL     1       2.649   1.558  -0.117  0.00  0.00    -0.471 OA
ATOM     11  C   UNL     1       3.343   1.746   1.114  0.00  0.00    +0.252 C 
ENDBRANCH   5  10
BRANCH   2  12
ATOM     12  C   UNL     1      -2.112   0.792   0.507  0.00  0.00    +0.006 C 
BRANCH  12  13
ATOM     13  C   UNL     1      -2.889   1.262  -0.729  0.00  0.00    -0.081 C 
BRANCH  13  14
ATOM     14  N   UNL     1      -4.187   1.781  -0.394  0.00  0.00    +0.381 N 
ATOM     15  H   UNL     1      -4.664   2.080  -1.244  0.00  0.00    -0.089 HD
ATOM     16  H   UNL     1      -4.084   2.577   0.235  0.00  0.00    -0.089 HD
ATOM     17  H   UNL     1      -4.736   1.054   0.066  0.00  0.00    -0.089 HD
ENDBRANCH  13  14
ENDBRANCH  12  13
ENDBRANCH   2  12
TORSDOF 5
