REMARK  Name = 95034
REMARK  1 active torsions:
REMARK  status: ('A' for Active; 'I' for Inactive)
REMARK    1  A    between atoms: N_7  and  C_12
REMARK                            x       y       z     vdW  Elec       q    Type
REMARK                         _______ _______ _______ _____ _____    ______ ____
ROOT
ATOM      1  O   UNL     1      -0.636   2.725   0.001  0.00  0.00    -0.265 OA
ATOM      2  O   UNL     1      -2.849  -1.416  -0.001  0.00  0.00    -0.246 OA
ATOM      3  N   UNL     1      -0.522  -1.412   0.000  0.00  0.00    -0.266 N 
ATOM      4  N   UNL     1      -1.770   0.663   0.000  0.00  0.00    -0.246 N 
ATOM      5  N   UNL     1       1.887   1.131   0.000  0.00  0.00    -0.300 N 
ATOM      6  N   UNL     1       1.919  -1.098   0.000  0.00  0.00    -0.292 N 
ATOM      7  C   UNL     1       0.582   0.730  -0.001  0.00  0.00    +0.134 A 
ATOM      8  C   UNL     1       0.630  -0.637   0.000  0.00  0.00    +0.133 A 
ATOM      9  C   UNL     1      -0.621   1.498  -0.001  0.00  0.00    +0.280 A 
ATOM     10  C   UNL     1      -1.789  -0.778   0.000  0.00  0.00    +0.335 A 
ATOM     11  C   UNL     1       2.654  -0.005   0.000  0.00  0.00    +0.205 C 
ATOM     12  C   UNL     1      -0.419  -2.866   0.001  0.00  0.00    +0.136 C 
ATOM     13  C   UNL     1      -3.066   1.334   0.001  0.00  0.00    +0.138 C 
ATOM     14  H   UNL     1       2.215   2.059   0.000  0.00  0.00    +0.150 HD
ATOM     15  H   UNL     1       2.227  -2.033   0.001  0.00  0.00    +0.151 HD
ENDROOT
BRANCH  11  16
ATOM     16  N   UNL     1       3.999   0.132   0.000  0.00  0.00    -0.291 NA
ATOM     17  H   UNL     1       4.402   1.030   0.000  0.00  0.00    +0.122 HD
ATOM     18  H   UNL     1       4.575  -0.667   0.000  0.00  0.00    +0.122 HD
ENDBRANCH  11  16
TORSDOF 1
