REMARK  Name = 94599
REMARK  14 active torsions:
REMARK  status: ('A' for Active; 'I' for Inactive)
REMARK    1  A    between atoms: C_1  and  C_4
REMARK    2  A    between atoms: C_1  and  C_13
REMARK    3  A    between atoms: N_3  and  C_6
REMARK    4  A    between atoms: C_6  and  C_7
REMARK    5  A    between atoms: C_7  and  C_8
REMARK    6  A    between atoms: C_8  and  N_10
REMARK    7  A    between atoms: C_13  and  C_14
REMARK    8  A    between atoms: C_14  and  C_15
REMARK    9  A    between atoms: C_15  and  C_16
REMARK   10  A    between atoms: C_16  and  C_17
REMARK   11  A    between atoms: C_17  and  C_18
REMARK   12  A    between atoms: C_18  and  C_19
REMARK   13  A    between atoms: C_19  and  C_20
REMARK   14  A    between atoms: C_20  and  C_21
REMARK                            x       y       z     vdW  Elec       q    Type
REMARK                         _______ _______ _______ _____ _____    ______ ____
ROOT
ATOM      1  C   UNL     1       3.503   2.893   0.259  0.00  0.00    +0.085 C 
ENDROOT
BRANCH   1   4
ATOM      2  O   UNL     1       4.139   1.712  -1.755  0.00  0.00    -0.275 OA
ATOM      3  N   UNL     1       4.242   0.606   0.287  0.00  0.00    -0.304 N 
ATOM      4  C   UNL     1       3.991   1.694  -0.536  0.00  0.00    +0.222 C 
ATOM      5  H   UNL     1       4.088   0.706   1.254  0.00  0.00    +0.149 HD
BRANCH   3   6
ATOM      6  C   UNL     1       4.718  -0.666  -0.205  0.00  0.00    +0.087 C 
BRANCH   6   7
ATOM      7  C   UNL     1       3.582  -1.613  -0.572  0.00  0.00    +0.004 C 
BRANCH   7   8
ATOM      8  C   UNL     1       2.671  -1.908   0.610  0.00  0.00    -0.026 C 
BRANCH   8  10
ATOM      9  O   UNL     1       2.174  -3.877  -0.560  0.00  0.00    -0.290 OA
ATOM     10  N   UNL     1       1.626  -2.884   0.222  0.00  0.00    +0.428 N 
ATOM     11  C   UNL     1       0.535  -2.201  -0.566  0.00  0.00    -0.045 C 
ATOM     12  C   UNL     1       1.019  -3.520   1.448  0.00  0.00    -0.045 C 
ENDBRANCH   8  10
ENDBRANCH   7   8
ENDBRANCH   6   7
ENDBRANCH   3   6
ENDBRANCH   1   4
BRANCH   1  13
ATOM     13  C   UNL     1       2.209   2.604   1.016  0.00  0.00    +0.010 C 
BRANCH  13  14
ATOM     14  C   UNL     1       1.091   2.177   0.064  0.00  0.00    +0.001 C 
BRANCH  14  15
ATOM     15  C   UNL     1      -0.215   1.920   0.818  0.00  0.00    +0.000 C 
BRANCH  15  16
ATOM     16  C   UNL     1      -1.341   1.524  -0.139  0.00  0.00    +0.000 C 
BRANCH  16  17
ATOM     17  C   UNL     1      -2.638   1.235   0.620  0.00  0.00    +0.000 C 
BRANCH  17  18
ATOM     18  C   UNL     1      -3.799   0.825  -0.291  0.00  0.00    +0.000 C 
BRANCH  18  19
ATOM     19  C   UNL     1      -5.119   0.501   0.417  0.00  0.00    +0.000 C 
BRANCH  19  20
ATOM     20  C   UNL     1      -6.223   0.044  -0.540  0.00  0.00    +0.000 C 
BRANCH  20  21
ATOM     21  C   UNL     1      -7.543  -0.272   0.169  0.00  0.00    +0.000 C 
ATOM     22  C   UNL     1      -8.622  -0.796  -0.766  0.00  0.00    +0.000 C 
ENDBRANCH  20  21
ENDBRANCH  19  20
ENDBRANCH  18  19
ENDBRANCH  17  18
ENDBRANCH  16  17
ENDBRANCH  15  16
ENDBRANCH  14  15
ENDBRANCH  13  14
ENDBRANCH   1  13
TORSDOF 14
