REMARK  Name = 6335986
REMARK  8 active torsions:
REMARK  status: ('A' for Active; 'I' for Inactive)
REMARK    1  A    between atoms: N_2  and  CA_9
REMARK    2  A    between atoms: C_3  and  C_22
REMARK    3  A    between atoms: CA_11  and  C_15
REMARK    4  A    between atoms: C_12  and  C_18
REMARK    5  A    between atoms: C_15  and  O_16
REMARK    6  A    between atoms: C_18  and  O_19
REMARK    7  A    between atoms: N_21  and  O_31
REMARK    8  A    between atoms: C_22  and  C_26
REMARK                            x       y       z     vdW  Elec       q    Type
REMARK                         _______ _______ _______ _____ _____    ______ ____
ROOT
ATOM      1  O   UNL     1       2.247   1.531   1.863  0.00  0.00    -0.268 OA
ATOM      2  N   UNL     1       0.997   1.314  -0.112  0.00  0.00    -0.291 N 
ATOM      3  C   UNL     1       2.114   1.194   0.698  0.00  0.00    +0.269 C 
ATOM      4  H   UNL     1       1.051   0.991  -1.040  0.00  0.00    +0.150 HD
ENDROOT
BRANCH   2   9
ATOM      5  S   UNL     1      -1.323   0.812  -2.055  0.00  0.00    -0.114 S 
ATOM      6  O   UNL     1      -0.764   0.686   2.558  0.00  0.00    -0.273 OA
ATOM      7  N   UNL     1      -1.953   0.757   0.523  0.00  0.00    -0.242 N 
ATOM      8  C   UNL     1      -1.531   1.701  -0.495  0.00  0.00    +0.155 C 
ATOM      9  CA  UNL     1      -0.258   1.902   0.355  0.00  0.00    +0.179 C 
ATOM     10  C   UNL     1      -0.988   1.041   1.425  0.00  0.00    +0.251 C 
ATOM     11  CA  UNL     1      -3.026  -0.065   0.393  0.00  0.00    +0.126 C 
ATOM     12  C   UNL     1      -3.611  -0.278  -0.810  0.00  0.00    +0.016 C 
ATOM     13  C   UNL     1      -3.071   0.291  -2.120  0.00  0.00    +0.085 C 
BRANCH  11  15
ATOM     14  OXT UNL     1      -3.047  -1.831   1.983  0.00  0.00    -0.244 OA
ATOM     15  C   UNL     1      -3.483  -0.763   1.603  0.00  0.00    +0.351 C 
BRANCH  15  16
ATOM     16  O   UNL     1      -4.444  -0.034   2.205  0.00  0.00    -0.476 OA
ATOM     17  H   UNL     1      -4.714   0.782   1.833  0.00  0.00    +0.295 HD
ENDBRANCH  15  16
ENDBRANCH  11  15
BRANCH  12  18
ATOM     18  C   UNL     1      -4.853  -1.110  -1.024  0.00  0.00    +0.167 C 
BRANCH  18  19
ATOM     19  O   UNL     1      -5.862  -0.306  -1.597  0.00  0.00    -0.347 OA
ATOM     20  C   UNL     1      -7.062  -1.040  -1.823  0.00  0.00    +0.175 C 
ENDBRANCH  18  19
ENDBRANCH  12  18
ENDBRANCH   2   9
BRANCH   3  22
ATOM     21  N   UNL     1       4.139   1.300  -0.647  0.00  0.00    -0.076 NA
ATOM     22  C   UNL     1       3.286   0.560  -0.005  0.00  0.00    +0.198 C 
BRANCH  22  26
ATOM     23  S   UNL     1       3.221  -3.348   0.431  0.00  0.00    -0.060 S 
ATOM     24  N   UNL     1       4.567  -1.420  -0.644  0.00  0.00    -0.383 NA
ATOM     25  N   UNL     1       5.448  -3.584  -1.003  0.00  0.00    -0.328 N 
ATOM     26  C   UNL     1       3.489  -0.892   0.008  0.00  0.00    +0.148 C 
ATOM     27  C   UNL     1       2.644  -1.748   0.648  0.00  0.00    +0.127 C 
ATOM     28  C   UNL     1       4.530  -2.725  -0.488  0.00  0.00    +0.204 C 
ATOM     29  H   UNL     1       5.359  -4.552  -0.847  0.00  0.00    +0.145 HD
ATOM     30  H   UNL     1       6.203  -3.239  -1.533  0.00  0.00    +0.145 HD
ENDBRANCH  22  26
BRANCH  21  31
ATOM     31  O   UNL     1       3.808   2.660  -0.574  0.00  0.00    -0.373 OA
ATOM     32  C   UNL     1       4.786   3.391  -1.297  0.00  0.00    +0.288 C 
ENDBRANCH  21  31
ENDBRANCH   3  22
TORSDOF 8
