REMARK  Name = 4870
REMARK  6 active torsions:
REMARK  status: ('A' for Active; 'I' for Inactive)
REMARK    1  A    between atoms: C_7  and  C_22
REMARK    2  A    between atoms: C_13  and  S_16
REMARK    3  A    between atoms: S_16  and  N_19
REMARK    4  A    between atoms: C_22  and  S_23
REMARK    5  A    between atoms: S_23  and  C_24
REMARK    6  A    between atoms: C_24  and  C_28
REMARK                            x       y       z     vdW  Elec       q    Type
REMARK                         _______ _______ _______ _____ _____    ______ ____
ROOT
ATOM      1 CL   UNL     1      -3.219  -3.375   0.226  0.00  0.00    -0.081 Cl
ATOM      2  S   UNL     1      -0.957   2.433  -0.394  0.00  0.00    +0.066 S 
ATOM      3  O   UNL     1      -1.807   3.323   0.372  0.00  0.00    -0.153 OA
ATOM      4  O   UNL     1      -0.751   2.631  -1.816  0.00  0.00    -0.153 OA
ATOM      5  N   UNL     1       0.581   2.271   0.401  0.00  0.00    -0.137 NA
ATOM      6  N   UNL     1       0.702  -0.152  -0.042  0.00  0.00    -0.319 N 
ATOM      7  C   UNL     1       1.374   1.131  -0.184  0.00  0.00    +0.162 C 
ATOM      8  C   UNL     1      -1.575   0.786  -0.220  0.00  0.00    +0.137 C 
ATOM      9  C   UNL     1      -0.678  -0.288  -0.095  0.00  0.00    +0.065 C 
ATOM     10  C   UNL     1       0.552   2.292   1.894  0.00  0.00    +0.117 C 
ATOM     11  C   UNL     1      -2.961   0.608  -0.214  0.00  0.00    +0.042 C 
ATOM     12  C   UNL     1      -1.238  -1.568   0.047  0.00  0.00    +0.028 C 
ATOM     13  C   UNL     1      -3.482  -0.675  -0.080  0.00  0.00    +0.134 C 
ATOM     14  C   UNL     1      -2.623  -1.762   0.050  0.00  0.00    +0.078 C 
ATOM     15  H   UNL     1       1.250  -0.958   0.098  0.00  0.00    +0.148 HD
ENDROOT
BRANCH  13  16
ATOM     16  S   UNL     1      -5.225  -0.860  -0.081  0.00  0.00    +0.058 S 
ATOM     17  O   UNL     1      -5.801   0.276  -0.782  0.00  0.00    -0.153 OA
ATOM     18  O   UNL     1      -5.540  -2.214  -0.506  0.00  0.00    -0.153 OA
BRANCH  16  19
ATOM     19  N   UNL     1      -5.562  -0.712   1.587  0.00  0.00    -0.203 NA
ATOM     20  H   UNL     1      -6.567  -0.801   1.740  0.00  0.00    +0.144 HD
ATOM     21  H   UNL     1      -5.248   0.201   1.917  0.00  0.00    +0.144 HD
ENDBRANCH  16  19
ENDBRANCH  13  16
BRANCH   7  22
ATOM     22  C   UNL     1       2.779   1.053   0.405  0.00  0.00    +0.096 C 
BRANCH  22  23
ATOM     23  S   UNL     1       3.754  -0.205  -0.459  0.00  0.00    -0.128 S 
BRANCH  23  24
ATOM     24  C   UNL     1       5.298  -0.028   0.466  0.00  0.00    +0.161 C 
BRANCH  24  28
ATOM     25  F   UNL     1       7.495  -0.893   0.676  0.00  0.00    -0.169 F 
ATOM     26  F   UNL     1       5.915  -2.285   0.085  0.00  0.00    -0.169 F 
ATOM     27  F   UNL     1       6.627  -0.780  -1.319  0.00  0.00    -0.169 F 
ATOM     28  C   UNL     1       6.342  -1.008  -0.016  0.00  0.00    +0.408 C 
ENDBRANCH  24  28
ENDBRANCH  23  24
ENDBRANCH  22  23
ENDBRANCH   7  22
TORSDOF 6
