REMARK  Name = 23615404
REMARK  11 active torsions:
REMARK  status: ('A' for Active; 'I' for Inactive)
REMARK    1  A    between atoms: C_1  and  O_2
REMARK    2  A    between atoms: C_1  and  C_4
REMARK    3  A    between atoms: C_1  and  C_12
REMARK    4  A    between atoms: C_4  and  O_5
REMARK    5  A    between atoms: C_4  and  C_8
REMARK    6  A    between atoms: C_8  and  C_9
REMARK    7  A    between atoms: C_9  and  O_10
REMARK    8  A    between atoms: C_12  and  O_13
REMARK    9  A    between atoms: O_13  and  P_14
REMARK   10  A    between atoms: P_14  and  O_16
REMARK   11  A    between atoms: P_14  and  O_18
REMARK                            x       y       z     vdW  Elec       q    Type
REMARK                         _______ _______ _______ _____ _____    ______ ____
ROOT
ATOM      1  C   UNL     1       0.398  -0.143   0.195  0.00  0.00    +0.175 C 
ENDROOT
BRANCH   1   2
ATOM      2  O   UNL     1       0.578   0.035   1.602  0.00  0.00    -0.379 OA
ATOM      3  H   UNL     1       1.459  -0.280   1.858  0.00  0.00    +0.211 HD
ENDBRANCH   1   2
BRANCH   1   4
ATOM      4  C   UNL     1       1.487   0.616  -0.570  0.00  0.00    +0.200 C 
BRANCH   4   5
ATOM      5  O   UNL     1       1.366   2.008  -0.311  0.00  0.00    -0.375 OA
ATOM      6  H   UNL     1       0.474   2.304  -0.551  0.00  0.00    +0.211 HD
ENDBRANCH   4   5
BRANCH   4   8
ATOM      7  O   UNL     1       3.699   0.931   0.344  0.00  0.00    -0.291 OA
ATOM      8  C   UNL     1       2.895   0.165  -0.188  0.00  0.00    +0.209 C 
BRANCH   8   9
ATOM      9  C   UNL     1       3.247  -1.284  -0.469  0.00  0.00    +0.205 C 
BRANCH   9  10
ATOM     10  O   UNL     1       4.575  -1.557  -0.073  0.00  0.00    -0.375 OA
ATOM     11  H   UNL     1       4.784  -2.486  -0.260  0.00  0.00    +0.211 HD
ENDBRANCH   9  10
ENDBRANCH   8   9
ENDBRANCH   4   8
ENDBRANCH   1   4
BRANCH   1  12
ATOM     12  C   UNL     1      -1.000   0.366  -0.153  0.00  0.00    +0.186 C 
BRANCH  12  13
ATOM     13  O   UNL     1      -1.957  -0.620   0.221  0.00  0.00    -0.271 OA
BRANCH  13  14
ATOM     14  P   UNL     1      -3.519  -0.310  -0.049  0.00  0.00    +0.473 P 
ATOM     15  O   UNL     1      -4.465  -1.397   0.372  0.00  0.00    -0.227 OA
BRANCH  14  16
ATOM     16  O   UNL     1      -3.570   0.082  -1.617  0.00  0.00    -0.303 OA
ATOM     17  H   UNL     1      -2.929   0.787  -1.794  0.00  0.00    +0.222 HD
ENDBRANCH  14  16
BRANCH  14  18
ATOM     18  O   UNL     1      -3.734   1.109   0.697  0.00  0.00    -0.303 OA
ATOM     19  H   UNL     1      -3.084   1.749   0.366  0.00  0.00    +0.222 HD
ENDBRANCH  14  18
ENDBRANCH  13  14
ENDBRANCH  12  13
ENDBRANCH   1  12
TORSDOF 11
