REMARK  Name = 60953
REMARK  8 active torsions:
REMARK  status: ('A' for Active; 'I' for Inactive)
REMARK    1  A    between atoms: N_4  and  C_16
REMARK    2  A    between atoms: C_11  and  O_23
REMARK    3  A    between atoms: C_14  and  O_19
REMARK    4  A    between atoms: C_15  and  O_21
REMARK    5  A    between atoms: O_23  and  C_24
REMARK    6  A    between atoms: C_24  and  C_25
REMARK    7  A    between atoms: C_25  and  C_26
REMARK    8  A    between atoms: C_26  and  C_27
REMARK                            x       y       z     vdW  Elec       q    Type
REMARK                         _______ _______ _______ _____ _____    ______ ____
ROOT
ATOM      1  F   UNL     1      -0.142  -2.690  -0.156  0.00  0.00    -0.199 F 
ATOM      2  O   UNL     1      -1.775   2.363   0.616  0.00  0.00    -0.193 OA
ATOM      3  O   UNL     1       2.535   1.464   0.300  0.00  0.00    -0.226 OA
ATOM      4  N   UNL     1      -2.360   0.142   0.334  0.00  0.00    -0.176 N 
ATOM      5  N   UNL     1      -0.055   0.901   0.337  0.00  0.00    -0.303 NA
ATOM      6  N   UNL     1       1.626  -0.660   0.047  0.00  0.00    -0.223 N 
ATOM      7  C   UNL     1      -1.918  -1.161   0.135  0.00  0.00    +0.113 C 
ATOM      8  C   UNL     1      -1.409   1.199   0.438  0.00  0.00    +0.276 C 
ATOM      9  C   UNL     1      -0.625  -1.453   0.037  0.00  0.00    +0.200 C 
ATOM     10  C   UNL     1       0.304  -0.327   0.151  0.00  0.00    +0.232 C 
ATOM     11  C   UNL     1       2.656   0.256   0.128  0.00  0.00    +0.407 C 
ATOM     12  H   UNL     1       1.857  -1.607  -0.095  0.00  0.00    +0.161 HD
ENDROOT
BRANCH   4  16
ATOM     13  O   UNL     1      -4.422  -0.703   1.042  0.00  0.00    -0.335 OA
ATOM     14  C   UNL     1      -4.415   0.623  -0.923  0.00  0.00    +0.188 C 
ATOM     15  C   UNL     1      -5.827   0.140  -0.669  0.00  0.00    +0.169 C 
ATOM     16  C   UNL     1      -3.764   0.422   0.435  0.00  0.00    +0.236 C 
ATOM     17  C   UNL     1      -5.599  -1.034   0.273  0.00  0.00    +0.146 C 
ATOM     18  C   UNL     1      -5.337  -2.347  -0.455  0.00  0.00    +0.035 C 
BRANCH  14  19
ATOM     19  O   UNL     1      -4.376   1.969  -1.350  0.00  0.00    -0.378 OA
ATOM     20  H   UNL     1      -4.802   2.045  -2.218  0.00  0.00    +0.211 HD
ENDBRANCH  14  19
BRANCH  15  21
ATOM     21  O   UNL     1      -6.570   1.133   0.039  0.00  0.00    -0.379 OA
ATOM     22  H   UNL     1      -6.728   1.893  -0.542  0.00  0.00    +0.211 HD
ENDBRANCH  15  21
ENDBRANCH   4  16
BRANCH  11  23
ATOM     23  O   UNL     1       3.850  -0.393  -0.013  0.00  0.00    -0.434 OA
BRANCH  23  24
ATOM     24  C   UNL     1       5.019   0.431   0.051  0.00  0.00    +0.210 C 
BRANCH  24  25
ATOM     25  C   UNL     1       6.251  -0.446  -0.124  0.00  0.00    +0.048 C 
BRANCH  25  26
ATOM     26  C   UNL     1       7.538   0.374  -0.081  0.00  0.00    +0.004 C 
BRANCH  26  27
ATOM     27  C   UNL     1       8.767  -0.509  -0.299  0.00  0.00    +0.000 C 
ATOM     28  C   UNL     1      10.049   0.309  -0.291  0.00  0.00    +0.000 C 
ENDBRANCH  26  27
ENDBRANCH  25  26
ENDBRANCH  24  25
ENDBRANCH  23  24
ENDBRANCH  11  23
TORSDOF 8
