REMARK  Name = 57363
REMARK  2 active torsions:
REMARK  status: ('A' for Active; 'I' for Inactive)
REMARK    1  A    between atoms: C_8  and  C_24
REMARK    2  A    between atoms: N_23  and  C_26
REMARK                            x       y       z     vdW  Elec       q    Type
REMARK                         _______ _______ _______ _____ _____    ______ ____
ROOT
ATOM      1  O   UNL     1       7.102  -1.219  -0.226  0.00  0.00    -0.270 OA
ATOM      2  N   UNL     1       5.366   0.292  -0.074  0.00  0.00    -0.302 N 
ATOM      3  C   UNL     1      -0.275   1.427  -0.433  0.00  0.00    +0.000 C 
ATOM      4  C   UNL     1      -1.319   0.437   0.129  0.00  0.00    +0.008 C 
ATOM      5  C   UNL     1       1.129   1.204   0.139  0.00  0.00    +0.000 C 
ATOM      6  C   UNL     1       1.589  -0.250  -0.228  0.00  0.00    +0.005 C 
ATOM      7  C   UNL     1       3.049  -0.534   0.275  0.00  0.00    +0.035 C 
ATOM      8  C   UNL     1      -2.578   0.965  -0.595  0.00  0.00    +0.076 C 
ATOM      9  C   UNL     1      -0.889  -0.980  -0.275  0.00  0.00    +0.000 C 
ATOM     10  C   UNL     1       0.536  -1.304   0.212  0.00  0.00    +0.000 C 
ATOM     11  C   UNL     1      -0.945   2.785  -0.255  0.00  0.00    +0.001 C 
ATOM     12  C   UNL     1       2.120   2.263  -0.369  0.00  0.00    +0.002 C 
ATOM     13  C   UNL     1      -2.431   2.500  -0.542  0.00  0.00    +0.009 C 
ATOM     14  C   UNL     1       3.963   0.567  -0.335  0.00  0.00    +0.075 C 
ATOM     15  C   UNL     1       3.554   1.979   0.074  0.00  0.00    +0.020 C 
ATOM     16  C   UNL     1      -1.492   0.512   1.669  0.00  0.00    +0.000 C 
ATOM     17  C   UNL     1       3.122  -0.568   1.821  0.00  0.00    +0.006 C 
ATOM     18  C   UNL     1       3.607  -1.862  -0.219  0.00  0.00    -0.021 C 
ATOM     19  C   UNL     1       4.909  -2.055  -0.480  0.00  0.00    +0.053 C 
ATOM     20  C   UNL     1       5.900  -0.969  -0.253  0.00  0.00    +0.246 C 
ATOM     21  H   UNL     1       5.949   1.022   0.237  0.00  0.00    +0.150 HD
ENDROOT
BRANCH   8  24
ATOM     22  O   UNL     1      -4.430   1.102   0.902  0.00  0.00    -0.275 OA
ATOM     23  N   UNL     1      -4.317  -0.679  -0.592  0.00  0.00    -0.307 N 
ATOM     24  C   UNL     1      -3.872   0.495  -0.008  0.00  0.00    +0.222 C 
ATOM     25  H   UNL     1      -3.781  -1.073  -1.318  0.00  0.00    +0.149 HD
BRANCH  23  26
ATOM     26  C   UNL     1      -5.531  -1.352  -0.190  0.00  0.00    +0.057 C 
ATOM     27  C   UNL     1      -5.718  -2.612  -1.042  0.00  0.00    +0.020 C 
ATOM     28  C   UNL     1      -5.423  -1.737   1.289  0.00  0.00    +0.020 C 
ATOM     29  C   UNL     1      -6.724  -0.411  -0.395  0.00  0.00    +0.020 C 
ENDBRANCH  23  26
ENDBRANCH   8  24
TORSDOF 2
