REMARK  Name = 3305
REMARK  7 active torsions:
REMARK  status: ('A' for Active; 'I' for Inactive)
REMARK    1  A    between atoms: C_1  and  P_3
REMARK    2  A    between atoms: C_1  and  P_9
REMARK    3  A    between atoms: C_1  and  O_15
REMARK    4  A    between atoms: P_3  and  O_5
REMARK    5  A    between atoms: P_3  and  O_7
REMARK    6  A    between atoms: P_9  and  O_11
REMARK    7  A    between atoms: P_9  and  O_13
REMARK                            x       y       z     vdW  Elec       q    Type
REMARK                         _______ _______ _______ _____ _____    ______ ____
ROOT
ATOM      1  C   UNL     1      -0.011  -0.613  -0.087  0.00  0.00    +0.275 C 
ATOM      2  C   UNL     1       0.053  -1.778   0.904  0.00  0.00    +0.055 C 
ENDROOT
BRANCH   1   3
ATOM      3  P   UNL     1       1.548   0.332  -0.036  0.00  0.00    +0.372 P 
ATOM      4  O   UNL     1       1.583   1.500  -0.976  0.00  0.00    -0.255 OA
BRANCH   3   5
ATOM      5  O   UNL     1       2.685  -0.787  -0.293  0.00  0.00    -0.322 OA
ATOM      6  H   UNL     1       3.560  -0.367  -0.283  0.00  0.00    +0.220 HD
ENDBRANCH   3   5
BRANCH   3   7
ATOM      7  O   UNL     1       1.738   0.702   1.527  0.00  0.00    -0.322 OA
ATOM      8  H   UNL     1       2.556   1.211   1.641  0.00  0.00    +0.220 HD
ENDBRANCH   3   7
ENDBRANCH   1   3
BRANCH   1   9
ATOM      9  P   UNL     1      -1.645   0.201   0.036  0.00  0.00    +0.372 P 
ATOM     10  O   UNL     1      -2.801  -0.704  -0.270  0.00  0.00    -0.255 OA
BRANCH   9  11
ATOM     11  O   UNL     1      -1.505   1.490  -0.929  0.00  0.00    -0.322 OA
ATOM     12  H   UNL     1      -2.337   1.988  -0.926  0.00  0.00    +0.220 HD
ENDBRANCH   9  11
BRANCH   9  13
ATOM     13  O   UNL     1      -1.613   0.834   1.522  0.00  0.00    -0.322 OA
ATOM     14  H   UNL     1      -2.448   1.297   1.694  0.00  0.00    +0.220 HD
ENDBRANCH   9  13
ENDBRANCH   1   9
BRANCH   1  15
ATOM     15  O   UNL     1      -0.031  -1.177  -1.398  0.00  0.00    -0.367 OA
ATOM     16  H   UNL     1      -0.072  -0.465  -2.056  0.00  0.00    +0.212 HD
ENDBRANCH   1  15
TORSDOF 7
