REMARK  Name = 2717
REMARK  1 active torsions:
REMARK  status: ('A' for Active; 'I' for Inactive)
REMARK    1  A    between atoms: C_6  and  C_12
REMARK                            x       y       z     vdW  Elec       q    Type
REMARK                         _______ _______ _______ _____ _____    ______ ____
ROOT
ATOM      1  S   UNL     1      -1.325   1.726   0.078  0.00  0.00    +0.010 S 
ATOM      2  O   UNL     1      -1.720   2.722  -0.900  0.00  0.00    -0.171 OA
ATOM      3  O   UNL     1      -0.427   2.075   1.163  0.00  0.00    -0.171 OA
ATOM      4  O   UNL     1      -2.894  -2.403   0.422  0.00  0.00    -0.275 OA
ATOM      5  N   UNL     1      -1.521  -0.938  -0.751  0.00  0.00    -0.257 N 
ATOM      6  C   UNL     1      -0.702   0.290  -0.807  0.00  0.00    +0.229 C 
ATOM      7  C   UNL     1      -2.808   1.098   0.819  0.00  0.00    +0.163 C 
ATOM      8  C   UNL     1      -2.542  -0.271   1.403  0.00  0.00    +0.111 C 
ATOM      9  C   UNL     1      -2.344  -1.304   0.315  0.00  0.00    +0.229 C 
ATOM     10  C   UNL     1      -1.342  -1.877  -1.856  0.00  0.00    +0.117 C 
ENDROOT
BRANCH   6  12
ATOM     11 CL   UNL     1       5.082  -0.519   0.670  0.00  0.00    -0.082 Cl
ATOM     12  C   UNL     1       0.753   0.088  -0.434  0.00  0.00    +0.018 C 
ATOM     13  C   UNL     1       1.735   0.897  -1.002  0.00  0.00    -0.000 C 
ATOM     14  C   UNL     1       1.106  -0.909   0.474  0.00  0.00    -0.000 C 
ATOM     15  C   UNL     1       3.075   0.710  -0.660  0.00  0.00    +0.011 C 
ATOM     16  C   UNL     1       2.445  -1.096   0.816  0.00  0.00    +0.011 C 
ATOM     17  C   UNL     1       3.429  -0.287   0.249  0.00  0.00    +0.058 C 
ENDBRANCH   6  12
TORSDOF 1
