REMARK  Name = 92943
REMARK  6 active torsions:
REMARK  status: ('A' for Active; 'I' for Inactive)
REMARK    1  A    between atoms: C_1  and  C_4
REMARK    2  A    between atoms: C_1  and  C_9
REMARK    3  A    between atoms: C_1  and  C_15
REMARK    4  A    between atoms: C_1  and  C_21
REMARK    5  A    between atoms: C_21  and  C_23
REMARK    6  A    between atoms: C_23  and  N_25
REMARK                            x       y       z     vdW  Elec       q    Type
REMARK                         _______ _______ _______ _____ _____    ______ ____
ROOT
ATOM      1  C   UNL     1       0.859  -0.167  -0.136  0.00  0.00    +0.104 C 
ENDROOT
BRANCH   1   4
ATOM      2  O   UNL     1       0.667  -0.196  -2.509  0.00  0.00    -0.274 OA
ATOM      3  N   UNL     1      -0.095   1.689  -1.411  0.00  0.00    -0.279 N 
ATOM      4  C   UNL     1       0.471   0.428  -1.465  0.00  0.00    +0.232 C 
ATOM      5  C   UNL     1      -1.062   2.150  -2.397  0.00  0.00    +0.093 C 
ATOM      6  C   UNL     1       0.163   2.720  -0.410  0.00  0.00    +0.093 C 
ATOM      7  C   UNL     1      -1.651   3.414  -1.791  0.00  0.00    +0.023 C 
ATOM      8  C   UNL     1      -0.489   3.972  -0.978  0.00  0.00    +0.023 C 
ENDBRANCH   1   4
BRANCH   1   9
ATOM      9  C   UNL     1       1.483  -1.582  -0.317  0.00  0.00    -0.011 C 
ATOM     10  C   UNL     1       2.402  -1.990   0.604  0.00  0.00    -0.004 C 
ATOM     11  C   UNL     1       1.071  -2.322  -1.385  0.00  0.00    -0.004 C 
ATOM     12  C   UNL     1       2.961  -3.258   0.442  0.00  0.00    -0.000 C 
ATOM     13  C   UNL     1       1.630  -3.590  -1.547  0.00  0.00    -0.000 C 
ATOM     14  C   UNL     1       2.575  -4.058  -0.633  0.00  0.00    -0.000 C 
ENDBRANCH   1   9
BRANCH   1  15
ATOM     15  C   UNL     1       1.952   0.692   0.566  0.00  0.00    -0.011 C 
ATOM     16  C   UNL     1       3.143   0.849  -0.080  0.00  0.00    -0.004 C 
ATOM     17  C   UNL     1       1.649   1.232   1.781  0.00  0.00    -0.004 C 
ATOM     18  C   UNL     1       4.122   1.619   0.548  0.00  0.00    -0.000 C 
ATOM     19  C   UNL     1       2.628   2.001   2.409  0.00  0.00    -0.000 C 
ATOM     20  C   UNL     1       3.865   2.195   1.792  0.00  0.00    -0.000 C 
ENDBRANCH   1  15
BRANCH   1  21
ATOM     21  C   UNL     1      -0.519  -0.200   0.684  0.00  0.00    -0.005 C 
ATOM     22  C   UNL     1      -0.331  -0.721   2.129  0.00  0.00    -0.001 C 
BRANCH  21  23
ATOM     23  C   UNL     1      -1.619  -1.036  -0.033  0.00  0.00    -0.076 C 
BRANCH  23  25
ATOM     24  O   UNL     1      -5.686  -0.326   0.723  0.00  0.00    -0.358 OA
ATOM     25  N   UNL     1      -2.911  -0.957   0.645  0.00  0.00    +0.390 N 
ATOM     26  C   UNL     1      -3.382   0.434   0.709  0.00  0.00    -0.045 C 
ATOM     27  C   UNL     1      -3.909  -1.796  -0.033  0.00  0.00    -0.045 C 
ATOM     28  C   UNL     1      -4.736   0.490   1.409  0.00  0.00    +0.119 C 
ATOM     29  C   UNL     1      -5.251  -1.686   0.684  0.00  0.00    +0.119 C 
ATOM     30  H   UNL     1      -2.787  -1.302   1.596  0.00  0.00    -0.079 HD
ENDBRANCH  23  25
ENDBRANCH  21  23
ENDBRANCH   1  21
TORSDOF 6
