REMARK  Name = 2218
REMARK  8 active torsions:
REMARK  status: ('A' for Active; 'I' for Inactive)
REMARK    1  A    between atoms: N_1  and  C_2
REMARK    2  A    between atoms: N_1  and  C_11
REMARK    3  A    between atoms: N_1  and  C_17
REMARK    4  A    between atoms: C_17  and  C_18
REMARK    5  A    between atoms: C_18  and  C_19
REMARK    6  A    between atoms: C_19  and  N_20
REMARK    7  A    between atoms: N_20  and  C_22
REMARK    8  A    between atoms: N_20  and  C_24
REMARK                            x       y       z     vdW  Elec       q    Type
REMARK                         _______ _______ _______ _____ _____    ______ ____
ROOT
ATOM      1  N   UNL     1      -0.115  -0.667  -0.321  0.00  0.00    -0.309 N 
ENDROOT
BRANCH   1   2
ATOM      2  C   UNL     1       0.741  -1.840  -0.294  0.00  0.00    +0.081 C 
ATOM      3  C   UNL     1       1.784  -1.747  -1.426  0.00  0.00    +0.046 C 
ATOM      4  C   UNL     1       1.527  -1.889   1.031  0.00  0.00    +0.046 C 
ATOM      5  C   UNL     1       2.938  -1.097  -0.726  0.00  0.00    -0.024 C 
ATOM      6  C   UNL     1       2.793  -1.177   0.663  0.00  0.00    -0.024 C 
ATOM      7  C   UNL     1       4.058  -0.513  -1.294  0.00  0.00    -0.005 C 
ATOM      8  C   UNL     1       3.765  -0.676   1.513  0.00  0.00    -0.005 C 
ATOM      9  C   UNL     1       5.037   0.006  -0.445  0.00  0.00    -0.000 C 
ATOM     10  C   UNL     1       4.892  -0.075   0.949  0.00  0.00    -0.000 C 
ENDBRANCH   1   2
BRANCH   1  11
ATOM     11  C   UNL     1       0.417   0.618  -0.192  0.00  0.00    +0.048 C 
ATOM     12  C   UNL     1       0.817   1.339  -1.326  0.00  0.00    +0.015 C 
ATOM     13  C   UNL     1       0.559   1.205   1.073  0.00  0.00    +0.015 C 
ATOM     14  C   UNL     1       1.349   2.622  -1.197  0.00  0.00    +0.001 C 
ATOM     15  C   UNL     1       1.091   2.488   1.202  0.00  0.00    +0.001 C 
ATOM     16  C   UNL     1       1.486   3.197   0.067  0.00  0.00    +0.000 C 
ENDBRANCH   1  11
BRANCH   1  17
ATOM     17  C   UNL     1      -1.553  -0.865  -0.473  0.00  0.00    +0.089 C 
BRANCH  17  18
ATOM     18  C   UNL     1      -2.247  -0.857   0.889  0.00  0.00    -0.001 C 
BRANCH  18  19
ATOM     19  C   UNL     1      -3.756  -1.113   0.838  0.00  0.00    -0.076 C 
BRANCH  19  20
ATOM     20  N   UNL     1      -4.446  -0.137   0.004  0.00  0.00    +0.387 N 
ATOM     21  H   UNL     1      -4.053  -0.187  -0.936  0.00  0.00    -0.080 HD
BRANCH  20  22
ATOM     22  C   UNL     1      -5.876  -0.444  -0.073  0.00  0.00    -0.077 C 
ATOM     23  C   UNL     1      -6.109  -1.846  -0.608  0.00  0.00    -0.025 C 
ENDBRANCH  20  22
BRANCH  20  24
ATOM     24  C   UNL     1      -4.245   1.217   0.521  0.00  0.00    -0.077 C 
ATOM     25  C   UNL     1      -4.904   2.252  -0.376  0.00  0.00    -0.025 C 
ENDBRANCH  20  24
ENDBRANCH  19  20
ENDBRANCH  18  19
ENDBRANCH  17  18
ENDBRANCH   1  17
TORSDOF 8
