REMARK  Name = 33255
REMARK  8 active torsions:
REMARK  status: ('A' for Active; 'I' for Inactive)
REMARK    1  A    between atoms: CA_5  and  N_11
REMARK    2  A    between atoms: CA_7  and  C_21
REMARK    3  A    between atoms: C_8  and  C_24
REMARK    4  A    between atoms: C_12  and  C_14
REMARK    5  A    between atoms: C_14  and  N_15
REMARK    6  A    between atoms: C_21  and  O_22
REMARK    7  A    between atoms: C_24  and  S_25
REMARK    8  A    between atoms: S_25  and  C_29
REMARK                            x       y       z     vdW  Elec       q    Type
REMARK                         _______ _______ _______ _____ _____    ______ ____
ROOT
ATOM      1  S   UNL     1       0.298  -0.820   2.462  0.00  0.00    -0.114 S 
ATOM      2  O   UNL     1       1.768  -1.357  -1.916  0.00  0.00    -0.273 OA
ATOM      3  N   UNL     1       0.274  -1.522  -0.099  0.00  0.00    -0.242 N 
ATOM      4  C   UNL     1       0.781  -1.995   1.177  0.00  0.00    +0.155 C 
ATOM      5  CA  UNL     1       2.192  -1.813   0.575  0.00  0.00    +0.178 C 
ATOM      6  C   UNL     1       1.448  -1.549  -0.766  0.00  0.00    +0.251 C 
ATOM      7  CA  UNL     1      -1.027  -1.205  -0.323  0.00  0.00    +0.124 C 
ATOM      8  C   UNL     1      -1.898  -1.027   0.699  0.00  0.00    -0.002 C 
ATOM      9  C   UNL     1      -1.487  -1.062   2.169  0.00  0.00    +0.083 C 
ENDROOT
BRANCH   5  11
ATOM     10  O   UNL     1       4.596  -0.793  -0.662  0.00  0.00    -0.273 OA
ATOM     11  N   UNL     1       3.005  -0.684   1.024  0.00  0.00    -0.295 N 
ATOM     12  C   UNL     1       4.156  -0.265   0.356  0.00  0.00    +0.245 C 
ATOM     13  H   UNL     1       2.729  -0.198   1.835  0.00  0.00    +0.150 HD
BRANCH  12  14
ATOM     14  C   UNL     1       4.806   0.921   1.035  0.00  0.00    +0.204 C 
BRANCH  14  15
ATOM     15  N   UNL     1       6.004   1.382   0.341  0.00  0.00    -0.162 N 
ATOM     16  N   UNL     1       7.199   0.887   0.648  0.00  0.00    -0.051 NA
ATOM     17  N   UNL     1       7.358   2.410  -0.972  0.00  0.00    -0.108 NA
ATOM     18  N   UNL     1       8.034   1.523  -0.165  0.00  0.00    -0.025 NA
ATOM     19  C   UNL     1       6.093   2.302  -0.636  0.00  0.00    +0.211 C 
ENDBRANCH  14  15
ENDBRANCH  12  14
ENDBRANCH   5  11
BRANCH   7  21
ATOM     20  OXT UNL     1      -1.350   0.058  -2.311  0.00  0.00    -0.244 OA
ATOM     21  C   UNL     1      -1.432  -1.001  -1.722  0.00  0.00    +0.351 C 
BRANCH  21  22
ATOM     22  O   UNL     1      -1.898  -2.160  -2.226  0.00  0.00    -0.476 OA
ATOM     23  H   UNL     1      -1.922  -2.928  -1.690  0.00  0.00    +0.295 HD
ENDBRANCH  21  22
ENDBRANCH   7  21
BRANCH   8  24
ATOM     24  C   UNL     1      -3.373  -0.754   0.530  0.00  0.00    +0.088 C 
BRANCH  24  25
ATOM     25  S   UNL     1      -3.644   1.023   0.426  0.00  0.00    -0.082 S 
BRANCH  25  29
ATOM     26  S   UNL     1      -6.272   2.521   0.083  0.00  0.00    -0.044 S 
ATOM     27  N   UNL     1      -6.104  -0.033   0.208  0.00  0.00    -0.135 NA
ATOM     28  N   UNL     1      -7.450   0.245   0.052  0.00  0.00    -0.145 NA
ATOM     29  C   UNL     1      -5.402   1.065   0.237  0.00  0.00    +0.159 A 
ATOM     30  C   UNL     1      -7.675   1.540  -0.026  0.00  0.00    +0.112 A 
ATOM     31  C   UNL     1      -9.002   2.166  -0.197  0.00  0.00    +0.061 C 
ENDBRANCH  25  29
ENDBRANCH  24  25
ENDBRANCH   8  24
TORSDOF 8
