REMARK  Name = 3202
REMARK  3 active torsions:
REMARK  status: ('A' for Active; 'I' for Inactive)
REMARK    1  A    between atoms: C_1  and  N_7
REMARK    2  A    between atoms: C_4  and  O_12
REMARK    3  A    between atoms: N_7  and  C_10
REMARK                            x       y       z     vdW  Elec       q    Type
REMARK                         _______ _______ _______ _____ _____    ______ ____
ROOT
ATOM      1  C   UNL     1       0.129   0.324  -0.104  0.00  0.00    +0.037 C 
ATOM      2  C   UNL     1      -0.641  -0.763  -0.349  0.00  0.00    +0.050 C 
ATOM      3  C   UNL     1      -0.309   1.538   0.308  0.00  0.00    +0.013 C 
ATOM      4  C   UNL     1      -2.015  -0.620  -0.158  0.00  0.00    +0.135 C 
ATOM      5  C   UNL     1      -1.683   1.682   0.499  0.00  0.00    +0.004 C 
ATOM      6  C   UNL     1      -2.536   0.603   0.266  0.00  0.00    +0.037 C 
ENDROOT
BRANCH   1   7
ATOM      7  N   UNL     1       1.637   0.168  -0.315  0.00  0.00    -0.352 NA
ATOM      8  C   UNL     1       2.366   1.103   0.646  0.00  0.00    +0.096 C 
ATOM      9  C   UNL     1       1.969   0.512  -1.764  0.00  0.00    +0.096 C 
BRANCH   7  10
ATOM     10  C   UNL     1       2.113  -1.258  -0.044  0.00  0.00    +0.076 C 
ATOM     11  C   UNL     1       1.820  -1.616   1.397  0.00  0.00    +0.022 C 
ENDBRANCH   7  10
ENDBRANCH   1   7
BRANCH   4  12
ATOM     12  O   UNL     1      -2.848  -1.673  -0.383  0.00  0.00    -0.505 OA
ATOM     13  H   UNL     1      -2.498  -2.494  -0.668  0.00  0.00    +0.292 HD
ENDBRANCH   4  12
TORSDOF 3
