REMARK  Name = 4763
REMARK  2 active torsions:
REMARK  status: ('A' for Active; 'I' for Inactive)
REMARK    1  A    between atoms: C_6  and  C_12
REMARK    2  A    between atoms: C_6  and  C_18
REMARK                            x       y       z     vdW  Elec       q    Type
REMARK                         _______ _______ _______ _____ _____    ______ ____
ROOT
ATOM      1  O   UNL     1       0.580  -0.558  -2.424  0.00  0.00    -0.274 OA
ATOM      2  O   UNL     1       0.575  -0.767   2.365  0.00  0.00    -0.274 OA
ATOM      3  O   UNL     1       3.409   2.023   0.091  0.00  0.00    -0.252 OA
ATOM      4  N   UNL     1       1.954   0.744  -1.139  0.00  0.00    -0.239 N 
ATOM      5  N   UNL     1       1.949   0.643   1.202  0.00  0.00    -0.239 N 
ATOM      6  C   UNL     1       0.226  -0.636  -0.029  0.00  0.00    +0.157 C 
ATOM      7  C   UNL     1       0.928  -0.170  -1.307  0.00  0.00    +0.240 C 
ATOM      8  C   UNL     1       0.925  -0.282   1.287  0.00  0.00    +0.240 C 
ATOM      9  C   UNL     1       2.494   1.198   0.054  0.00  0.00    +0.312 C 
ATOM     10  H   UNL     1       2.346   1.114  -1.963  0.00  0.00    +0.159 HD
ATOM     11  H   UNL     1       2.336   0.943   2.056  0.00  0.00    +0.159 HD
ENDROOT
BRANCH   6  12
ATOM     12  C   UNL     1      -1.164  -0.065  -0.006  0.00  0.00    -0.006 C 
ATOM     13  C   UNL     1      -1.340   1.313  -0.022  0.00  0.00    -0.003 C 
ATOM     14  C   UNL     1      -2.257  -0.921   0.029  0.00  0.00    -0.003 C 
ATOM     15  C   UNL     1      -2.630   1.843  -0.001  0.00  0.00    -0.000 C 
ATOM     16  C   UNL     1      -3.547  -0.391   0.050  0.00  0.00    -0.000 C 
ATOM     17  C   UNL     1      -3.734   0.992   0.035  0.00  0.00    -0.000 C 
ENDBRANCH   6  12
BRANCH   6  18
ATOM     18  C   UNL     1       0.130  -2.166  -0.096  0.00  0.00    +0.022 C 
ATOM     19  C   UNL     1       1.504  -2.800  -0.088  0.00  0.00    +0.001 C 
ENDBRANCH   6  18
TORSDOF 2
