REMARK  Name = 5289424
REMARK  13 active torsions:
REMARK  status: ('A' for Active; 'I' for Inactive)
REMARK    1  A    between atoms: C_1  and  C_4
REMARK    2  A    between atoms: C_1  and  N_20
REMARK    3  A    between atoms: C_1  and  C_31
REMARK    4  A    between atoms: N_3  and  C_6
REMARK    5  A    between atoms: C_6  and  C_8
REMARK    6  A    between atoms: C_6  and  C_12
REMARK    7  A    between atoms: C_8  and  C_9
REMARK    8  A    between atoms: C_9  and  O_10
REMARK    9  A    between atoms: C_12  and  C_13
REMARK   10  A    between atoms: C_21  and  O_23
REMARK   11  A    between atoms: O_23  and  C_24
REMARK   12  A    between atoms: C_24  and  C_25
REMARK   13  A    between atoms: C_31  and  C_32
REMARK                            x       y       z     vdW  Elec       q    Type
REMARK                         _______ _______ _______ _____ _____    ______ ____
ROOT
ATOM      1  C   UNL     1      -0.461  -1.456   0.238  0.00  0.00    +0.155 C 
ENDROOT
BRANCH   1   4
ATOM      2  O   UNL     1      -0.531   0.605   1.511  0.00  0.00    -0.273 OA
ATOM      3  N   UNL     1      -2.099   0.272  -0.170  0.00  0.00    -0.298 N 
ATOM      4  C   UNL     1      -1.021  -0.092   0.625  0.00  0.00    +0.241 C 
ATOM      5  H   UNL     1      -2.412  -0.364  -0.852  0.00  0.00    +0.150 HD
BRANCH   3   6
ATOM      6  C   UNL     1      -2.784   1.539  -0.046  0.00  0.00    +0.136 C 
BRANCH   6   8
ATOM      7  O   UNL     1      -4.593   0.481  -1.245  0.00  0.00    -0.292 OA
ATOM      8  C   UNL     1      -4.248   1.274  -0.369  0.00  0.00    +0.198 C 
BRANCH   8   9
ATOM      9  C   UNL     1      -5.261   2.080   0.421  0.00  0.00    +0.204 C 
BRANCH   9  10
ATOM     10  O   UNL     1      -6.577   1.756   0.025  0.00  0.00    -0.375 OA
ATOM     11  H   UNL     1      -7.208   2.281   0.541  0.00  0.00    +0.211 HD
ENDBRANCH   9  10
ENDBRANCH   8   9
ENDBRANCH   6   8
BRANCH   6  12
ATOM     12  C   UNL     1      -2.223   2.607  -0.987  0.00  0.00    +0.054 C 
BRANCH  12  13
ATOM     13  C   UNL     1      -0.957   3.239  -0.461  0.00  0.00    -0.020 C 
ATOM     14  C   UNL     1       0.283   2.688  -0.783  0.00  0.00    -0.004 C 
ATOM     15  C   UNL     1      -1.028   4.373   0.348  0.00  0.00    -0.004 C 
ATOM     16  C   UNL     1       1.453   3.272  -0.296  0.00  0.00    -0.000 C 
ATOM     17  C   UNL     1       0.142   4.957   0.835  0.00  0.00    -0.000 C 
ATOM     18  C   UNL     1       1.382   4.406   0.513  0.00  0.00    -0.000 C 
ENDBRANCH  12  13
ENDBRANCH   6  12
ENDBRANCH   3   6
ENDBRANCH   1   4
BRANCH   1  20
ATOM     19  O   UNL     1       1.482  -0.551  -1.722  0.00  0.00    -0.226 OA
ATOM     20  N   UNL     1       0.971  -1.386   0.382  0.00  0.00    -0.264 N 
ATOM     21  C   UNL     1       1.823  -0.939  -0.609  0.00  0.00    +0.402 C 
ATOM     22  H   UNL     1       1.366  -1.673   1.237  0.00  0.00    +0.153 HD
BRANCH  21  23
ATOM     23  O   UNL     1       3.115  -0.993  -0.168  0.00  0.00    -0.430 OA
BRANCH  23  24
ATOM     24  C   UNL     1       4.111  -0.556  -1.100  0.00  0.00    +0.237 C 
BRANCH  24  25
ATOM     25  C   UNL     1       5.464  -0.678  -0.463  0.00  0.00    +0.021 C 
ATOM     26  C   UNL     1       5.995   0.392   0.257  0.00  0.00    -0.001 C 
ATOM     27  C   UNL     1       6.191  -1.862  -0.590  0.00  0.00    -0.001 C 
ATOM     28  C   UNL     1       7.253   0.279   0.850  0.00  0.00    -0.000 C 
ATOM     29  C   UNL     1       7.449  -1.975   0.002  0.00  0.00    -0.000 C 
ATOM     30  C   UNL     1       7.979  -0.905   0.722  0.00  0.00    -0.000 C 
ENDBRANCH  24  25
ENDBRANCH  23  24
ENDBRANCH  21  23
ENDBRANCH   1  20
BRANCH   1  31
ATOM     31  C   UNL     1      -1.078  -2.553   1.114  0.00  0.00    +0.055 C 
BRANCH  31  32
ATOM     32  C   UNL     1      -2.444  -2.982   0.636  0.00  0.00    -0.020 C 
ATOM     33  C   UNL     1      -2.565  -4.025  -0.283  0.00  0.00    -0.004 C 
ATOM     34  C   UNL     1      -3.584  -2.337   1.113  0.00  0.00    -0.004 C 
ATOM     35  C   UNL     1      -3.827  -4.421  -0.725  0.00  0.00    -0.000 C 
ATOM     36  C   UNL     1      -4.847  -2.733   0.671  0.00  0.00    -0.000 C 
ATOM     37  C   UNL     1      -4.968  -3.775  -0.248  0.00  0.00    -0.000 C 
ENDBRANCH  31  32
ENDBRANCH   1  31
TORSDOF 13
