REMARK  Name = 667490
REMARK  0 active torsions:
REMARK  status: ('A' for Active; 'I' for Inactive)
REMARK                            x       y       z     vdW  Elec       q    Type
REMARK                         _______ _______ _______ _____ _____    ______ ____
ROOT
ATOM      1  S   UNL     1      -2.119   2.047   0.001  0.00  0.00    +0.012 S 
ATOM      2  N   UNL     1       1.076   1.473  -0.001  0.00  0.00    -0.307 N 
ATOM      3  N   UNL     1       0.168  -1.853   0.001  0.00  0.00    -0.299 N 
ATOM      4  N   UNL     1       2.165  -0.477   0.001  0.00  0.00    -0.304 N 
ATOM      5  N   UNL     1      -1.956  -0.678  -0.001  0.00  0.00    -0.207 NA
ATOM      6  C   UNL     1       0.106   0.507   0.000  0.00  0.00    +0.125 C 
ATOM      7  C   UNL     1       0.817  -0.674   0.001  0.00  0.00    +0.118 C 
ATOM      8  C   UNL     1      -1.336   0.567   0.000  0.00  0.00    +0.002 C 
ATOM      9  C   UNL     1       2.291   0.834  -0.001  0.00  0.00    +0.183 C 
ATOM     10  C   UNL     1      -1.210  -1.746  -0.001  0.00  0.00    +0.227 C 
ATOM     11  H   UNL     1       0.930   2.447  -0.002  0.00  0.00    +0.149 HD
ATOM     12  H   UNL     1       0.635  -2.719   0.002  0.00  0.00    +0.150 HD
ATOM     13  H   UNL     1       2.878  -1.156   0.001  0.00  0.00    +0.150 HD
ENDROOT
TORSDOF 0
