REMARK  Name = 3103
REMARK  4 active torsions:
REMARK  status: ('A' for Active; 'I' for Inactive)
REMARK    1  A    between atoms: C_1  and  C_2
REMARK    2  A    between atoms: C_1  and  C_8
REMARK    3  A    between atoms: C_1  and  O_14
REMARK    4  A    between atoms: O_14  and  C_16
REMARK                            x       y       z     vdW  Elec       q    Type
REMARK                         _______ _______ _______ _____ _____    ______ ____
ROOT
ATOM      1  C   UNL     1      -0.571   0.126   0.272  0.00  0.00    +0.160 C 
ENDROOT
BRANCH   1   2
ATOM      2  C   UNL     1      -1.694   1.126   0.092  0.00  0.00    +0.009 C 
ATOM      3  C   UNL     1      -2.473   1.469   1.183  0.00  0.00    -0.002 C 
ATOM      4  C   UNL     1      -1.916   1.673  -1.159  0.00  0.00    -0.002 C 
ATOM      5  C   UNL     1      -3.507   2.390   1.017  0.00  0.00    -0.000 C 
ATOM      6  C   UNL     1      -2.950   2.595  -1.325  0.00  0.00    -0.000 C 
ATOM      7  C   UNL     1      -3.746   2.953  -0.237  0.00  0.00    -0.000 C 
ENDBRANCH   1   2
BRANCH   1   8
ATOM      8  C   UNL     1      -1.041  -1.313   0.178  0.00  0.00    +0.009 C 
ATOM      9  C   UNL     1      -1.546  -1.931   1.307  0.00  0.00    -0.002 C 
ATOM     10  C   UNL     1      -0.954  -1.971  -1.035  0.00  0.00    -0.002 C 
ATOM     11  C   UNL     1      -1.978  -3.254   1.220  0.00  0.00    -0.000 C 
ATOM     12  C   UNL     1      -1.387  -3.294  -1.122  0.00  0.00    -0.000 C 
ATOM     13  C   UNL     1      -1.899  -3.936   0.006  0.00  0.00    -0.000 C 
ENDBRANCH   1   8
BRANCH   1  14
ATOM     14  O   UNL     1       0.478   0.399  -0.646  0.00  0.00    -0.350 OA
BRANCH  14  16
ATOM     15  N   UNL     1       4.601   0.726  -0.004  0.00  0.00    +0.386 N 
ATOM     16  C   UNL     1       1.750   0.090  -0.092  0.00  0.00    +0.112 C 
ATOM     17  C   UNL     1       2.287   1.319   0.634  0.00  0.00    +0.007 C 
ATOM     18  C   UNL     1       2.713  -0.333  -1.198  0.00  0.00    +0.007 C 
ATOM     19  C   UNL     1       3.722   1.100   1.113  0.00  0.00    -0.075 C 
ATOM     20  C   UNL     1       4.134  -0.502  -0.662  0.00  0.00    -0.075 C 
ATOM     21  C   UNL     1       5.979   0.566   0.461  0.00  0.00    -0.101 C 
ATOM     22  H   UNL     1       4.573   1.480  -0.691  0.00  0.00    -0.080 HD
ENDBRANCH  14  16
ENDBRANCH   1  14
TORSDOF 4
