REMARK  Name = 649
REMARK  0 active torsions:
REMARK  status: ('A' for Active; 'I' for Inactive)
REMARK                            x       y       z     vdW  Elec       q    Type
REMARK                         _______ _______ _______ _____ _____    ______ ____
ROOT
ATOM      1  O   UNL     1       2.303  -1.028   0.088  0.00  0.00    -0.275 OA
ATOM      2  O   UNL     1      -2.307  -1.001  -0.093  0.00  0.00    -0.252 OA
ATOM      3  N   UNL     1      -1.202   1.013  -0.016  0.00  0.00    -0.288 N 
ATOM      4  N   UNL     1      -0.009  -1.002   0.105  0.00  0.00    -0.240 N 
ATOM      5  C   UNL     1       0.014   1.734   0.286  0.00  0.00    +0.101 C 
ATOM      6  C   UNL     1       1.208   1.062  -0.358  0.00  0.00    +0.107 C 
ATOM      7  C   UNL     1       1.246  -0.407  -0.009  0.00  0.00    +0.231 C 
ATOM      8  C   UNL     1      -1.252  -0.372  -0.003  0.00  0.00    +0.306 C 
ATOM      9  H   UNL     1      -2.017   1.519  -0.237  0.00  0.00    +0.151 HD
ATOM     10  H   UNL     1      -0.021  -1.970   0.279  0.00  0.00    +0.159 HD
ENDROOT
TORSDOF 0
