REMARK  Name = 647
REMARK  8 active torsions:
REMARK  status: ('A' for Active; 'I' for Inactive)
REMARK    1  A    between atoms: P_1  and  O_3
REMARK    2  A    between atoms: P_1  and  O_5
REMARK    3  A    between atoms: P_1  and  O_11
REMARK    4  A    between atoms: O_5  and  C_6
REMARK    5  A    between atoms: C_6  and  C_8
REMARK    6  A    between atoms: O_11  and  P_12
REMARK    7  A    between atoms: P_12  and  O_14
REMARK    8  A    between atoms: P_12  and  O_16
REMARK                            x       y       z     vdW  Elec       q    Type
REMARK                         _______ _______ _______ _____ _____    ______ ____
ROOT
ATOM      1  P   UNL     1      -1.332   1.498   0.064  0.00  0.00    +0.484 P 
ATOM      2  O   UNL     1      -2.172   1.930   1.231  0.00  0.00    -0.227 OA
ENDROOT
BRANCH   1   3
ATOM      3  O   UNL     1      -1.354   2.522  -1.189  0.00  0.00    -0.302 OA
ATOM      4  H   UNL     1      -0.790   2.176  -1.899  0.00  0.00    +0.222 HD
ENDBRANCH   1   3
BRANCH   1   5
ATOM      5  O   UNL     1       0.236   1.303   0.401  0.00  0.00    -0.268 OA
BRANCH   5   6
ATOM      6  C   UNL     1       1.134   0.895  -0.624  0.00  0.00    +0.179 C 
BRANCH   6   8
ATOM      7  C   UNL     1       3.297  -0.307   0.025  0.00  0.00    -0.045 C 
ATOM      8  C   UNL     1       2.517   0.787  -0.061  0.00  0.00    -0.002 C 
ATOM      9  C   UNL     1       4.671  -0.215   0.635  0.00  0.00    +0.026 C 
ATOM     10  C   UNL     1       2.923  -1.683  -0.448  0.00  0.00    +0.026 C 
ENDBRANCH   6   8
ENDBRANCH   5   6
ENDBRANCH   1   5
BRANCH   1  11
ATOM     11  O   UNL     1      -1.786   0.095  -0.596  0.00  0.00    -0.186 OA
BRANCH  11  12
ATOM     12  P   UNL     1      -1.891  -1.390   0.034  0.00  0.00    +0.481 P 
ATOM     13  O   UNL     1      -0.598  -1.937   0.563  0.00  0.00    -0.227 OA
BRANCH  12  14
ATOM     14  O   UNL     1      -2.567  -2.248  -1.157  0.00  0.00    -0.302 OA
ATOM     15  H   UNL     1      -3.393  -1.821  -1.433  0.00  0.00    +0.222 HD
ENDBRANCH  12  14
BRANCH  12  16
ATOM     16  O   UNL     1      -3.078  -1.250   1.122  0.00  0.00    -0.302 OA
ATOM     17  H   UNL     1      -3.869  -0.890   0.692  0.00  0.00    +0.222 HD
ENDBRANCH  12  16
ENDBRANCH  11  12
ENDBRANCH   1  11
TORSDOF 8
