REMARK  Name = 4162
REMARK  2 active torsions:
REMARK  status: ('A' for Active; 'I' for Inactive)
REMARK    1  A    between atoms: C_4  and  C_11
REMARK    2  A    between atoms: C_4  and  C_13
REMARK                            x       y       z     vdW  Elec       q    Type
REMARK                         _______ _______ _______ _____ _____    ______ ____
ROOT
ATOM      1  O   UNL     1      -1.234  -1.891  -0.583  0.00  0.00    -0.296 OA
ATOM      2  O   UNL     1       1.926   1.310   0.981  0.00  0.00    -0.275 OA
ATOM      3  N   UNL     1      -0.202   1.933   0.441  0.00  0.00    -0.304 N 
ATOM      4  C   UNL     1       0.567  -0.330  -0.183  0.00  0.00    +0.120 C 
ATOM      5  C   UNL     1      -1.943   0.239   0.284  0.00  0.00    +0.078 C 
ATOM      6  C   UNL     1      -0.907  -0.763  -0.206  0.00  0.00    +0.159 C 
ATOM      7  C   UNL     1       0.834   1.026   0.485  0.00  0.00    +0.228 C 
ATOM      8  C   UNL     1      -1.495   1.633  -0.131  0.00  0.00    +0.097 C 
ATOM      9  C   UNL     1      -3.330  -0.068  -0.270  0.00  0.00    +0.010 C 
ATOM     10  H   UNL     1      -0.054   2.831   0.817  0.00  0.00    +0.149 HD
ENDROOT
BRANCH   4  11
ATOM     11  C   UNL     1       1.050  -0.233  -1.638  0.00  0.00    +0.016 C 
ATOM     12  C   UNL     1       2.510   0.160  -1.701  0.00  0.00    +0.001 C 
ENDBRANCH   4  11
BRANCH   4  13
ATOM     13  C   UNL     1       1.371  -1.411   0.557  0.00  0.00    +0.016 C 
ATOM     14  C   UNL     1       0.854  -1.604   1.965  0.00  0.00    +0.001 C 
ENDBRANCH   4  13
TORSDOF 2
