REMARK  Name = 15130
REMARK  9 active torsions:
REMARK  status: ('A' for Active; 'I' for Inactive)
REMARK    1  A    between atoms: C_1  and  C_2
REMARK    2  A    between atoms: C_1  and  C_8
REMARK    3  A    between atoms: C_1  and  C_14
REMARK    4  A    between atoms: C_1  and  C_21
REMARK    5  A    between atoms: C_14  and  C_15
REMARK    6  A    between atoms: C_15  and  N_17
REMARK    7  A    between atoms: C_21  and  C_22
REMARK    8  A    between atoms: C_21  and  O_24
REMARK    9  A    between atoms: O_24  and  C_26
REMARK                            x       y       z     vdW  Elec       q    Type
REMARK                         _______ _______ _______ _____ _____    ______ ____
ROOT
ATOM      1  C   UNL     1      -0.501   0.034   0.186  0.00  0.00    +0.073 C 
ENDROOT
BRANCH   1   2
ATOM      2  C   UNL     1       0.168   1.214  -0.588  0.00  0.00    -0.016 C 
ATOM      3  C   UNL     1      -0.045   2.473  -0.118  0.00  0.00    -0.004 C 
ATOM      4  C   UNL     1       0.919   0.902  -1.680  0.00  0.00    -0.004 C 
ATOM      5  C   UNL     1       0.552   3.527  -0.809  0.00  0.00    -0.000 C 
ATOM      6  C   UNL     1       1.516   1.957  -2.371  0.00  0.00    -0.000 C 
ATOM      7  C   UNL     1       1.333   3.269  -1.935  0.00  0.00    -0.000 C 
ENDBRANCH   1   2
BRANCH   1   8
ATOM      8  C   UNL     1      -2.055   0.149   0.224  0.00  0.00    -0.016 C 
ATOM      9  C   UNL     1      -2.716   0.161  -0.968  0.00  0.00    -0.004 C 
ATOM     10  C   UNL     1      -2.651   0.230   1.447  0.00  0.00    -0.004 C 
ATOM     11  C   UNL     1      -4.106   0.264  -0.933  0.00  0.00    -0.000 C 
ATOM     12  C   UNL     1      -4.042   0.333   1.481  0.00  0.00    -0.000 C 
ATOM     13  C   UNL     1      -4.769   0.350   0.291  0.00  0.00    -0.000 C 
ENDBRANCH   1   8
BRANCH   1  14
ATOM     14  C   UNL     1       0.171  -0.006   1.623  0.00  0.00    -0.009 C 
BRANCH  14  15
ATOM     15  C   UNL     1       1.686  -0.318   1.727  0.00  0.00    -0.058 C 
ATOM     16  C   UNL     1       2.109  -0.418   3.196  0.00  0.00    -0.023 C 
BRANCH  15  17
ATOM     17  N   UNL     1       2.494   0.722   1.087  0.00  0.00    +0.385 N 
ATOM     18  C   UNL     1       3.914   0.386   1.168  0.00  0.00    -0.101 C 
ATOM     19  C   UNL     1       2.238   2.020   1.710  0.00  0.00    -0.101 C 
ATOM     20  H   UNL     1       2.231   0.779   0.103  0.00  0.00    -0.080 HD
ENDBRANCH  15  17
ENDBRANCH  14  15
ENDBRANCH   1  14
BRANCH   1  21
ATOM     21  C   UNL     1      -0.156  -1.373  -0.496  0.00  0.00    +0.176 C 
BRANCH  21  22
ATOM     22  C   UNL     1      -0.758  -2.628   0.174  0.00  0.00    +0.044 C 
ATOM     23  C   UNL     1      -2.284  -2.599   0.176  0.00  0.00    +0.004 C 
ENDBRANCH  21  22
BRANCH  21  24
ATOM     24  O   UNL     1       1.262  -1.546  -0.602  0.00  0.00    -0.452 OA
BRANCH  24  26
ATOM     25  O   UNL     1       1.065  -3.293  -2.101  0.00  0.00    -0.250 OA
ATOM     26  C   UNL     1       1.667  -2.690  -1.223  0.00  0.00    +0.317 C 
ATOM     27  C   UNL     1       2.989  -3.121  -0.665  0.00  0.00    +0.121 C 
ENDBRANCH  24  26
ENDBRANCH  21  24
ENDBRANCH   1  21
TORSDOF 9
