REMARK  Name = 1400
REMARK  2 active torsions:
REMARK  status: ('A' for Active; 'I' for Inactive)
REMARK    1  A    between atoms: N_1  and  C_17
REMARK    2  A    between atoms: C_7  and  C_10
REMARK                            x       y       z     vdW  Elec       q    Type
REMARK                         _______ _______ _______ _____ _____    ______ ____
ROOT
ATOM      1  N   UNL     1       1.772  -0.816   0.000  0.00  0.00    -0.201 N 
ATOM      2  N   UNL     1       0.548  -1.322   0.000  0.00  0.00    -0.181 NA
ATOM      3  N   UNL     1       2.985   1.270   0.000  0.00  0.00    -0.232 NA
ATOM      4  N   UNL     1       1.444   3.161   0.000  0.00  0.00    -0.234 NA
ATOM      5  C   UNL     1       1.874   0.516   0.000  0.00  0.00    +0.137 C 
ATOM      6  C   UNL     1       0.565   0.963   0.000  0.00  0.00    +0.150 C 
ATOM      7  C   UNL     1      -0.204  -0.216   0.000  0.00  0.00    +0.090 C 
ATOM      8  C   UNL     1       0.366   2.340   0.000  0.00  0.00    +0.112 C 
ATOM      9  C   UNL     1       2.669   2.583   0.000  0.00  0.00    +0.252 C 
ATOM     10  N   UNL     1      -0.927   2.892   0.001  0.00  0.00    -0.346 N 
ATOM     11  H   UNL     1      -1.046   3.869   0.001  0.00  0.00    +0.143 HD
ATOM     12  H   UNL     1      -1.715   2.301   0.002  0.00  0.00    +0.143 HD
ENDROOT
BRANCH   7  13
ATOM     13  C   UNL     1      -1.641  -0.326   0.000  0.00  0.00    +0.016 C 
ATOM     14  C   UNL     1      -2.331  -0.380  -1.208  0.00  0.00    +0.001 C 
ATOM     15  C   UNL     1      -2.331  -0.379   1.208  0.00  0.00    +0.001 C 
ATOM     16  C   UNL     1      -3.721  -0.487  -1.208  0.00  0.00    -0.004 C 
ATOM     17  C   UNL     1      -3.721  -0.486   1.208  0.00  0.00    -0.004 C 
ATOM     18  C   UNL     1      -4.417  -0.540   0.000  0.00  0.00    -0.022 C 
ATOM     19  C   UNL     1      -5.904  -0.655   0.000  0.00  0.00    +0.031 C 
ENDBRANCH   7  13
BRANCH   1  20
ATOM     20  C   UNL     1       2.917  -1.768   0.000  0.00  0.00    +0.081 C 
ATOM     21  C   UNL     1       3.783  -1.541   1.260  0.00  0.00    +0.022 C 
ATOM     22  C   UNL     1       3.776  -1.552  -1.266  0.00  0.00    +0.022 C 
ATOM     23  C   UNL     1       2.497  -3.258   0.007  0.00  0.00    +0.022 C 
ENDBRANCH   1  20
TORSDOF 2
