688561
  -OEChem-10051719343D

 43 44  0     1  0  0  0  0  0999 V2000
   -1.9146    1.2742    1.7974 O   0  0  0  0  0  0  0  0  0  0  0  0
    4.0172    2.0624   -0.1118 O   0  0  0  0  0  0  0  0  0  0  0  0
    4.0141   -2.8628   -0.5794 O   0  0  0  0  0  0  0  0  0  0  0  0
   -3.5496   -0.0427   -0.1764 N   0  0  0  0  0  0  0  0  0  0  0  0
    3.4010   -0.6682   -0.2476 N   0  0  0  0  0  0  0  0  0  0  0  0
   -2.1892    0.4167   -0.4864 C   0  0  2  0  0  0  0  0  0  0  0  0
   -1.3175    0.4267    0.8053 C   0  0  1  0  0  0  0  0  0  0  0  0
   -2.2590    1.7920   -1.1804 C   0  0  0  0  0  0  0  0  0  0  0  0
    0.1061    0.8092    0.5539 C   0  0  0  0  0  0  0  0  0  0  0  0
   -3.5126   -1.3430    0.4693 C   0  0  0  0  0  0  0  0  0  0  0  0
    1.0927   -0.1382    0.2661 C   0  0  0  0  0  0  0  0  0  0  0  0
   -3.1223    1.7868   -2.4376 C   0  0  0  0  0  0  0  0  0  0  0  0
    0.4366    2.1646    0.6153 C   0  0  0  0  0  0  0  0  0  0  0  0
    2.4079    0.2850    0.0418 C   0  0  0  0  0  0  0  0  0  0  0  0
   -2.8569   -2.3711   -0.4485 C   0  0  0  0  0  0  0  0  0  0  0  0
   -4.9303   -1.7657    0.8413 C   0  0  0  0  0  0  0  0  0  0  0  0
    2.7404    1.6395    0.1029 C   0  0  0  0  0  0  0  0  0  0  0  0
    0.7869   -1.5648    0.1931 C   0  0  0  0  0  0  0  0  0  0  0  0
    1.7503    2.5785    0.3902 C   0  0  0  0  0  0  0  0  0  0  0  0
    1.7472   -2.4545   -0.0834 C   0  0  0  0  0  0  0  0  0  0  0  0
    3.1517   -2.0246   -0.3252 C   0  0  0  0  0  0  0  0  0  0  0  0
   -1.7238   -0.2375   -1.2315 H   0  0  0  0  0  0  0  0  0  0  0  0
   -1.2794   -0.5384    1.3041 H   0  0  0  0  0  0  0  0  0  0  0  0
   -1.2568    2.1090   -1.4870 H   0  0  0  0  0  0  0  0  0  0  0  0
   -2.6435    2.5535   -0.4910 H   0  0  0  0  0  0  0  0  0  0  0  0
   -4.0201    0.6352    0.4217 H   0  0  0  0  0  0  0  0  0  0  0  0
   -2.9951   -1.3320    1.4308 H   0  0  0  0  0  0  0  0  0  0  0  0
   -4.1753    1.6000   -2.2059 H   0  0  0  0  0  0  0  0  0  0  0  0
   -3.0625    2.7600   -2.9359 H   0  0  0  0  0  0  0  0  0  0  0  0
   -2.7814    1.0241   -3.1451 H   0  0  0  0  0  0  0  0  0  0  0  0
   -0.3099    2.9239    0.8332 H   0  0  0  0  0  0  0  0  0  0  0  0
   -2.8689   -3.3567    0.0320 H   0  0  0  0  0  0  0  0  0  0  0  0
   -3.4212   -2.4698   -1.3842 H   0  0  0  0  0  0  0  0  0  0  0  0
   -1.8246   -2.1760   -0.7194 H   0  0  0  0  0  0  0  0  0  0  0  0
   -5.3892   -1.0472    1.5299 H   0  0  0  0  0  0  0  0  0  0  0  0
   -4.9277   -2.7431    1.3362 H   0  0  0  0  0  0  0  0  0  0  0  0
   -5.5720   -1.8422   -0.0440 H   0  0  0  0  0  0  0  0  0  0  0  0
   -2.7809    0.9000    2.0280 H   0  0  0  0  0  0  0  0  0  0  0  0
   -0.1917   -1.9487    0.4200 H   0  0  0  0  0  0  0  0  0  0  0  0
    1.9878    3.6379    0.4417 H   0  0  0  0  0  0  0  0  0  0  0  0
    4.3477   -0.3351   -0.4069 H   0  0  0  0  0  0  0  0  0  0  0  0
    1.5352   -3.5174   -0.1151 H   0  0  0  0  0  0  0  0  0  0  0  0
    4.0496    3.0307   -0.0268 H   0  0  0  0  0  0  0  0  0  0  0  0
  1  7  1  0  0  0  0
  1 38  1  0  0  0  0
  2 17  1  0  0  0  0
  2 43  1  0  0  0  0
  3 21  2  0  0  0  0
  4  6  1  0  0  0  0
  4 10  1  0  0  0  0
  4 26  1  0  0  0  0
  5 14  1  0  0  0  0
  5 21  1  0  0  0  0
  5 41  1  0  0  0  0
  6  7  1  0  0  0  0
  6  8  1  0  0  0  0
  6 22  1  0  0  0  0
  7  9  1  0  0  0  0
  7 23  1  0  0  0  0
  8 12  1  0  0  0  0
  8 24  1  0  0  0  0
  8 25  1  0  0  0  0
  9 11  2  0  0  0  0
  9 13  1  0  0  0  0
 10 15  1  0  0  0  0
 10 16  1  0  0  0  0
 10 27  1  0  0  0  0
 11 14  1  0  0  0  0
 11 18  1  0  0  0  0
 12 28  1  0  0  0  0
 12 29  1  0  0  0  0
 12 30  1  0  0  0  0
 13 19  2  0  0  0  0
 13 31  1  0  0  0  0
 14 17  2  0  0  0  0
 15 32  1  0  0  0  0
 15 33  1  0  0  0  0
 15 34  1  0  0  0  0
 16 35  1  0  0  0  0
 16 36  1  0  0  0  0
 16 37  1  0  0  0  0
 17 19  1  0  0  0  0
 18 20  2  0  0  0  0
 18 39  1  0  0  0  0
 19 40  1  0  0  0  0
 20 21  1  0  0  0  0
 20 42  1  0  0  0  0
M  END
> <DATABASE_ID>
DB01366

> <DATABASE_NAME>
drugbank

> <ORIGINAL_SOURCE>
PUBCHEM

> <ORIGINAL_SOURCE_URL>
https://pubchem.ncbi.nlm.nih.gov/rest/pug/compound/inchikey/FKNXQNWAXFXVNW-BLLLJJGKSA-N/SDF?record_type=3d

> <SMILES>
CC[C@H](NC(C)C)[C@H](O)C1=C2C=CC(=O)NC2=C(O)C=C1

> <INCHI_IDENTIFIER>
InChI=1S/C16H22N2O3/c1-4-12(17-9(2)3)16(21)11-5-7-13(19)15-10(11)6-8-14(20)18-15/h5-9,12,16-17,19,21H,4H2,1-3H3,(H,18,20)/t12-,16+/m0/s1

> <INCHI_KEY>
FKNXQNWAXFXVNW-BLLLJJGKSA-N

> <FORMULA>
C16H22N2O3

> <MOLECULAR_WEIGHT>
290.3575

> <EXACT_MASS>
290.16304258

> <JCHEM_ACCEPTOR_COUNT>
4

> <JCHEM_AVERAGE_POLARIZABILITY>
31.690534184310707

> <JCHEM_BIOAVAILABILITY>
1

> <JCHEM_DONOR_COUNT>
4

> <JCHEM_FORMAL_CHARGE>
0

> <JCHEM_GHOSE_FILTER>
1

> <JCHEM_IUPAC>
8-hydroxy-5-[(1R,2S)-1-hydroxy-2-[(propan-2-yl)amino]butyl]-1,2-dihydroquinolin-2-one

> <ALOGPS_LOGP>
1.28

> <JCHEM_LOGP>
0.8841294780789967

> <ALOGPS_LOGS>
-2.95

> <JCHEM_MDDR_LIKE_RULE>
0

> <JCHEM_NUMBER_OF_RINGS>
2

> <JCHEM_PHYSIOLOGICAL_CHARGE>
1

> <JCHEM_PKA>
13.85214184838265

> <JCHEM_PKA_STRONGEST_ACIDIC>
8.519182500786261

> <JCHEM_PKA_STRONGEST_BASIC>
9.88406214069453

> <JCHEM_POLAR_SURFACE_AREA>
81.59

> <JCHEM_REFRACTIVITY>
84.5808

> <JCHEM_ROTATABLE_BOND_COUNT>
5

> <JCHEM_RULE_OF_FIVE>
1

> <ALOGPS_SOLUBILITY>
3.29e-01 g/l

> <JCHEM_TRADITIONAL_IUPAC>
Pro-Air

> <JCHEM_VEBER_RULE>
0

> <DRUGBANK_ID>
DB01366

> <DRUG_GROUPS>
approved; investigational

> <GENERIC_NAME>
Procaterol

> <PRODUCTS>
Pro-air Aerosol 10mcg/aem

> <SALTS>
Procaterol hydrochloride hemihydrate

$$$$
