REMARK  Name = 6862
REMARK  3 active torsions:
REMARK  status: ('A' for Active; 'I' for Inactive)
REMARK    1  A    between atoms: C_2  and  C_11
REMARK    2  A    between atoms: C_11  and  C_13
REMARK    3  A    between atoms: C_13  and  O_14
REMARK                            x       y       z     vdW  Elec       q    Type
REMARK                         _______ _______ _______ _____ _____    ______ ____
ROOT
ATOM      1  C   UNL     1      -0.527   0.150  -0.262  0.00  0.00    -0.003 C 
ATOM      2  C   UNL     1       0.643  -0.592  -0.489  0.00  0.00    -0.011 C 
ATOM      3  C   UNL     1      -1.710  -0.524   0.123  0.00  0.00    -0.000 C 
ATOM      4  C   UNL     1       0.647  -1.978  -0.338  0.00  0.00    -0.004 C 
ATOM      5  C   UNL     1      -0.550   1.547  -0.409  0.00  0.00    -0.000 C 
ATOM      6  C   UNL     1      -1.688  -1.920   0.270  0.00  0.00    -0.000 C 
ATOM      7  C   UNL     1      -2.881   0.218   0.350  0.00  0.00    -0.000 C 
ATOM      8  C   UNL     1      -0.516  -2.642   0.041  0.00  0.00    -0.000 C 
ATOM      9  C   UNL     1      -1.722   2.268  -0.180  0.00  0.00    -0.000 C 
ATOM     10  C   UNL     1      -2.885   1.605   0.199  0.00  0.00    -0.000 C 
ENDROOT
BRANCH   2  11
ATOM     11  C   UNL     1       1.929   0.059  -0.899  0.00  0.00    +0.136 C 
BRANCH  11  13
ATOM     12  O   UNL     1       2.497   0.330   1.454  0.00  0.00    -0.250 OA
ATOM     13  C   UNL     1       2.794   0.465   0.275  0.00  0.00    +0.318 C 
BRANCH  13  14
ATOM     14  O   UNL     1       3.969   1.012  -0.135  0.00  0.00    -0.480 OA
ATOM     15  H   UNL     1       4.154   1.095  -1.049  0.00  0.00    +0.295 HD
ENDBRANCH  13  14
ENDBRANCH  11  13
ENDBRANCH   2  11
TORSDOF 3
