REMARK  Name = 1066
REMARK  4 active torsions:
REMARK  status: ('A' for Active; 'I' for Inactive)
REMARK    1  A    between atoms: C_2  and  C_8
REMARK    2  A    between atoms: CA_3  and  C_12
REMARK    3  A    between atoms: C_8  and  O_9
REMARK    4  A    between atoms: C_12  and  O_13
REMARK                            x       y       z     vdW  Elec       q    Type
REMARK                         _______ _______ _______ _____ _____    ______ ____
ROOT
ATOM      1  N   UNL     1      -1.709   0.900  -0.009  0.00  0.00    -0.237 NA
ATOM      2  C   UNL     1       0.057  -0.750   0.030  0.00  0.00    +0.099 C 
ATOM      3  CA  UNL     1      -0.401   0.557   0.009  0.00  0.00    +0.163 C 
ATOM      4  C   UNL     1      -0.887  -1.771   0.032  0.00  0.00    +0.010 C 
ATOM      5  C   UNL     1      -2.242  -1.458   0.013  0.00  0.00    +0.021 C 
ATOM      6  C   UNL     1      -2.597  -0.119  -0.006  0.00  0.00    +0.099 C 
ENDROOT
BRANCH   2   8
ATOM      7  O   UNL     1       2.159  -1.229   1.066  0.00  0.00    -0.245 OA
ATOM      8  C   UNL     1       1.474  -1.079   0.050  0.00  0.00    +0.340 C 
BRANCH   8   9
ATOM      9  O   UNL     1       1.994  -1.214  -1.201  0.00  0.00    -0.477 OA
ATOM     10  H   UNL     1       1.447  -1.094  -1.951  0.00  0.00    +0.295 HD
ENDBRANCH   8   9
ENDBRANCH   2   8
BRANCH   3  12
ATOM     11  OXT UNL     1       1.753   1.598   0.023  0.00  0.00    -0.243 OA
ATOM     12  C   UNL     1       0.521   1.683   0.008  0.00  0.00    +0.356 C 
BRANCH  12  13
ATOM     13  O   UNL     1      -0.123   2.882  -0.015  0.00  0.00    -0.476 OA
ATOM     14  H   UNL     1      -1.059   2.910  -0.027  0.00  0.00    +0.295 HD
ENDBRANCH  12  13
ENDBRANCH   3  12
TORSDOF 4
