REMARK  Name = 3672
REMARK  5 active torsions:
REMARK  status: ('A' for Active; 'I' for Inactive)
REMARK    1  A    between atoms: C_1  and  C_13
REMARK    2  A    between atoms: C_2  and  C_7
REMARK    3  A    between atoms: C_7  and  C_10
REMARK    4  A    between atoms: C_10  and  O_11
REMARK    5  A    between atoms: C_13  and  C_14
REMARK                            x       y       z     vdW  Elec       q    Type
REMARK                         _______ _______ _______ _____ _____    ______ ____
ROOT
ATOM      1  C   UNL     1       1.653   0.739  -0.247  0.00  0.00    -0.022 C 
ATOM      2  C   UNL     1      -1.095   0.594   0.090  0.00  0.00    -0.012 C 
ATOM      3  C   UNL     1       0.869   0.228  -1.270  0.00  0.00    -0.005 C 
ATOM      4  C   UNL     1       1.090   1.179   0.941  0.00  0.00    -0.005 C 
ATOM      5  C   UNL     1      -0.513   0.155  -1.100  0.00  0.00    -0.004 C 
ATOM      6  C   UNL     1      -0.293   1.106   1.110  0.00  0.00    -0.004 C 
ENDROOT
BRANCH   2   7
ATOM      7  C   UNL     1      -2.573   0.515   0.272  0.00  0.00    +0.121 C 
ATOM      8  C   UNL     1      -3.374   1.349  -0.749  0.00  0.00    +0.016 C 
BRANCH   7  10
ATOM      9  O   UNL     1      -2.401  -1.911   0.053  0.00  0.00    -0.250 OA
ATOM     10  C   UNL     1      -3.100  -0.923   0.233  0.00  0.00    +0.317 C 
BRANCH  10  11
ATOM     11  O   UNL     1      -4.446  -1.003   0.411  0.00  0.00    -0.480 OA
ATOM     12  H   UNL     1      -4.948  -0.224   0.546  0.00  0.00    +0.295 HD
ENDBRANCH  10  11
ENDBRANCH   7  10
ENDBRANCH   2   7
BRANCH   1  13
ATOM     13  C   UNL     1       3.149   0.819  -0.431  0.00  0.00    +0.026 C 
BRANCH  13  14
ATOM     14  C   UNL     1       3.902  -0.441   0.036  0.00  0.00    +0.004 C 
ATOM     15  C   UNL     1       3.608  -0.776   1.500  0.00  0.00    +0.000 C 
ATOM     16  C   UNL     1       3.524  -1.630  -0.851  0.00  0.00    +0.000 C 
ENDBRANCH  13  14
ENDBRANCH   1  13
TORSDOF 5
