REMARK  Name = 54695768
REMARK  2 active torsions:
REMARK  status: ('A' for Active; 'I' for Inactive)
REMARK    1  A    between atoms: C_5  and  O_13
REMARK    2  A    between atoms: C_7  and  O_15
REMARK                            x       y       z     vdW  Elec       q    Type
REMARK                         _______ _______ _______ _____ _____    ______ ____
ROOT
ATOM      1  O   UNL     1      -2.857   1.347   0.000  0.00  0.00    -0.264 OA
ATOM      2  N   UNL     1      -0.529   1.422   0.000  0.00  0.00    -0.291 N 
ATOM      3  C   UNL     1       0.711   0.702   0.000  0.00  0.00    +0.066 A 
ATOM      4  C   UNL     1       0.690  -0.705   0.000  0.00  0.00    +0.053 A 
ATOM      5  C   UNL     1      -0.601  -1.399   0.000  0.00  0.00    +0.174 A 
ATOM      6  C   UNL     1      -1.766   0.774   0.000  0.00  0.00    +0.298 A 
ATOM      7  C   UNL     1      -1.751  -0.717   0.000  0.00  0.00    +0.225 A 
ATOM      8  C   UNL     1       1.952   1.363   0.000  0.00  0.00    +0.017 C 
ATOM      9  C   UNL     1       1.903  -1.416   0.000  0.00  0.00    +0.005 C 
ATOM     10  C   UNL     1      -0.500   2.883   0.000  0.00  0.00    +0.134 C 
ATOM     11  C   UNL     1       3.148   0.644   0.000  0.00  0.00    +0.001 C 
ATOM     12  C   UNL     1       3.124  -0.745   0.000  0.00  0.00    +0.000 C 
ENDROOT
BRANCH   5  13
ATOM     13  O   UNL     1      -0.559  -2.778   0.000  0.00  0.00    -0.503 OA
ATOM     14  H   UNL     1       0.266  -3.222   0.000  0.00  0.00    +0.292 HD
ENDBRANCH   5  13
BRANCH   7  15
ATOM     15  O   UNL     1      -2.965  -1.376   0.000  0.00  0.00    -0.500 OA
ATOM     16  H   UNL     1      -2.990  -2.313   0.000  0.00  0.00    +0.292 HD
ENDBRANCH   7  15
TORSDOF 2
