REMARK  Name = 40467109
REMARK  5 active torsions:
REMARK  status: ('A' for Active; 'I' for Inactive)
REMARK    1  A    between atoms: N_2  and  CA_9
REMARK    2  A    between atoms: C_3  and  CA_18
REMARK    3  A    between atoms: CA_11  and  C_17
REMARK    4  A    between atoms: CA_18  and  C_19
REMARK    5  A    between atoms: CA_18  and  N_25
REMARK                            x       y       z     vdW  Elec       q    Type
REMARK                         _______ _______ _______ _____ _____    ______ ____
ROOT
ATOM      1  O   UNL     1       2.145   2.090  -1.574  0.00  0.00    -0.277 OA
ATOM      2  N   UNL     1       0.626   1.411   0.043  0.00  0.00    -0.298 N 
ATOM      3  C   UNL     1       1.906   1.693  -0.434  0.00  0.00    +0.206 C 
ATOM      4  H   UNL     1       0.529   1.097   0.971  0.00  0.00    +0.150 HD
ENDROOT
BRANCH   2   9
ATOM      5  S   UNL     1      -0.418  -1.278  -1.009  0.00  0.00    -0.114 S 
ATOM      6  O   UNL     1      -2.337   2.540   0.824  0.00  0.00    -0.273 OA
ATOM      7  N   UNL     1      -2.274   0.496  -0.343  0.00  0.00    -0.242 N 
ATOM      8  C   UNL     1      -1.247   0.292  -1.346  0.00  0.00    +0.155 C 
ATOM      9  CA  UNL     1      -0.576   1.562  -0.775  0.00  0.00    +0.178 C 
ATOM     10  C   UNL     1      -1.881   1.722   0.060  0.00  0.00    +0.251 C 
ATOM     11  CA  UNL     1      -3.245  -0.405  -0.048  0.00  0.00    +0.128 C 
ATOM     12  C   UNL     1      -1.949  -2.255  -1.207  0.00  0.00    +0.083 C 
ATOM     13  C   UNL     1      -3.159  -1.688  -0.468  0.00  0.00    -0.013 C 
ATOM     14  C   UNL     1      -4.232  -2.727  -0.249  0.00  0.00    +0.029 C 
BRANCH  11  17
ATOM     15  O   UNL     1      -4.202  -0.079   2.071  0.00  0.00    -0.239 OA
ATOM     16  OXT UNL     1      -5.417   0.450   0.206  0.00  0.00    -0.239 OA
ATOM     17  C   UNL     1      -4.408   0.034   0.834  0.00  0.00    +0.401 C 
ENDBRANCH  11  17
ENDBRANCH   2   9
BRANCH   3  18
ATOM     18  CA  UNL     1       2.998   1.467   0.596  0.00  0.00    +0.036 C 
BRANCH  18  19
ATOM     19  C   UNL     1       3.486   0.064   0.459  0.00  0.00    -0.034 C 
ATOM     20  C   UNL     1       3.382  -0.798   1.695  0.00  0.00    -0.006 C 
ATOM     21  C   UNL     1       3.987  -0.406  -0.697  0.00  0.00    -0.006 C 
ATOM     22  C   UNL     1       4.487  -1.810  -0.878  0.00  0.00    -0.000 C 
ATOM     23  C   UNL     1       3.881  -2.201   1.512  0.00  0.00    -0.000 C 
ATOM     24  C   UNL     1       4.379  -2.657   0.354  0.00  0.00    -0.000 C 
ENDBRANCH  18  19
BRANCH  18  25
ATOM     25  N   UNL     1       4.069   2.483   0.375  0.00  0.00    +0.390 N 
ATOM     26  H1  UNL     1       3.676   3.418   0.481  0.00  0.00    -0.088 HD
ATOM     27  H2  UNL     1       4.448   2.378  -0.566  0.00  0.00    -0.088 HD
ATOM     28  H3  UNL     1       4.813   2.347   1.059  0.00  0.00    -0.088 HD
ENDBRANCH  18  25
ENDBRANCH   3  18
TORSDOF 5
