6464
  -OEChem-10051719343D

 29 29  0     0  0  0  0  0  0999 V2000
   -0.6839   -1.4419    1.6648 O   0  0  0  0  0  0  0  0  0  0  0  0
    0.0842    1.0608   -2.2335 O   0  0  0  0  0  0  0  0  0  0  0  0
    3.5807   -0.7628    0.1131 O   0  0  0  0  0  0  0  0  0  0  0  0
    1.4517   -1.0184    0.9421 N   0  0  0  0  0  0  0  0  0  0  0  0
    1.8355    0.2323   -1.0048 N   0  0  0  0  0  0  0  0  0  0  0  0
   -0.3885    0.3220    0.0272 C   0  0  0  0  0  0  0  0  0  0  0  0
   -0.3609    1.6144    0.8627 C   0  0  0  0  0  0  0  0  0  0  0  0
   -1.8272    0.0461   -0.4334 C   0  0  0  0  0  0  0  0  0  0  0  0
    0.0808   -0.8084    0.9377 C   0  0  0  0  0  0  0  0  0  0  0  0
    0.5001    0.5578   -1.1900 C   0  0  0  0  0  0  0  0  0  0  0  0
   -0.7856    2.8038    0.0096 C   0  0  0  0  0  0  0  0  0  0  0  0
   -1.2603    1.4727    2.0848 C   0  0  0  0  0  0  0  0  0  0  0  0
   -1.9187   -1.2751   -1.1217 C   0  0  0  0  0  0  0  0  0  0  0  0
    2.3756   -0.5187    0.0322 C   0  0  0  0  0  0  0  0  0  0  0  0
   -2.6834   -2.2846   -0.6910 C   0  0  0  0  0  0  0  0  0  0  0  0
    0.6592    1.8087    1.2216 H   0  0  0  0  0  0  0  0  0  0  0  0
   -2.1881    0.7930   -1.1491 H   0  0  0  0  0  0  0  0  0  0  0  0
   -2.5429    0.0407    0.3934 H   0  0  0  0  0  0  0  0  0  0  0  0
   -1.7937    2.7149   -0.4027 H   0  0  0  0  0  0  0  0  0  0  0  0
   -0.7977    3.7063    0.6342 H   0  0  0  0  0  0  0  0  0  0  0  0
   -0.0839    3.0248   -0.7987 H   0  0  0  0  0  0  0  0  0  0  0  0
   -2.3249    1.3986    1.8509 H   0  0  0  0  0  0  0  0  0  0  0  0
   -1.1657    2.3821    2.6933 H   0  0  0  0  0  0  0  0  0  0  0  0
   -0.9764    0.6572    2.7527 H   0  0  0  0  0  0  0  0  0  0  0  0
    1.8092   -1.6687    1.6364 H   0  0  0  0  0  0  0  0  0  0  0  0
    2.4759    0.5039   -1.7456 H   0  0  0  0  0  0  0  0  0  0  0  0
   -1.3505   -1.4179   -2.0371 H   0  0  0  0  0  0  0  0  0  0  0  0
   -2.7177   -3.2191   -1.2404 H   0  0  0  0  0  0  0  0  0  0  0  0
   -3.2839   -2.2026    0.2081 H   0  0  0  0  0  0  0  0  0  0  0  0
  1  9  2  0  0  0  0
  2 10  2  0  0  0  0
  3 14  2  0  0  0  0
  4  9  1  0  0  0  0
  4 14  1  0  0  0  0
  4 25  1  0  0  0  0
  5 10  1  0  0  0  0
  5 14  1  0  0  0  0
  5 26  1  0  0  0  0
  6  7  1  0  0  0  0
  6  8  1  0  0  0  0
  6  9  1  0  0  0  0
  6 10  1  0  0  0  0
  7 11  1  0  0  0  0
  7 12  1  0  0  0  0
  7 16  1  0  0  0  0
  8 13  1  0  0  0  0
  8 17  1  0  0  0  0
  8 18  1  0  0  0  0
 11 19  1  0  0  0  0
 11 20  1  0  0  0  0
 11 21  1  0  0  0  0
 12 22  1  0  0  0  0
 12 23  1  0  0  0  0
 12 24  1  0  0  0  0
 13 15  2  0  0  0  0
 13 27  1  0  0  0  0
 15 28  1  0  0  0  0
 15 29  1  0  0  0  0
M  END
> <DATABASE_ID>
DB01352

> <DATABASE_NAME>
drugbank

> <ORIGINAL_SOURCE>
PUBCHEM

> <ORIGINAL_SOURCE_URL>
https://pubchem.ncbi.nlm.nih.gov/rest/pug/compound/inchikey/UORJNBVJVRLXMQ-UHFFFAOYSA-N/SDF?record_type=3d

> <SMILES>
CC(C)C1(CC=C)C(=O)NC(=O)NC1=O

> <INCHI_IDENTIFIER>
InChI=1S/C10H14N2O3/c1-4-5-10(6(2)3)7(13)11-9(15)12-8(10)14/h4,6H,1,5H2,2-3H3,(H2,11,12,13,14,15)

> <INCHI_KEY>
UORJNBVJVRLXMQ-UHFFFAOYSA-N

> <FORMULA>
C10H14N2O3

> <MOLECULAR_WEIGHT>
210.2298

> <EXACT_MASS>
210.100442324

> <JCHEM_ACCEPTOR_COUNT>
3

> <JCHEM_AVERAGE_POLARIZABILITY>
20.498060321197006

> <JCHEM_BIOAVAILABILITY>
1

> <JCHEM_DONOR_COUNT>
2

> <JCHEM_FORMAL_CHARGE>
0

> <JCHEM_GHOSE_FILTER>
1

> <JCHEM_IUPAC>
5-(prop-2-en-1-yl)-5-(propan-2-yl)-1,3-diazinane-2,4,6-trione

> <ALOGPS_LOGP>
1.24

> <JCHEM_LOGP>
1.144694595333333

> <ALOGPS_LOGS>
-1.61

> <JCHEM_MDDR_LIKE_RULE>
0

> <JCHEM_NUMBER_OF_RINGS>
1

> <JCHEM_PHYSIOLOGICAL_CHARGE>
0

> <JCHEM_PKA>
12.148448193028818

> <JCHEM_PKA_STRONGEST_ACIDIC>
8.478869260649752

> <JCHEM_POLAR_SURFACE_AREA>
75.27000000000001

> <JCHEM_REFRACTIVITY>
53.446

> <JCHEM_ROTATABLE_BOND_COUNT>
3

> <JCHEM_RULE_OF_FIVE>
1

> <ALOGPS_SOLUBILITY>
5.17e+00 g/l

> <JCHEM_TRADITIONAL_IUPAC>
aprobarbital

> <JCHEM_VEBER_RULE>
0

> <DRUGBANK_ID>
DB01352

> <DRUG_GROUPS>
experimental; illicit

> <GENERIC_NAME>
Aprobarbital

> <SYNONYMS>
5-(1-methylethyl)-5-(2-propenyl)-2,4,6(1H,3H,5H)-pyrimidinetrione; 5-allyl-5-isopropylbarbituric acid; 5-allyl-5-isopropylpyrimidine-2,4,6(1H,3H,5H)-trione; 5-isopropyl-5-allylbarbituric acid; Allypropymal; Aprobarbital; Aprobarbitale; Aprobarbitalum

> <INTERNATIONAL_BRANDS>
Alurate

> <SALTS>
Aprobarbital sodium

$$$$
