REMARK  Name = 3608
REMARK  1 active torsions:
REMARK  status: ('A' for Active; 'I' for Inactive)
REMARK    1  A    between atoms: C_6  and  C_13
REMARK                            x       y       z     vdW  Elec       q    Type
REMARK                         _______ _______ _______ _____ _____    ______ ____
ROOT
ATOM      1  O   UNL     1       0.437  -2.076   1.038  0.00  0.00    -0.274 OA
ATOM      2  O   UNL     1       0.021   2.631   0.282  0.00  0.00    -0.274 OA
ATOM      3  O   UNL     1       3.685   0.375  -1.221  0.00  0.00    -0.252 OA
ATOM      4  N   UNL     1       2.080  -0.882  -0.084  0.00  0.00    -0.212 N 
ATOM      5  N   UNL     1       1.833   1.440  -0.439  0.00  0.00    -0.239 N 
ATOM      6  C   UNL     1       0.089   0.287   0.836  0.00  0.00    +0.153 C 
ATOM      7  C   UNL     1       0.868  -0.999   0.611  0.00  0.00    +0.243 C 
ATOM      8  C   UNL     1      -0.025   0.515   2.350  0.00  0.00    +0.022 C 
ATOM      9  C   UNL     1       0.621   1.557   0.211  0.00  0.00    +0.240 C 
ATOM     10  C   UNL     1       2.610   0.303  -0.619  0.00  0.00    +0.316 C 
ATOM     11  C   UNL     1       2.841  -2.115  -0.267  0.00  0.00    +0.124 C 
ATOM     12  H   UNL     1       2.193   2.271  -0.826  0.00  0.00    +0.159 HD
ENDROOT
BRANCH   6  13
ATOM     13  C   UNL     1      -1.260   0.063   0.214  0.00  0.00    -0.033 C 
ATOM     14  C   UNL     1      -1.282  -0.104  -1.285  0.00  0.00    +0.023 C 
ATOM     15  C   UNL     1      -2.683   0.000  -1.893  0.00  0.00    +0.005 C 
ATOM     16  C   UNL     1      -3.705  -0.766  -1.061  0.00  0.00    +0.005 C 
ATOM     17  C   UNL     1      -3.745  -0.243   0.375  0.00  0.00    +0.025 C 
ATOM     18  C   UNL     1      -2.384   0.014   0.951  0.00  0.00    -0.034 C 
ENDBRANCH   6  13
TORSDOF 1
