REMARK  Name = 10607
REMARK  5 active torsions:
REMARK  status: ('A' for Active; 'I' for Inactive)
REMARK    1  A    between atoms: C_7  and  C_18
REMARK    2  A    between atoms: C_8  and  O_30
REMARK    3  A    between atoms: C_21  and  O_24
REMARK    4  A    between atoms: C_22  and  O_26
REMARK    5  A    between atoms: C_23  and  O_28
REMARK                            x       y       z     vdW  Elec       q    Type
REMARK                         _______ _______ _______ _____ _____    ______ ____
ROOT
ATOM      1  O   UNL     1      -1.063   3.974   0.270  0.00  0.00    -0.448 OA
ATOM      2  O   UNL     1      -1.899   2.979  -1.632  0.00  0.00    -0.250 OA
ATOM      3  O   UNL     1       3.842  -2.636  -1.520  0.00  0.00    -0.435 OA
ATOM      4  O   UNL     1       5.193  -1.666   0.223  0.00  0.00    -0.435 OA
ATOM      5  C   UNL     1       0.576   2.417   0.772  0.00  0.00    +0.086 C 
ATOM      6  C   UNL     1       0.250   2.296  -0.701  0.00  0.00    +0.113 C 
ATOM      7  C   UNL     1       0.311   0.836  -1.163  0.00  0.00    +0.055 C 
ATOM      8  C   UNL     1       2.036   2.074   1.028  0.00  0.00    +0.137 C 
ATOM      9  C   UNL     1       1.646   0.216  -0.725  0.00  0.00    -0.016 C 
ATOM     10  C   UNL     1       0.132   3.831   1.061  0.00  0.00    +0.212 C 
ATOM     11  C   UNL     1       2.440   0.786   0.321  0.00  0.00    +0.004 C 
ATOM     12  C   UNL     1      -1.037   3.077  -0.775  0.00  0.00    +0.317 C 
ATOM     13  C   UNL     1       2.082  -0.953  -1.379  0.00  0.00    +0.036 C 
ATOM     14  C   UNL     1       3.664   0.183   0.668  0.00  0.00    +0.038 C 
ATOM     15  C   UNL     1       3.280  -1.515  -0.992  0.00  0.00    +0.176 C 
ATOM     16  C   UNL     1       4.049  -0.962   0.002  0.00  0.00    +0.176 C 
ATOM     17  C   UNL     1       5.054  -2.727  -0.744  0.00  0.00    +0.429 C 
ENDROOT
BRANCH   7  18
ATOM     18  C   UNL     1      -0.842   0.030  -0.645  0.00  0.00    -0.012 C 
ATOM     19  C   UNL     1      -2.023  -0.032  -1.377  0.00  0.00    +0.036 C 
ATOM     20  C   UNL     1      -0.722  -0.649   0.563  0.00  0.00    +0.036 C 
ATOM     21  C   UNL     1      -1.796  -1.398   1.044  0.00  0.00    +0.175 C 
ATOM     22  C   UNL     1      -3.096  -0.781  -0.896  0.00  0.00    +0.175 C 
ATOM     23  C   UNL     1      -2.983  -1.464   0.315  0.00  0.00    +0.206 C 
BRANCH  21  24
ATOM     24  O   UNL     1      -1.672  -2.060   2.229  0.00  0.00    -0.468 OA
ATOM     25  C   UNL     1      -2.049  -1.353   3.409  0.00  0.00    +0.253 C 
ENDBRANCH  21  24
BRANCH  22  26
ATOM     26  O   UNL     1      -4.250  -0.838  -1.618  0.00  0.00    -0.468 OA
ATOM     27  C   UNL     1      -5.236   0.155  -1.344  0.00  0.00    +0.253 C 
ENDBRANCH  22  26
BRANCH  23  28
ATOM     28  O   UNL     1      -4.032  -2.198   0.784  0.00  0.00    -0.465 OA
ATOM     29  C   UNL     1      -4.092  -3.567   0.390  0.00  0.00    +0.253 C 
ENDBRANCH  23  28
ENDBRANCH   7  18
BRANCH   8  30
ATOM     30  O   UNL     1       2.234   1.945   2.433  0.00  0.00    -0.380 OA
ATOM     31  H   UNL     1       1.974   2.770   2.873  0.00  0.00    +0.211 HD
ENDBRANCH   8  30
TORSDOF 5
