REMARK  Name = 5479537
REMARK  7 active torsions:
REMARK  status: ('A' for Active; 'I' for Inactive)
REMARK    1  A    between atoms: C_4  and  C_29
REMARK    2  A    between atoms: CA_6  and  N_11
REMARK    3  A    between atoms: CA_7  and  C_28
REMARK    4  A    between atoms: C_12  and  C_15
REMARK    5  A    between atoms: N_14  and  O_24
REMARK    6  A    between atoms: C_15  and  C_19
REMARK    7  A    between atoms: C_29  and  N_30
REMARK                            x       y       z     vdW  Elec       q    Type
REMARK                         _______ _______ _______ _____ _____    ______ ____
ROOT
ATOM      1  S   UNL     1      -0.679   0.556  -1.813  0.00  0.00    -0.114 S 
ATOM      2  O   UNL     1       0.466   1.308   2.631  0.00  0.00    -0.273 OA
ATOM      3  N   UNL     1      -0.964   1.046   0.778  0.00  0.00    -0.242 N 
ATOM      4  C   UNL     1      -2.806  -0.145  -0.094  0.00  0.00    -0.034 C 
ATOM      5  C   UNL     1      -0.650   1.745  -0.453  0.00  0.00    +0.155 C 
ATOM      6  CA  UNL     1       0.730   2.036   0.180  0.00  0.00    +0.179 C 
ATOM      7  CA  UNL     1      -2.063   0.270   0.958  0.00  0.00    +0.126 C 
ATOM      8  C   UNL     1      -2.434   0.129  -1.549  0.00  0.00    +0.081 C 
ATOM      9  C   UNL     1       0.115   1.444   1.483  0.00  0.00    +0.251 C 
ENDROOT
BRANCH   6  11
ATOM     10  O   UNL     1       3.396   1.823   1.418  0.00  0.00    -0.268 OA
ATOM     11  N   UNL     1       1.893   1.296  -0.306  0.00  0.00    -0.291 N 
ATOM     12  C   UNL     1       3.101   1.272   0.370  0.00  0.00    +0.269 C 
ATOM     13  H   UNL     1       1.814   0.793  -1.149  0.00  0.00    +0.150 HD
BRANCH  12  15
ATOM     14  N   UNL     1       4.937   0.992  -1.203  0.00  0.00    -0.076 NA
ATOM     15  C   UNL     1       4.150   0.445  -0.327  0.00  0.00    +0.198 C 
BRANCH  15  19
ATOM     16  S   UNL     1       4.018  -3.320   0.904  0.00  0.00    -0.060 S 
ATOM     17  N   UNL     1       5.274  -1.724  -0.695  0.00  0.00    -0.383 NA
ATOM     18  N   UNL     1       6.029  -3.964  -0.711  0.00  0.00    -0.328 N 
ATOM     19  C   UNL     1       4.305  -0.986  -0.043  0.00  0.00    +0.148 C 
ATOM     20  C   UNL     1       3.526  -1.678   0.860  0.00  0.00    +0.127 C 
ATOM     21  C   UNL     1       5.215  -2.968  -0.274  0.00  0.00    +0.204 C 
ATOM     22  H   UNL     1       5.929  -4.875  -0.352  0.00  0.00    +0.145 HD
ATOM     23  H   UNL     1       6.720  -3.775  -1.387  0.00  0.00    +0.145 HD
ENDBRANCH  15  19
BRANCH  14  24
ATOM     24  O   UNL     1       4.662   2.357  -1.368  0.00  0.00    -0.373 OA
ATOM     25  C   UNL     1       5.562   2.873  -2.337  0.00  0.00    +0.288 C 
ENDBRANCH  14  24
ENDBRANCH  12  15
ENDBRANCH   6  11
BRANCH   7  28
ATOM     26  O   UNL     1      -1.875  -1.229   2.755  0.00  0.00    -0.239 OA
ATOM     27  OXT UNL     1      -3.215   0.612   2.974  0.00  0.00    -0.239 OA
ATOM     28  C   UNL     1      -2.422  -0.160   2.376  0.00  0.00    +0.401 C 
ENDBRANCH   7  28
BRANCH   4  29
ATOM     29  C   UNL     1      -4.055  -0.989   0.013  0.00  0.00    -0.048 C 
BRANCH  29  30
ATOM     30  N   UNL     1      -5.280  -0.286  -0.552  0.00  0.00    +0.391 N 
ATOM     31  C   UNL     1      -6.572  -0.973  -0.063  0.00  0.00    -0.073 C 
ATOM     32  C   UNL     1      -5.301  -0.400  -2.091  0.00  0.00    -0.073 C 
ATOM     33  C   UNL     1      -7.083  -1.732  -1.272  0.00  0.00    -0.024 C 
ATOM     34  C   UNL     1      -6.718  -0.824  -2.425  0.00  0.00    -0.024 C 
ATOM     35  C   UNL     1      -5.263   1.173  -0.124  0.00  0.00    -0.095 C 
ENDBRANCH  29  30
ENDBRANCH   4  29
TORSDOF 7
