REMARK  Name = 164795
REMARK  8 active torsions:
REMARK  status: ('A' for Active; 'I' for Inactive)
REMARK    1  A    between atoms: C_1  and  N_2
REMARK    2  A    between atoms: C_1  and  C_7
REMARK    3  A    between atoms: C_1  and  C_10
REMARK    4  A    between atoms: C_7  and  O_8
REMARK    5  A    between atoms: C_10  and  C_11
REMARK    6  A    between atoms: C_11  and  C_12
REMARK    7  A    between atoms: C_12  and  C_13
REMARK    8  A    between atoms: C_13  and  N_14
REMARK                            x       y       z     vdW  Elec       q    Type
REMARK                         _______ _______ _______ _____ _____    ______ ____
ROOT
ATOM      1  C   UNK     1      -1.959   0.358  -0.432  0.00  0.00    +0.036 C 
ENDROOT
BRANCH   1   2
ATOM      2  N   UNK     1      -2.034   1.774  -0.066  0.00  0.00    +0.389 N 
ATOM      3  H   UNK     1      -1.174   2.244  -0.349  0.00  0.00    -0.088 HD
ATOM      4  H   UNK     1      -2.151   1.858   0.944  0.00  0.00    -0.088 HD
ATOM      5  H   UNK     1      -2.828   2.205  -0.538  0.00  0.00    -0.088 HD
ENDBRANCH   1   2
BRANCH   1   7
ATOM      6  O   UNK     1      -4.120   0.289   0.641  0.00  0.00    -0.253 OA
ATOM      7  C   UNK     1      -3.252  -0.298   0.005  0.00  0.00    +0.293 C 
BRANCH   7   8
ATOM      8  O   UNK     1      -3.361  -1.601  -0.353  0.00  0.00    -0.482 OA
ATOM      9  H   UNK     1      -2.675  -2.013  -0.840  0.00  0.00    +0.295 HD
ENDBRANCH   7   8
ENDBRANCH   1   7
BRANCH   1  10
ATOM     10  C   UNK     1      -0.714  -0.309   0.167  0.00  0.00    -0.011 C 
BRANCH  10  11
ATOM     11  C   UNK     1       0.620   0.302  -0.282  0.00  0.00    -0.004 C 
BRANCH  11  12
ATOM     12  C   UNK     1       1.846  -0.428   0.274  0.00  0.00    -0.023 C 
BRANCH  12  13
ATOM     13  C   UNK     1       3.140   0.241  -0.188  0.00  0.00    -0.082 C 
BRANCH  13  14
ATOM     14  N   UNK     1       4.296  -0.470   0.344  0.00  0.00    +0.382 N 
ATOM     15  C   UNK     1       5.537   0.143  -0.109  0.00  0.00    -0.106 C 
ATOM     16  H   UNK     1       4.267  -1.439   0.027  0.00  0.00    -0.085 HD
ATOM     17  H   UNK     1       4.265  -0.428   1.362  0.00  0.00    -0.085 HD
ENDBRANCH  13  14
ENDBRANCH  12  13
ENDBRANCH  11  12
ENDBRANCH  10  11
ENDBRANCH   1  10
TORSDOF 8
