REMARK  Name = 14708
REMARK  1 active torsions:
REMARK  status: ('A' for Active; 'I' for Inactive)
REMARK    1  A    between atoms: C_9  and  O_24
REMARK                            x       y       z     vdW  Elec       q    Type
REMARK                         _______ _______ _______ _____ _____    ______ ____
ROOT
ATOM      1  O   UNL     1       5.879   1.022   0.332  0.00  0.00    -0.242 OA
ATOM      2  N   UNL     1       4.720   1.811   0.372  0.00  0.00    -0.053 NA
ATOM      3  N   UNL     1       5.573  -0.337   0.174  0.00  0.00    -0.053 NA
ATOM      4  C   UNL     1      -2.402  -0.700   0.314  0.00  0.00    +0.002 C 
ATOM      5  C   UNL     1      -3.049   0.578  -0.263  0.00  0.00    +0.023 C 
ATOM      6  C   UNL     1      -0.980  -0.948  -0.212  0.00  0.00    +0.000 C 
ATOM      7  C   UNL     1      -0.086   0.278   0.155  0.00  0.00    +0.000 C 
ATOM      8  C   UNL     1       1.405   0.089  -0.313  0.00  0.00    +0.006 C 
ATOM      9  C   UNL     1      -4.480   0.478   0.351  0.00  0.00    +0.088 C 
ATOM     10  C   UNL     1      -2.187   1.776   0.168  0.00  0.00    +0.002 C 
ATOM     11  C   UNL     1      -0.724   1.622  -0.286  0.00  0.00    +0.000 C 
ATOM     12  C   UNL     1       1.938  -1.272   0.294  0.00  0.00    +0.006 C 
ATOM     13  C   UNL     1      -3.461  -1.772   0.080  0.00  0.00    +0.002 C 
ATOM     14  C   UNL     1      -0.396  -2.246   0.362  0.00  0.00    +0.000 C 
ATOM     15  C   UNL     1      -4.803  -1.037   0.255  0.00  0.00    +0.027 C 
ATOM     16  C   UNL     1       1.050  -2.469  -0.068  0.00  0.00    +0.000 C 
ATOM     17  C   UNL     1       2.285   1.274   0.233  0.00  0.00    +0.051 C 
ATOM     18  C   UNL     1      -3.143   0.571  -1.818  0.00  0.00    +0.002 C 
ATOM     19  C   UNL     1       1.508   0.086  -1.861  0.00  0.00    +0.000 C 
ATOM     20  C   UNL     1       3.419  -1.576  -0.057  0.00  0.00    +0.051 C 
ATOM     21  C   UNL     1      -4.601   0.956   1.804  0.00  0.00    +0.029 C 
ATOM     22  C   UNL     1       3.729   0.932   0.236  0.00  0.00    +0.117 A 
ATOM     23  C   UNL     1       4.243  -0.362   0.124  0.00  0.00    +0.117 A 
ENDROOT
BRANCH   9  24
ATOM     24  O   UNL     1      -5.437   1.245  -0.376  0.00  0.00    -0.387 OA
ATOM     25  H   UNL     1      -5.412   0.990  -1.312  0.00  0.00    +0.210 HD
ENDBRANCH   9  24
TORSDOF 1
