REMARK  Name = 4908
REMARK  7 active torsions:
REMARK  status: ('A' for Active; 'I' for Inactive)
REMARK    1  A    between atoms: C_2  and  N_13
REMARK    2  A    between atoms: C_6  and  O_11
REMARK    3  A    between atoms: N_13  and  C_15
REMARK    4  A    between atoms: C_15  and  C_17
REMARK    5  A    between atoms: C_17  and  C_18
REMARK    6  A    between atoms: C_18  and  C_19
REMARK    7  A    between atoms: C_19  and  N_20
REMARK                            x       y       z     vdW  Elec       q    Type
REMARK                         _______ _______ _______ _____ _____    ______ ____
ROOT
ATOM      1  N   UNL     1      -0.656   2.155   0.520  0.00  0.00    -0.247 NA
ATOM      2  C   UNL     1      -0.292  -0.177   0.274  0.00  0.00    +0.120 C 
ATOM      3  C   UNL     1      -1.145   0.942   0.200  0.00  0.00    +0.074 C 
ATOM      4  C   UNL     1      -0.799  -1.454  -0.061  0.00  0.00    +0.028 C 
ATOM      5  C   UNL     1      -2.485   0.763  -0.206  0.00  0.00    +0.001 C 
ATOM      6  C   UNL     1      -2.119  -1.623  -0.460  0.00  0.00    +0.118 C 
ATOM      7  C   UNL     1      -2.962  -0.517  -0.533  0.00  0.00    +0.091 C 
ATOM      8  C   UNL     1      -3.311   1.893  -0.270  0.00  0.00    -0.001 C 
ATOM      9  C   UNL     1      -2.810   3.144   0.060  0.00  0.00    +0.020 C 
ATOM     10  C   UNL     1      -1.487   3.220   0.445  0.00  0.00    +0.098 C 
ENDROOT
BRANCH   6  11
ATOM     11  O   UNL     1      -2.585  -2.860  -0.778  0.00  0.00    -0.476 OA
ATOM     12  C   UNL     1      -1.665  -3.947  -0.680  0.00  0.00    +0.252 C 
ENDBRANCH   6  11
BRANCH   2  13
ATOM     13  N   UNL     1       1.028  -0.052   0.667  0.00  0.00    -0.291 NA
ATOM     14  H   UNL     1       1.363   0.845   0.897  0.00  0.00    +0.124 HD
BRANCH  13  15
ATOM     15  C   UNL     1       1.946  -1.169   0.759  0.00  0.00    +0.054 C 
ATOM     16  C   UNL     1       1.657  -1.931   2.048  0.00  0.00    +0.017 C 
BRANCH  15  17
ATOM     17  C   UNL     1       3.397  -0.669   0.731  0.00  0.00    +0.014 C 
BRANCH  17  18
ATOM     18  C   UNL     1       3.712   0.150  -0.526  0.00  0.00    -0.023 C 
BRANCH  18  19
ATOM     19  C   UNL     1       5.144   0.686  -0.489  0.00  0.00    -0.086 C 
BRANCH  19  20
ATOM     20  N   UNL     1       5.433   1.444  -1.700  0.00  0.00    +0.380 N 
ATOM     21  H   UNL     1       6.390   1.795  -1.661  0.00  0.00    -0.089 HD
ATOM     22  H   UNL     1       4.786   2.229  -1.772  0.00  0.00    -0.089 HD
ATOM     23  H   UNL     1       5.325   0.839  -2.514  0.00  0.00    -0.089 HD
ENDBRANCH  19  20
ENDBRANCH  18  19
ENDBRANCH  17  18
ENDBRANCH  15  17
ENDBRANCH  13  15
ENDBRANCH   2  13
TORSDOF 7
