REMARK  Name = 5875
REMARK  5 active torsions:
REMARK  status: ('A' for Active; 'I' for Inactive)
REMARK    1  A    between atoms: C_7  and  O_23
REMARK    2  A    between atoms: C_7  and  C_28
REMARK    3  A    between atoms: C_11  and  O_25
REMARK    4  A    between atoms: C_28  and  C_29
REMARK    5  A    between atoms: C_29  and  O_30
REMARK                            x       y       z     vdW  Elec       q    Type
REMARK                         _______ _______ _______ _____ _____    ______ ____
ROOT
ATOM      1  F   UNL     1       3.406  -2.951  -0.715  0.00  0.00    -0.233 F 
ATOM      2  O   UNL     1       6.053   0.347   1.769  0.00  0.00    -0.287 OA
ATOM      3  C   UNL     1      -1.940   0.203  -0.157  0.00  0.00    +0.031 C 
ATOM      4  C   UNL     1      -0.966  -0.984   0.017  0.00  0.00    +0.003 C 
ATOM      5  C   UNL     1       0.406  -0.767  -0.643  0.00  0.00    +0.006 C 
ATOM      6  C   UNL     1       1.085   0.490   0.005  0.00  0.00    +0.034 C 
ATOM      7  C   UNL     1      -3.186  -0.387   0.571  0.00  0.00    +0.141 C 
ATOM      8  C   UNL     1      -1.796  -2.200  -0.395  0.00  0.00    +0.003 C 
ATOM      9  C   UNL     1      -1.284   1.437   0.497  0.00  0.00    +0.032 C 
ATOM     10  C   UNL     1      -3.235  -1.867   0.077  0.00  0.00    +0.032 C 
ATOM     11  C   UNL     1       0.143   1.737  -0.013  0.00  0.00    +0.111 C 
ATOM     12  C   UNL     1       2.560   0.718  -0.514  0.00  0.00    +0.039 C 
ATOM     13  C   UNL     1       1.284  -2.018  -0.474  0.00  0.00    +0.040 C 
ATOM     14  C   UNL     1      -2.279   0.499  -1.643  0.00  0.00    +0.003 C 
ATOM     15  C   UNL     1       2.704  -1.810  -0.979  0.00  0.00    +0.180 C 
ATOM     16  C   UNL     1       3.321  -0.601  -0.321  0.00  0.00    -0.006 C 
ATOM     17  C   UNL     1      -3.745  -2.870   1.108  0.00  0.00    +0.003 C 
ATOM     18  C   UNL     1       2.642   1.111  -2.006  0.00  0.00    +0.009 C 
ATOM     19  C   UNL     1       3.213   1.852   0.262  0.00  0.00    -0.020 C 
ATOM     20  C   UNL     1       4.439  -0.711   0.414  0.00  0.00    +0.036 C 
ATOM     21  C   UNL     1       4.324   1.746   0.997  0.00  0.00    +0.038 C 
ATOM     22  C   UNL     1       5.024   0.454   1.111  0.00  0.00    +0.195 C 
ENDROOT
BRANCH   7  23
ATOM     23  O   UNL     1      -3.095  -0.282   1.986  0.00  0.00    -0.380 OA
ATOM     24  H   UNL     1      -2.290  -0.728   2.293  0.00  0.00    +0.211 HD
ENDBRANCH   7  23
BRANCH  11  25
ATOM     25  O   UNL     1       0.069   2.298  -1.317  0.00  0.00    -0.384 OA
ATOM     26  H   UNL     1       0.964   2.486  -1.639  0.00  0.00    +0.210 HD
ENDBRANCH  11  25
BRANCH   7  28
ATOM     27  O   UNL     1      -5.407  -0.214  -0.274  0.00  0.00    -0.291 OA
ATOM     28  C   UNL     1      -4.463   0.343   0.287  0.00  0.00    +0.204 C 
BRANCH  28  29
ATOM     29  C   UNL     1      -4.521   1.790   0.727  0.00  0.00    +0.204 C 
BRANCH  29  30
ATOM     30  O   UNL     1      -4.756   2.638  -0.377  0.00  0.00    -0.375 OA
ATOM     31  H   UNL     1      -4.789   3.559  -0.075  0.00  0.00    +0.211 HD
ENDBRANCH  29  30
ENDBRANCH  28  29
ENDBRANCH   7  28
TORSDOF 5
