REMARK  Name = 48041
REMARK  6 active torsions:
REMARK  status: ('A' for Active; 'I' for Inactive)
REMARK    1  A    between atoms: C_1  and  C_19
REMARK    2  A    between atoms: C_2  and  N_8
REMARK    3  A    between atoms: C_9  and  C_11
REMARK    4  A    between atoms: C_16  and  O_17
REMARK    5  A    between atoms: C_19  and  C_20
REMARK    6  A    between atoms: C_20  and  C_22
REMARK                            x       y       z     vdW  Elec       q    Type
REMARK                         _______ _______ _______ _____ _____    ______ ____
ROOT
ATOM      1  C   UNL     1       2.924  -0.717  -0.530  0.00  0.00    -0.009 C 
ATOM      2  C   UNL     1       2.020  -1.698  -0.146  0.00  0.00    +0.046 C 
ATOM      3  C   UNL     1       4.288  -0.975  -0.557  0.00  0.00    -0.003 C 
ATOM      4  C   UNL     1       2.489  -2.961   0.218  0.00  0.00    +0.014 C 
ATOM      5  C   UNL     1       4.756  -2.237  -0.193  0.00  0.00    -0.000 C 
ATOM      6  C   UNL     1       3.857  -3.230   0.195  0.00  0.00    +0.001 C 
ENDROOT
BRANCH   2   8
ATOM      7  O   UNL     1      -0.260  -3.493   0.610  0.00  0.00    -0.270 OA
ATOM      8  N   UNL     1       0.646  -1.448  -0.114  0.00  0.00    -0.281 N 
ATOM      9  C   UNL     1      -0.382  -2.327   0.249  0.00  0.00    +0.249 C 
ATOM     10  H   UNL     1       0.365  -0.542  -0.380  0.00  0.00    +0.155 HD
BRANCH   9  11
ATOM     11  C   UNL     1      -1.757  -1.772   0.153  0.00  0.00    +0.054 C 
ATOM     12  C   UNL     1      -2.740  -2.287   0.971  0.00  0.00    +0.008 C 
ATOM     13  C   UNL     1      -2.005  -0.759  -0.750  0.00  0.00    +0.008 C 
ATOM     14  C   UNL     1      -4.031  -1.766   0.882  0.00  0.00    +0.037 C 
ATOM     15  C   UNL     1      -3.296  -0.238  -0.839  0.00  0.00    +0.037 C 
ATOM     16  C   UNL     1      -4.309  -0.741  -0.023  0.00  0.00    +0.139 C 
BRANCH  16  17
ATOM     17  O   UNL     1      -5.568  -0.232  -0.108  0.00  0.00    -0.471 OA
ATOM     18  C   UNL     1      -5.782   0.814  -1.055  0.00  0.00    +0.252 C 
ENDBRANCH  16  17
ENDBRANCH   9  11
ENDBRANCH   2   8
BRANCH   1  19
ATOM     19  C   UNL     1       2.446   0.656  -0.928  0.00  0.00    +0.026 C 
BRANCH  19  20
ATOM     20  C   UNL     1       2.379   1.587   0.276  0.00  0.00    -0.016 C 
BRANCH  20  22
ATOM     21  N   UNL     1       0.608   2.891  -0.845  0.00  0.00    +0.387 N 
ATOM     22  C   UNL     1       1.901   2.985  -0.139  0.00  0.00    -0.058 C 
ATOM     23  C   UNL     1       1.873   3.950   1.061  0.00  0.00    -0.021 C 
ATOM     24  C   UNL     1       0.707   3.679   2.007  0.00  0.00    -0.004 C 
ATOM     25  C   UNL     1      -0.522   2.644   0.063  0.00  0.00    -0.077 C 
ATOM     26  C   UNL     1      -0.607   3.618   1.240  0.00  0.00    -0.023 C 
ATOM     27  C   UNL     1       0.368   4.056  -1.698  0.00  0.00    -0.101 C 
ATOM     28  H   UNL     1       0.675   2.073  -1.451  0.00  0.00    -0.080 HD
ENDBRANCH  20  22
ENDBRANCH  19  20
ENDBRANCH   1  19
TORSDOF 6
