REMARK  Name = 446399
REMARK  4 active torsions:
REMARK  status: ('A' for Active; 'I' for Inactive)
REMARK    1  A    between atoms: N_3  and  S_21
REMARK    2  A    between atoms: C_4  and  C_10
REMARK    3  A    between atoms: N_9  and  C_16
REMARK    4  A    between atoms: S_21  and  C_25
REMARK                            x       y       z     vdW  Elec       q    Type
REMARK                         _______ _______ _______ _____ _____    ______ ____
ROOT
ATOM      1  O   UNL     1       1.481  -2.903   2.161  0.00  0.00    -0.275 OA
ATOM      2  N   UNL     1       0.078  -2.916   0.310  0.00  0.00    -0.277 N 
ATOM      3  N   UNL     1      -2.619  -2.680  -0.565  0.00  0.00    -0.152 NA
ATOM      4  C   UNL     1       1.265  -2.622   0.979  0.00  0.00    +0.225 C 
ATOM      5  C   UNL     1      -0.211  -2.596  -1.093  0.00  0.00    +0.113 C 
ATOM      6  C   UNL     1      -0.981  -3.662   0.991  0.00  0.00    +0.113 C 
ATOM      7  C   UNL     1      -1.547  -1.869  -1.217  0.00  0.00    +0.117 C 
ATOM      8  C   UNL     1      -2.317  -2.937   0.876  0.00  0.00    +0.117 C 
ENDROOT
BRANCH   4  10
ATOM      9  N   UNL     1       4.587  -0.120   0.030  0.00  0.00    -0.307 N 
ATOM     10  C   UNL     1       2.331  -1.914   0.182  0.00  0.00    +0.080 C 
ATOM     11  C   UNL     1       3.708  -2.321   0.700  0.00  0.00    +0.031 C 
ATOM     12  C   UNL     1       2.155  -0.402   0.297  0.00  0.00    +0.031 C 
ATOM     13  C   UNL     1       4.824  -1.567  -0.023  0.00  0.00    +0.091 C 
ATOM     14  C   UNL     1       3.271   0.344  -0.431  0.00  0.00    +0.091 C 
BRANCH   9  16
ATOM     15  N   UNL     1       7.843   2.532  -0.403  0.00  0.00    -0.242 NA
ATOM     16  C   UNL     1       5.667   0.760  -0.114  0.00  0.00    +0.051 C 
ATOM     17  C   UNL     1       6.786   0.412  -0.886  0.00  0.00    +0.035 C 
ATOM     18  C   UNL     1       5.664   2.017   0.511  0.00  0.00    +0.035 C 
ATOM     19  C   UNL     1       7.829   1.318  -0.997  0.00  0.00    +0.100 C 
ATOM     20  C   UNL     1       6.757   2.851   0.337  0.00  0.00    +0.100 C 
ENDBRANCH   9  16
ENDBRANCH   4  10
BRANCH   3  21
ATOM     21  S   UNL     1      -4.223  -2.180  -0.899  0.00  0.00    +0.063 S 
ATOM     22  O   UNL     1      -5.136  -2.943  -0.077  0.00  0.00    -0.153 OA
ATOM     23  O   UNL     1      -4.399  -2.099  -2.333  0.00  0.00    -0.153 OA
BRANCH  21  25
ATOM     24 CL   UNL     1      -3.619   6.045   1.017  0.00  0.00    -0.082 Cl
ATOM     25  C   UNL     1      -4.170  -0.534  -0.264  0.00  0.00    +0.122 C 
ATOM     26  C   UNL     1      -3.798   0.504  -1.102  0.00  0.00    +0.020 C 
ATOM     27  C   UNL     1      -4.502  -0.309   1.059  0.00  0.00    +0.020 C 
ATOM     28  C   UNL     1      -3.751   1.820  -0.612  0.00  0.00    +0.001 C 
ATOM     29  C   UNL     1      -4.088   2.067   0.740  0.00  0.00    +0.001 C 
ATOM     30  C   UNL     1      -4.461   0.992   1.562  0.00  0.00    +0.001 C 
ATOM     31  C   UNL     1      -3.378   2.895  -1.435  0.00  0.00    +0.001 C 
ATOM     32  C   UNL     1      -4.042   3.383   1.230  0.00  0.00    +0.011 C 
ATOM     33  C   UNL     1      -3.337   4.196  -0.931  0.00  0.00    +0.011 C 
ATOM     34  C   UNL     1      -3.668   4.439   0.399  0.00  0.00    +0.058 C 
ENDBRANCH  21  25
ENDBRANCH   3  21
TORSDOF 4
