REMARK  Name = 62281
REMARK  6 active torsions:
REMARK  status: ('A' for Active; 'I' for Inactive)
REMARK    1  A    between atoms: N_1  and  C_19
REMARK    2  A    between atoms: C_2  and  N_9
REMARK    3  A    between atoms: N_9  and  C_11
REMARK    4  A    between atoms: C_10  and  C_17
REMARK    5  A    between atoms: C_19  and  C_21
REMARK    6  A    between atoms: C_21  and  C_22
REMARK                            x       y       z     vdW  Elec       q    Type
REMARK                         _______ _______ _______ _____ _____    ______ ____
ROOT
ATOM      1  N   UNL     1       1.192  -0.362  -0.362  0.00  0.00    +0.389 N 
ATOM      2  C   UNL     1      -1.639  -1.055  -0.105  0.00  0.00    +0.076 C 
ATOM      3  C   UNL     1      -1.034  -0.567  -1.421  0.00  0.00    -0.003 C 
ATOM      4  C   UNL     1      -0.812  -0.547   1.076  0.00  0.00    -0.003 C 
ATOM      5  C   UNL     1       0.454  -0.908  -1.509  0.00  0.00    -0.076 C 
ATOM      6  C   UNL     1       0.668  -0.890   0.906  0.00  0.00    -0.076 C 
ATOM      7  H   UNL     1       1.064   0.649  -0.358  0.00  0.00    -0.080 HD
ENDROOT
BRANCH   2   9
ATOM      8  O   UNL     1      -3.999  -2.800   0.112  0.00  0.00    -0.275 OA
ATOM      9  N   UNL     1      -3.016  -0.645   0.010  0.00  0.00    -0.260 N 
ATOM     10  C   UNL     1      -4.098  -1.570   0.111  0.00  0.00    +0.229 C 
BRANCH   9  11
ATOM     11  C   UNL     1      -3.319   0.785   0.025  0.00  0.00    +0.054 C 
ATOM     12  C   UNL     1      -3.346   1.412   1.234  0.00  0.00    +0.015 C 
ATOM     13  C   UNL     1      -3.554   1.392  -1.172  0.00  0.00    +0.015 C 
ATOM     14  C   UNL     1      -3.635   2.776   1.248  0.00  0.00    +0.001 C 
ATOM     15  C   UNL     1      -3.844   2.756  -1.159  0.00  0.00    +0.001 C 
ATOM     16  C   UNL     1      -3.885   3.449   0.052  0.00  0.00    +0.000 C 
ENDBRANCH   9  11
BRANCH  10  17
ATOM     17  C   UNL     1      -5.484  -0.935   0.177  0.00  0.00    +0.086 C 
ATOM     18  C   UNL     1      -6.599  -1.964   0.298  0.00  0.00    +0.010 C 
ENDBRANCH  10  17
ENDBRANCH   2   9
BRANCH   1  19
ATOM     19  C   UNL     1       2.620  -0.654  -0.486  0.00  0.00    -0.054 C 
ATOM     20  C   UNL     1       2.800  -2.172  -0.519  0.00  0.00    -0.023 C 
BRANCH  19  21
ATOM     21  C   UNL     1       3.383   0.005   0.677  0.00  0.00    +0.006 C 
BRANCH  21  22
ATOM     22  C   UNL     1       4.851   0.219   0.394  0.00  0.00    -0.024 C 
ATOM     23  C   UNL     1       5.758  -0.775   0.722  0.00  0.00    -0.004 C 
ATOM     24  C   UNL     1       5.263   1.407  -0.190  0.00  0.00    -0.004 C 
ATOM     25  C   UNL     1       7.114  -0.577   0.460  0.00  0.00    -0.000 C 
ATOM     26  C   UNL     1       6.618   1.605  -0.452  0.00  0.00    -0.000 C 
ATOM     27  C   UNL     1       7.544   0.614  -0.127  0.00  0.00    -0.000 C 
ENDBRANCH  21  22
ENDBRANCH  19  21
ENDBRANCH   1  19
TORSDOF 6
