REMARK  Name = 3038
REMARK  4 active torsions:
REMARK  status: ('A' for Active; 'I' for Inactive)
REMARK    1  A    between atoms: C_3  and  S_9
REMARK    2  A    between atoms: C_4  and  S_15
REMARK    3  A    between atoms: S_9  and  N_12
REMARK    4  A    between atoms: S_15  and  N_18
REMARK                            x       y       z     vdW  Elec       q    Type
REMARK                         _______ _______ _______ _____ _____    ______ ____
ROOT
ATOM      1 CL   UNL     1       2.787  -1.848  -0.001  0.00  0.00    -0.080 Cl
ATOM      2 CL   UNL     1       0.186  -3.716  -0.051  0.00  0.00    -0.081 Cl
ATOM      3  C   UNL     1       1.036   0.223   0.071  0.00  0.00    +0.134 C 
ATOM      4  C   UNL     1      -1.365  -0.048   0.071  0.00  0.00    +0.124 C 
ATOM      5  C   UNL     1      -0.243   0.780   0.093  0.00  0.00    +0.041 C 
ATOM      6  C   UNL     1       1.192  -1.163   0.027  0.00  0.00    +0.087 C 
ATOM      7  C   UNL     1      -1.209  -1.433   0.027  0.00  0.00    +0.032 C 
ATOM      8  C   UNL     1       0.069  -1.990   0.005  0.00  0.00    +0.071 C 
ENDROOT
BRANCH   3   9
ATOM      9  S   UNL     1       2.401   1.323   0.100  0.00  0.00    +0.058 S 
ATOM     10  O   UNL     1       1.964   2.569   0.709  0.00  0.00    -0.153 OA
ATOM     11  O   UNL     1       3.548   0.611   0.640  0.00  0.00    -0.153 OA
BRANCH   9  12
ATOM     12  N   UNL     1       2.642   1.575  -1.571  0.00  0.00    -0.203 NA
ATOM     13  H   UNL     1       3.427   2.212  -1.709  0.00  0.00    +0.144 HD
ATOM     14  H   UNL     1       1.800   1.979  -1.979  0.00  0.00    +0.144 HD
ENDBRANCH   9  12
ENDBRANCH   3   9
BRANCH   4  15
ATOM     15  S   UNL     1      -2.965   0.650   0.101  0.00  0.00    +0.057 S 
ATOM     16  O   UNL     1      -3.888  -0.339   0.641  0.00  0.00    -0.153 OA
ATOM     17  O   UNL     1      -2.883   1.971   0.709  0.00  0.00    -0.153 OA
BRANCH  15  18
ATOM     18  N   UNL     1      -3.271   0.835  -1.570  0.00  0.00    -0.203 NA
ATOM     19  H   UNL     1      -4.196   1.243  -1.704  0.00  0.00    +0.144 HD
ATOM     20  H   UNL     1      -3.233  -0.077  -2.026  0.00  0.00    +0.144 HD
ENDBRANCH  15  18
ENDBRANCH   4  15
TORSDOF 4
