REMARK  Name = 5288154
REMARK  11 active torsions:
REMARK  status: ('A' for Active; 'I' for Inactive)
REMARK    1  A    between atoms: P_1  and  O_3
REMARK    2  A    between atoms: P_1  and  O_5
REMARK    3  A    between atoms: P_1  and  O_13
REMARK    4  A    between atoms: O_5  and  C_6
REMARK    5  A    between atoms: C_6  and  C_7
REMARK    6  A    between atoms: C_7  and  C_8
REMARK    7  A    between atoms: C_8  and  C_10
REMARK    8  A    between atoms: C_10  and  O_11
REMARK    9  A    between atoms: O_13  and  P_14
REMARK   10  A    between atoms: P_14  and  O_16
REMARK   11  A    between atoms: P_14  and  O_18
REMARK                            x       y       z     vdW  Elec       q    Type
REMARK                         _______ _______ _______ _____ _____    ______ ____
ROOT
ATOM      1  P   UNL     1      -1.548   1.526  -0.112  0.00  0.00    +0.484 P 
ATOM      2  O   UNL     1      -2.423   2.251   0.870  0.00  0.00    -0.227 OA
ENDROOT
BRANCH   1   3
ATOM      3  O   UNL     1      -1.269   2.339  -1.483  0.00  0.00    -0.302 OA
ATOM      4  H   UNL     1      -0.700   1.809  -2.062  0.00  0.00    +0.222 HD
ENDBRANCH   1   3
BRANCH   1   5
ATOM      5  O   UNL     1      -0.078   1.154   0.445  0.00  0.00    -0.273 OA
BRANCH   5   6
ATOM      6  C   UNL     1       0.843   0.467  -0.393  0.00  0.00    +0.154 C 
BRANCH   6   7
ATOM      7  C   UNL     1       2.137   0.247   0.381  0.00  0.00    +0.035 C 
BRANCH   7   8
ATOM      8  C   UNL     1       3.229  -0.475  -0.430  0.00  0.00    +0.032 C 
ATOM      9  C   UNL     1       2.743  -1.884  -0.789  0.00  0.00    +0.003 C 
BRANCH   8  10
ATOM     10  C   UNL     1       4.578  -0.545   0.297  0.00  0.00    +0.137 C 
BRANCH  10  11
ATOM     11  O   UNL     1       5.038   0.756   0.634  0.00  0.00    -0.382 OA
ATOM     12  H   UNL     1       5.891   0.689   1.092  0.00  0.00    +0.210 HD
ENDBRANCH  10  11
ENDBRANCH   8  10
ENDBRANCH   7   8
ENDBRANCH   6   7
ENDBRANCH   5   6
ENDBRANCH   1   5
BRANCH   1  13
ATOM     13  O   UNL     1      -2.156   0.121  -0.631  0.00  0.00    -0.186 OA
BRANCH  13  14
ATOM     14  P   UNL     1      -2.570  -1.217   0.174  0.00  0.00    +0.481 P 
ATOM     15  O   UNL     1      -1.448  -1.864   0.932  0.00  0.00    -0.227 OA
BRANCH  14  16
ATOM     16  O   UNL     1      -3.250  -2.137  -0.968  0.00  0.00    -0.302 OA
ATOM     17  H   UNL     1      -3.961  -1.639  -1.402  0.00  0.00    +0.222 HD
ENDBRANCH  14  16
BRANCH  14  18
ATOM     18  O   UNL     1      -3.825  -0.740   1.073  0.00  0.00    -0.302 OA
ATOM     19  H   UNL     1      -4.497  -0.336   0.501  0.00  0.00    +0.222 HD
ENDBRANCH  14  18
ENDBRANCH  13  14
ENDBRANCH   1  13
TORSDOF 11
