REMARK  Name = 2164
REMARK  4 active torsions:
REMARK  status: ('A' for Active; 'I' for Inactive)
REMARK    1  A    between atoms: C_6  and  C_12
REMARK    2  A    between atoms: C_6  and  C_14
REMARK    3  A    between atoms: C_14  and  C_15
REMARK    4  A    between atoms: C_15  and  C_16
REMARK                            x       y       z     vdW  Elec       q    Type
REMARK                         _______ _______ _______ _____ _____    ______ ____
ROOT
ATOM      1  O   UNL     1       0.325  -1.352  -2.073  0.00  0.00    -0.274 OA
ATOM      2  O   UNL     1       0.086   1.387   1.734  0.00  0.00    -0.274 OA
ATOM      3  O   UNL     1       3.699  -1.355   1.038  0.00  0.00    -0.252 OA
ATOM      4  N   UNL     1       2.055  -1.278  -0.568  0.00  0.00    -0.239 N 
ATOM      5  N   UNL     1       1.935   0.090   1.334  0.00  0.00    -0.239 N 
ATOM      6  C   UNL     1       0.363   0.497  -0.505  0.00  0.00    +0.138 C 
ATOM      7  C   UNL     1       0.875  -0.802  -1.119  0.00  0.00    +0.237 C 
ATOM      8  C   UNL     1       0.744   0.693   0.959  0.00  0.00    +0.237 C 
ATOM      9  C   UNL     1       2.645  -0.869   0.622  0.00  0.00    +0.312 C 
ATOM     10  H   UNL     1       2.524  -1.981  -1.073  0.00  0.00    +0.159 HD
ATOM     11  H   UNL     1       2.318   0.370   2.197  0.00  0.00    +0.159 HD
ENDROOT
BRANCH   6  12
ATOM     12  C   UNL     1       1.004   1.652  -1.295  0.00  0.00    +0.017 C 
ATOM     13  C   UNL     1       0.579   2.992  -0.736  0.00  0.00    +0.001 C 
ENDBRANCH   6  12
BRANCH   6  14
ATOM     14  C   UNL     1      -1.164   0.568  -0.652  0.00  0.00    +0.017 C 
BRANCH  14  15
ATOM     15  C   UNL     1      -1.845  -0.625   0.024  0.00  0.00    +0.001 C 
BRANCH  15  16
ATOM     16  C   UNL     1      -3.383  -0.566  -0.032  0.00  0.00    +0.000 C 
ATOM     17  C   UNL     1      -3.876   0.732   0.613  0.00  0.00    +0.000 C 
ATOM     18  C   UNL     1      -4.039  -1.765   0.655  0.00  0.00    +0.000 C 
ENDBRANCH  15  16
ENDBRANCH  14  15
ENDBRANCH   6  14
TORSDOF 4
