REMARK  Name = 19
REMARK  4 active torsions:
REMARK  status: ('A' for Active; 'I' for Inactive)
REMARK    1  A    between atoms: C_1  and  C_12
REMARK    2  A    between atoms: C_2  and  O_7
REMARK    3  A    between atoms: C_3  and  O_9
REMARK    4  A    between atoms: C_12  and  O_13
REMARK                            x       y       z     vdW  Elec       q    Type
REMARK                         _______ _______ _______ _____ _____    ______ ____
ROOT
ATOM      1  C   UNL     1       0.598   0.251   0.038  0.00  0.00    +0.112 C 
ATOM      2  C   UNL     1      -0.401  -0.719  -0.045  0.00  0.00    +0.174 C 
ATOM      3  C   UNL     1      -1.743  -0.340  -0.038  0.00  0.00    +0.168 C 
ATOM      4  C   UNL     1       0.255   1.600   0.127  0.00  0.00    +0.010 C 
ATOM      5  C   UNL     1      -2.087   1.009   0.051  0.00  0.00    +0.040 C 
ATOM      6  C   UNL     1      -1.088   1.979   0.133  0.00  0.00    +0.004 C 
ENDROOT
BRANCH   2   7
ATOM      7  O   UNL     1      -0.072  -2.040  -0.133  0.00  0.00    -0.503 OA
ATOM      8  H   UNL     1       0.828  -2.299  -0.138  0.00  0.00    +0.292 HD
ENDBRANCH   2   7
BRANCH   3   9
ATOM      9  O   UNL     1      -2.729  -1.276  -0.118  0.00  0.00    -0.503 OA
ATOM     10  H   UNL     1      -2.509  -2.185  -0.178  0.00  0.00    +0.292 HD
ENDBRANCH   3   9
BRANCH   1  12
ATOM     11  O   UNL     1       2.465  -1.181   0.471  0.00  0.00    -0.245 OA
ATOM     12  C   UNL     1       2.006  -0.122   0.034  0.00  0.00    +0.341 C 
BRANCH  12  13
ATOM     13  O   UNL     1       2.795   0.839  -0.518  0.00  0.00    -0.477 OA
ATOM     14  H   UNL     1       2.413   1.631  -0.841  0.00  0.00    +0.295 HD
ENDBRANCH  12  13
ENDBRANCH   1  12
TORSDOF 4
