REMARK  Name = 449193
REMARK  7 active torsions:
REMARK  status: ('A' for Active; 'I' for Inactive)
REMARK    1  A    between atoms: C_1  and  O_19
REMARK    2  A    between atoms: C_2  and  O_24
REMARK    3  A    between atoms: C_4  and  C_9
REMARK    4  A    between atoms: N_8  and  C_14
REMARK    5  A    between atoms: O_19  and  C_20
REMARK    6  A    between atoms: C_20  and  C_21
REMARK    7  A    between atoms: O_24  and  C_27
REMARK                            x       y       z     vdW  Elec       q    Type
REMARK                         _______ _______ _______ _____ _____    ______ ____
ROOT
ATOM      1  C   UNL     1      -1.853   0.029  -0.502  0.00  0.00    +0.173 C 
ATOM      2  C   UNL     1      -2.582  -1.116  -0.182  0.00  0.00    +0.178 C 
ATOM      3  C   UNL     1      -0.486   0.085  -0.229  0.00  0.00    +0.045 C 
ATOM      4  C   UNL     1       0.151  -1.005   0.364  0.00  0.00    +0.057 C 
ATOM      5  C   UNL     1      -1.945  -2.206   0.411  0.00  0.00    +0.040 C 
ATOM      6  C   UNL     1      -0.578  -2.150   0.684  0.00  0.00    +0.008 C 
ENDROOT
BRANCH   4   9
ATOM      7  O   UNL     1       2.037  -1.648   1.566  0.00  0.00    -0.270 OA
ATOM      8  N   UNL     1       2.331  -0.099  -0.172  0.00  0.00    -0.279 N 
ATOM      9  C   UNL     1       1.576  -0.947   0.650  0.00  0.00    +0.250 C 
ATOM     10  H   UNL     1       1.824   0.395  -0.857  0.00  0.00    +0.155 HD
BRANCH   8  14
ATOM     11 CL   UNL     1       3.240   2.177   1.615  0.00  0.00    -0.079 Cl
ATOM     12 CL   UNL     1       4.008  -1.931  -1.913  0.00  0.00    -0.079 Cl
ATOM     13  N   UNL     1       6.466   0.610  -0.097  0.00  0.00    -0.240 NA
ATOM     14  C   UNL     1       3.727   0.141  -0.147  0.00  0.00    +0.075 C 
ATOM     15  C   UNL     1       4.230   1.159   0.641  0.00  0.00    +0.091 C 
ATOM     16  C   UNL     1       4.568  -0.647  -0.911  0.00  0.00    +0.091 C 
ATOM     17  C   UNL     1       5.602   1.353   0.631  0.00  0.00    +0.112 C 
ATOM     18  C   UNL     1       5.925  -0.373  -0.851  0.00  0.00    +0.112 C 
ENDBRANCH   8  14
ENDBRANCH   4   9
BRANCH   1  19
ATOM     19  O   UNL     1      -2.465   1.099  -1.081  0.00  0.00    -0.472 OA
BRANCH  19  20
ATOM     20  C   UNL     1      -2.418   2.335  -0.371  0.00  0.00    +0.205 C 
BRANCH  20  21
ATOM     21  C   UNL     1      -3.626   3.144  -0.698  0.00  0.00    +0.044 C 
ATOM     22  C   UNL     1      -4.675   3.341   0.352  0.00  0.00    +0.004 C 
ATOM     23  C   UNL     1      -3.797   4.486  -0.058  0.00  0.00    +0.004 C 
ENDBRANCH  20  21
ENDBRANCH  19  20
ENDBRANCH   1  19
BRANCH   2  24
ATOM     24  O   UNL     1      -3.917  -1.183  -0.445  0.00  0.00    -0.421 OA
BRANCH  24  27
ATOM     25  F   UNL     1      -5.957  -1.443   0.452  0.00  0.00    -0.155 F 
ATOM     26  F   UNL     1      -4.848  -3.222  -0.128  0.00  0.00    -0.155 F 
ATOM     27  C   UNL     1      -4.713  -1.988   0.416  0.00  0.00    +0.509 C 
ENDBRANCH  24  27
ENDBRANCH   2  24
TORSDOF 7
