REMARK  Name = 178518
REMARK  3 active torsions:
REMARK  status: ('A' for Active; 'I' for Inactive)
REMARK    1  A    between atoms: C_1  and  C_8
REMARK    2  A    between atoms: C_2  and  O_14
REMARK    3  A    between atoms: C_4  and  O_16
REMARK                            x       y       z     vdW  Elec       q    Type
REMARK                         _______ _______ _______ _____ _____    ______ ____
ROOT
ATOM      1  C   UNL     1      -0.441   0.315  -0.247  0.00  0.00    +0.038 C 
ATOM      2  C   UNL     1      -1.313  -0.726   0.074  0.00  0.00    +0.167 C 
ATOM      3  C   UNL     1      -0.946   1.570  -0.584  0.00  0.00    +0.003 C 
ATOM      4  C   UNL     1      -2.691  -0.510   0.058  0.00  0.00    +0.167 C 
ATOM      5  C   UNL     1      -2.324   1.785  -0.601  0.00  0.00    +0.003 C 
ATOM      6  C   UNL     1      -3.197   0.745  -0.280  0.00  0.00    +0.040 C 
ENDROOT
BRANCH   1   8
ATOM      7 CL   UNL     1       1.050   0.857   2.399  0.00  0.00    -0.082 Cl
ATOM      8  C   UNL     1       0.995   0.114  -0.235  0.00  0.00    +0.014 C 
ATOM      9  C   UNL     1       1.760   0.331   0.912  0.00  0.00    +0.058 C 
ATOM     10  C   UNL     1       1.611  -0.311  -1.413  0.00  0.00    +0.001 C 
ATOM     11  C   UNL     1       3.139   0.124   0.881  0.00  0.00    +0.011 C 
ATOM     12  C   UNL     1       2.991  -0.518  -1.443  0.00  0.00    +0.000 C 
ATOM     13  C   UNL     1       3.754  -0.300  -0.297  0.00  0.00    +0.001 C 
ENDBRANCH   1   8
BRANCH   2  14
ATOM     14  O   UNL     1      -0.833  -1.959   0.407  0.00  0.00    -0.503 OA
ATOM     15  H   UNL     1       0.091  -2.114   0.421  0.00  0.00    +0.292 HD
ENDBRANCH   2  14
BRANCH   4  16
ATOM     16  O   UNL     1      -3.555  -1.517   0.369  0.00  0.00    -0.503 OA
ATOM     17  H   UNL     1      -3.225  -2.364   0.597  0.00  0.00    +0.292 HD
ENDBRANCH   4  16
TORSDOF 3
