REMARK  Name = 4506
REMARK  2 active torsions:
REMARK  status: ('A' for Active; 'I' for Inactive)
REMARK    1  A    between atoms: C_6  and  C_14
REMARK    2  A    between atoms: C_10  and  N_22
REMARK                            x       y       z     vdW  Elec       q    Type
REMARK                         _______ _______ _______ _____ _____    ______ ____
ROOT
ATOM      1  O   UNL     1       1.403   4.386  -0.413  0.00  0.00    -0.273 OA
ATOM      2  N   UNL     1      -0.297   2.878  -0.693  0.00  0.00    -0.282 N 
ATOM      3  N   UNL     1       1.838   1.412   0.859  0.00  0.00    -0.261 NA
ATOM      4  C   UNL     1      -0.368   0.543   0.169  0.00  0.00    +0.032 C 
ATOM      5  C   UNL     1      -0.966   1.665  -0.428  0.00  0.00    +0.052 C 
ATOM      6  C   UNL     1       1.107   0.456   0.399  0.00  0.00    +0.078 C 
ATOM      7  C   UNL     1      -1.151  -0.586   0.460  0.00  0.00    +0.027 C 
ATOM      8  C   UNL     1      -2.311   1.595  -0.820  0.00  0.00    +0.016 C 
ATOM      9  C   UNL     1       1.209   2.662   1.227  0.00  0.00    +0.210 C 
ATOM     10  C   UNL     1      -2.500  -0.622   0.109  0.00  0.00    +0.143 C 
ATOM     11  C   UNL     1       0.809   3.374  -0.038  0.00  0.00    +0.251 C 
ATOM     12  C   UNL     1      -3.075   0.461  -0.546  0.00  0.00    +0.025 C 
ATOM     13  H   UNL     1      -0.660   3.430  -1.423  0.00  0.00    +0.155 HD
ENDROOT
BRANCH   6  14
ATOM     14  C   UNL     1       1.812  -0.810   0.044  0.00  0.00    +0.017 C 
ATOM     15  C   UNL     1       1.331  -1.595  -0.995  0.00  0.00    +0.001 C 
ATOM     16  C   UNL     1       2.942  -1.188   0.758  0.00  0.00    +0.001 C 
ATOM     17  C   UNL     1       1.990  -2.779  -1.326  0.00  0.00    +0.000 C 
ATOM     18  C   UNL     1       3.602  -2.371   0.427  0.00  0.00    +0.000 C 
ATOM     19  C   UNL     1       3.126  -3.167  -0.615  0.00  0.00    +0.000 C 
ENDBRANCH   6  14
BRANCH  10  22
ATOM     20  O   UNL     1      -4.483  -1.797   0.044  0.00  0.00    -0.126 OA
ATOM     21  O   UNL     1      -2.739  -2.742   0.985  0.00  0.00    -0.126 OA
ATOM     22  N   UNL     1      -3.278  -1.776   0.393  0.00  0.00    +0.058 N 
ENDBRANCH  10  22
TORSDOF 2
