REMARK  Name = 445614
REMARK  4 active torsions:
REMARK  status: ('A' for Active; 'I' for Inactive)
REMARK    1  A    between atoms: N_2  and  O_15
REMARK    2  A    between atoms: C_3  and  O_9
REMARK    3  A    between atoms: C_4  and  O_11
REMARK    4  A    between atoms: C_5  and  O_13
REMARK                            x       y       z     vdW  Elec       q    Type
REMARK                         _______ _______ _______ _____ _____    ______ ____
ROOT
ATOM      1  N   UNL     1       0.710  -1.198  -0.151  0.00  0.00    -0.252 NA
ATOM      2  N   UNL     1       2.299   0.497  -0.096  0.00  0.00    -0.252 N 
ATOM      3  C   UNL     1      -1.465   0.675  -0.421  0.00  0.00    +0.173 C 
ATOM      4  C   UNL     1      -1.710  -0.681   0.224  0.00  0.00    +0.164 C 
ATOM      5  C   UNL     1      -0.055   1.164  -0.129  0.00  0.00    +0.198 C 
ATOM      6  C   UNL     1      -0.664  -1.688  -0.229  0.00  0.00    +0.159 C 
ATOM      7  C   UNL     1       0.995   0.062  -0.134  0.00  0.00    +0.161 C 
ATOM      8  H   UNL     1       2.549   1.449  -0.093  0.00  0.00    +0.195 HD
ENDROOT
BRANCH   3   9
ATOM      9  O   UNL     1      -1.651   0.557  -1.829  0.00  0.00    -0.379 OA
ATOM     10  H   UNL     1      -2.551   0.245  -2.011  0.00  0.00    +0.211 HD
ENDBRANCH   3   9
BRANCH   4  11
ATOM     11  O   UNL     1      -1.677  -0.586   1.644  0.00  0.00    -0.380 OA
ATOM     12  H   UNL     1      -2.342   0.054   1.941  0.00  0.00    +0.211 HD
ENDBRANCH   4  11
BRANCH   5  13
ATOM     13  O   UNL     1       0.006   1.715   1.182  0.00  0.00    -0.375 OA
ATOM     14  H   UNL     1      -0.642   2.432   1.263  0.00  0.00    +0.211 HD
ENDBRANCH   5  13
BRANCH   2  15
ATOM     15  O   UNL     1       3.213  -0.517  -0.063  0.00  0.00    -0.288 OA
ATOM     16  H   UNL     1       4.108  -0.144  -0.037  0.00  0.00    +0.244 HD
ENDBRANCH   2  15
TORSDOF 4
