REMARK  Name = 7997
REMARK  3 active torsions:
REMARK  status: ('A' for Active; 'I' for Inactive)
REMARK    1  A    between atoms: O_1  and  C_3
REMARK    2  A    between atoms: O_1  and  C_5
REMARK    3  A    between atoms: C_5  and  C_6
REMARK                            x       y       z     vdW  Elec       q    Type
REMARK                         _______ _______ _______ _____ _____    ______ ____
ROOT
ATOM      1  O   UNL     1       0.330  -0.533   0.001  0.00  0.00    -0.448 OA
ENDROOT
BRANCH   1   3
ATOM      2  O   UNL     1       1.702   1.326   0.001  0.00  0.00    -0.250 OA
ATOM      3  C   UNL     1       1.536   0.114  -0.001  0.00  0.00    +0.318 C 
ATOM      4  C   UNL     1       2.651  -0.887  -0.003  0.00  0.00    +0.121 C 
ENDBRANCH   1   3
BRANCH   1   5
ATOM      5  C   UNL     1      -0.820   0.302   0.004  0.00  0.00    +0.208 C 
BRANCH   5   6
ATOM      6  C   UNL     1      -2.063  -0.574   0.005  0.00  0.00    +0.047 C 
ATOM      7  C   UNL     1      -3.337   0.252  -0.007  0.00  0.00    +0.004 C 
ENDBRANCH   5   6
ENDBRANCH   1   5
TORSDOF 3
