REMARK  Name = 104994
REMARK  0 active torsions:
REMARK  status: ('A' for Active; 'I' for Inactive)
REMARK                            x       y       z     vdW  Elec       q    Type
REMARK                         _______ _______ _______ _____ _____    ______ ____
ROOT
ATOM      1  N   UNL     1       1.332  -0.684   0.000  0.00  0.00    -0.251 N 
ATOM      2  N   UNL     1      -1.573   1.541   0.001  0.00  0.00    -0.270 NA
ATOM      3  N   UNL     1       1.621   1.533   0.000  0.00  0.00    -0.230 NA
ATOM      4  N   UNL     1      -0.719  -1.907   0.000  0.00  0.00    -0.236 NA
ATOM      5  N   UNL     1      -2.706  -0.391   0.000  0.00  0.00    -0.307 N 
ATOM      6  C   UNL     1      -0.654   0.543   0.000  0.00  0.00    +0.165 C 
ATOM      7  C   UNL     1       0.749   0.557   0.000  0.00  0.00    +0.135 C 
ATOM      8  C   UNL     1      -1.359  -0.639   0.000  0.00  0.00    +0.125 C 
ATOM      9  C   UNL     1       0.590  -1.873   0.000  0.00  0.00    +0.226 C 
ATOM     10  C   UNL     1       2.684  -0.489   0.000  0.00  0.00    +0.089 C 
ATOM     11  C   UNL     1       2.836   0.883  -0.001  0.00  0.00    +0.116 C 
ATOM     12  C   UNL     1      -2.802   0.926   0.000  0.00  0.00    +0.163 C 
ATOM     13  H   UNL     1      -1.395   2.509   0.001  0.00  0.00    +0.126 HD
ATOM     14  H   UNL     1      -3.439  -1.048  -0.001  0.00  0.00    +0.149 HD
ENDROOT
TORSDOF 0
