REMARK  Name = 657081
REMARK  2 active torsions:
REMARK  status: ('A' for Active; 'I' for Inactive)
REMARK    1  A    between atoms: C_5  and  C_13
REMARK    2  A    between atoms: C_6  and  O_16
REMARK                            x       y       z     vdW  Elec       q    Type
REMARK                         _______ _______ _______ _____ _____    ______ ____
ROOT
ATOM      1  F   UNL     1      -0.987  -2.378  -0.043  0.00  0.00    -0.201 F 
ATOM      2  F   UNL     1      -1.246   2.364   0.042  0.00  0.00    -0.201 F 
ATOM      3  F   UNL     1       1.723  -2.224  -0.216  0.00  0.00    -0.198 F 
ATOM      4  F   UNL     1       1.464   2.512  -0.131  0.00  0.00    -0.198 F 
ATOM      5  C   UNL     1      -1.153  -0.009   0.002  0.00  0.00    +0.113 A 
ATOM      6  C   UNL     1       1.626   0.146  -0.175  0.00  0.00    +0.198 A 
ATOM      7  C   UNL     1      -0.393  -1.176  -0.064  0.00  0.00    +0.177 A 
ATOM      8  C   UNL     1      -0.524   1.236  -0.021  0.00  0.00    +0.177 A 
ATOM      9  C   UNL     1       0.997  -1.099  -0.152  0.00  0.00    +0.204 A 
ATOM     10  C   UNL     1       0.866   1.313  -0.109  0.00  0.00    +0.204 A 
ENDROOT
BRANCH   5  13
ATOM     11  O   UNL     1      -3.307   0.934   0.138  0.00  0.00    -0.270 OA
ATOM     12  N   UNL     1      -3.181  -1.356   0.114  0.00  0.00    -0.325 N 
ATOM     13  C   UNL     1      -2.603  -0.090   0.095  0.00  0.00    +0.247 C 
ATOM     14  H   UNL     1      -4.159  -1.449   0.176  0.00  0.00    +0.145 HD
ATOM     15  H   UNL     1      -2.612  -2.158   0.066  0.00  0.00    +0.145 HD
ENDBRANCH   5  13
BRANCH   6  16
ATOM     16  O   UNL     1       2.983   0.221  -0.263  0.00  0.00    -0.467 OA
ATOM     17  C   UNL     1       3.736  -0.393   0.782  0.00  0.00    +0.253 C 
ENDBRANCH   6  16
TORSDOF 2
