REMARK  Name = 20054882
REMARK  6 active torsions:
REMARK  status: ('A' for Active; 'I' for Inactive)
REMARK    1  A    between atoms: N_2  and  C_31
REMARK    2  A    between atoms: C_6  and  O_27
REMARK    3  A    between atoms: C_9  and  C_22
REMARK    4  A    between atoms: C_19  and  O_29
REMARK    5  A    between atoms: C_22  and  O_25
REMARK    6  A    between atoms: C_31  and  C_32
REMARK                            x       y       z     vdW  Elec       q    Type
REMARK                         _______ _______ _______ _____ _____    ______ ____
ROOT
ATOM      1  O   UNL     1      -2.484   1.106   1.016  0.00  0.00    -0.474 OA
ATOM      2  N   UNL     1       2.696   0.246   0.200  0.00  0.00    +0.388 N 
ATOM      3  C   UNL     1      -0.150   0.461   0.638  0.00  0.00    +0.057 C 
ATOM      4  C   UNL     1       0.428  -0.321  -0.577  0.00  0.00    -0.010 C 
ATOM      5  C   UNL     1      -1.557  -0.025   1.043  0.00  0.00    +0.194 C 
ATOM      6  C   UNL     1      -1.956  -1.189   0.084  0.00  0.00    +0.132 C 
ATOM      7  C   UNL     1       1.761   0.410  -0.938  0.00  0.00    -0.053 C 
ATOM      8  C   UNL     1       0.526  -1.822  -0.178  0.00  0.00    +0.003 C 
ATOM      9  C   UNL     1      -0.887  -2.327   0.289  0.00  0.00    +0.053 C 
ATOM     10  C   UNL     1       0.828   0.508   1.827  0.00  0.00    -0.015 C 
ATOM     11  C   UNL     1      -0.482   1.822   0.155  0.00  0.00    +0.013 C 
ATOM     12  C   UNL     1      -0.608  -0.331  -1.715  0.00  0.00    +0.001 C 
ATOM     13  C   UNL     1       1.517   1.927  -1.334  0.00  0.00    +0.005 C 
ATOM     14  C   UNL     1       2.249   0.924   1.421  0.00  0.00    -0.077 C 
ATOM     15  C   UNL     1      -1.839  -0.740  -1.360  0.00  0.00    +0.031 C 
ATOM     16  C   UNL     1       0.296   2.571  -0.711  0.00  0.00    -0.025 C 
ATOM     17  C   UNL     1      -1.784   2.149   0.463  0.00  0.00    +0.168 C 
ATOM     18  C   UNL     1      -0.204   3.815  -1.094  0.00  0.00    -0.001 C 
ATOM     19  C   UNL     1      -2.304   3.368   0.087  0.00  0.00    +0.167 C 
ATOM     20  C   UNL     1      -1.487   4.221  -0.671  0.00  0.00    +0.039 C 
ATOM     21  H   UNL     1       2.686  -0.754   0.399  0.00  0.00    -0.080 HD
ENDROOT
BRANCH   9  22
ATOM     22  C   UNL     1      -1.253  -3.645  -0.401  0.00  0.00    +0.091 C 
ATOM     23  C   UNL     1      -1.355  -3.444  -1.911  0.00  0.00    +0.029 C 
ATOM     24  C   UNL     1      -0.232  -4.726  -0.059  0.00  0.00    +0.029 C 
BRANCH  22  25
ATOM     25  O   UNL     1      -2.529  -4.045   0.095  0.00  0.00    -0.387 OA
ATOM     26  H   UNL     1      -3.186  -3.364  -0.117  0.00  0.00    +0.210 HD
ENDBRANCH  22  25
ENDBRANCH   9  22
BRANCH   6  27
ATOM     27  O   UNL     1      -3.259  -1.653   0.384  0.00  0.00    -0.352 OA
ATOM     28  C   UNL     1      -3.514  -1.642   1.784  0.00  0.00    +0.174 C 
ENDBRANCH   6  27
BRANCH  19  29
ATOM     29  O   UNL     1      -3.577   3.721   0.391  0.00  0.00    -0.503 OA
ATOM     30  H   UNL     1      -4.115   3.145   0.898  0.00  0.00    +0.292 HD
ENDBRANCH  19  29
BRANCH   2  31
ATOM     31  C   UNL     1       4.074   0.595  -0.131  0.00  0.00    -0.077 C 
BRANCH  31  32
ATOM     32  C   UNL     1       5.045  -0.165   0.714  0.00  0.00    -0.021 C 
ATOM     33  C   UNL     1       5.569  -1.483   0.224  0.00  0.00    -0.002 C 
ATOM     34  C   UNL     1       6.471  -0.285   0.265  0.00  0.00    -0.002 C 
ENDBRANCH  31  32
ENDBRANCH   2  31
TORSDOF 6
