REMARK  Name = 36921
REMARK  7 active torsions:
REMARK  status: ('A' for Active; 'I' for Inactive)
REMARK    1  A    between atoms: N_2  and  CA_11
REMARK    2  A    between atoms: C_3  and  C_19
REMARK    3  A    between atoms: CA_10  and  C_16
REMARK    4  A    between atoms: C_16  and  O_17
REMARK    5  A    between atoms: C_19  and  C_21
REMARK    6  A    between atoms: C_19  and  C_26
REMARK    7  A    between atoms: C_26  and  O_27
REMARK                            x       y       z     vdW  Elec       q    Type
REMARK                         _______ _______ _______ _____ _____    ______ ____
ROOT
ATOM      1  O   UNL     1      -1.723   1.565   1.537  0.00  0.00    -0.274 OA
ATOM      2  N   UNL     1      -0.573   1.385  -0.470  0.00  0.00    -0.296 N 
ATOM      3  C   UNL     1      -1.693   1.242   0.351  0.00  0.00    +0.237 C 
ATOM      4  H   UNL     1      -0.637   1.100  -1.410  0.00  0.00    +0.150 HD
ENDROOT
BRANCH   2  11
ATOM      5  S   UNL     1       1.063  -0.698   1.050  0.00  0.00    -0.118 S 
ATOM      6  O   UNL     1       2.033   2.127  -2.160  0.00  0.00    -0.273 OA
ATOM      7  N   UNL     1       2.588   1.092  -0.114  0.00  0.00    -0.260 N 
ATOM      8  C   UNL     1       1.560   1.062   0.928  0.00  0.00    +0.151 C 
ATOM      9  C   UNL     1       2.322  -1.286  -0.188  0.00  0.00    +0.068 C 
ATOM     10  CA  UNL     1       3.316  -0.122  -0.400  0.00  0.00    +0.184 C 
ATOM     11  CA  UNL     1       0.699   1.944   0.009  0.00  0.00    +0.178 C 
ATOM     12  C   UNL     1       1.856   1.825  -1.001  0.00  0.00    +0.247 C 
ATOM     13  C   UNL     1       2.974  -2.572   0.331  0.00  0.00    +0.013 C 
ATOM     14  C   UNL     1       1.570  -1.601  -1.492  0.00  0.00    +0.013 C 
BRANCH  10  16
ATOM     15  OXT UNL     1       4.443   0.410   1.671  0.00  0.00    -0.248 OA
ATOM     16  C   UNL     1       4.473  -0.080   0.552  0.00  0.00    +0.333 C 
BRANCH  16  17
ATOM     17  O   UNL     1       5.567  -0.661   0.002  0.00  0.00    -0.479 OA
ATOM     18  H   UNL     1       5.523  -1.018  -0.862  0.00  0.00    +0.295 HD
ENDBRANCH  16  17
ENDBRANCH  10  16
ENDBRANCH   2  11
BRANCH   3  19
ATOM     19  C   UNL     1      -2.893   0.627  -0.367  0.00  0.00    +0.197 C 
BRANCH  19  21
ATOM     20  S   UNL     1      -2.660  -3.337  -0.889  0.00  0.00    -0.086 S 
ATOM     21  C   UNL     1      -2.825  -0.879  -0.267  0.00  0.00    +0.004 C 
ATOM     22  C   UNL     1      -2.870  -1.567   0.961  0.00  0.00    +0.004 C 
ATOM     23  C   UNL     1      -2.713  -1.690  -1.355  0.00  0.00    +0.032 C 
ATOM     24  C   UNL     1      -2.788  -2.929   0.769  0.00  0.00    +0.035 C 
ENDBRANCH  19  21
BRANCH  19  26
ATOM     25  O   UNL     1      -5.157   0.489   0.552  0.00  0.00    -0.249 OA
ATOM     26  C   UNL     1      -4.237   1.158   0.102  0.00  0.00    +0.326 C 
BRANCH  26  27
ATOM     27  O   UNL     1      -4.330   2.497  -0.110  0.00  0.00    -0.480 OA
ATOM     28  H   UNL     1      -3.599   2.968  -0.458  0.00  0.00    +0.295 HD
ENDBRANCH  26  27
ENDBRANCH  19  26
ENDBRANCH   3  19
TORSDOF 7
