REMARK  Name = 60464
REMARK  5 active torsions:
REMARK  status: ('A' for Active; 'I' for Inactive)
REMARK    1  A    between atoms: N_4  and  C_27
REMARK    2  A    between atoms: C_6  and  N_14
REMARK    3  A    between atoms: C_10  and  N_24
REMARK    4  A    between atoms: C_11  and  C_31
REMARK    5  A    between atoms: C_31  and  O_32
REMARK                            x       y       z     vdW  Elec       q    Type
REMARK                         _______ _______ _______ _____ _____    ______ ____
ROOT
ATOM      1  F   UNL     1       0.594  -2.139   0.765  0.00  0.00    -0.201 F 
ATOM      2  F   UNL     1       2.139   2.257   0.048  0.00  0.00    -0.201 F 
ATOM      3  O   UNL     1      -2.913   2.586  -0.411  0.00  0.00    -0.286 OA
ATOM      4  N   UNL     1      -2.130  -1.332   0.394  0.00  0.00    -0.285 N 
ATOM      5  C   UNL     1      -1.025  -0.438   0.311  0.00  0.00    +0.085 A 
ATOM      6  C   UNL     1       1.362   0.050   0.407  0.00  0.00    +0.106 A 
ATOM      7  C   UNL     1      -3.411  -0.852   0.202  0.00  0.00    +0.075 C 
ATOM      8  C   UNL     1      -1.253   0.927   0.033  0.00  0.00    +0.070 A 
ATOM      9  C   UNL     1       0.303  -0.857   0.496  0.00  0.00    +0.169 A 
ATOM     10  C   UNL     1      -0.191   1.835  -0.056  0.00  0.00    +0.075 A 
ATOM     11  C   UNL     1      -3.737   0.418  -0.066  0.00  0.00    +0.129 C 
ATOM     12  C   UNL     1       1.115   1.392   0.131  0.00  0.00    +0.168 A 
ATOM     13  C   UNL     1      -2.642   1.416  -0.169  0.00  0.00    +0.206 C 
ENDROOT
BRANCH   6  14
ATOM     14  N   UNL     1       2.668  -0.389   0.592  0.00  0.00    -0.308 N 
ATOM     15  N   UNL     1       5.221   0.053  -0.567  0.00  0.00    +0.389 N 
ATOM     16  C   UNL     1       4.204  -0.736  -1.278  0.00  0.00    -0.042 C 
ATOM     17  C   UNL     1       4.612   1.068   0.307  0.00  0.00    -0.042 C 
ATOM     18  C   UNL     1       3.242  -1.416  -0.285  0.00  0.00    +0.070 C 
ATOM     19  C   UNL     1       3.667   0.399   1.316  0.00  0.00    +0.070 C 
ATOM     20  C   UNL     1       4.901  -1.778  -2.149  0.00  0.00    -0.022 C 
ATOM     21  C   UNL     1       5.717   1.834   1.030  0.00  0.00    -0.022 C 
ATOM     22  H   UNL     1       5.815   0.521  -1.252  0.00  0.00    -0.084 HD
ATOM     23  H   UNL     1       5.765  -0.582   0.016  0.00  0.00    -0.084 HD
ENDBRANCH   6  14
BRANCH  10  24
ATOM     24  N   UNL     1      -0.374   3.209  -0.334  0.00  0.00    -0.355 N 
ATOM     25  H   UNL     1      -1.281   3.566  -0.473  0.00  0.00    +0.142 HD
ATOM     26  H   UNL     1       0.405   3.808  -0.387  0.00  0.00    +0.142 HD
ENDBRANCH  10  24
BRANCH   4  27
ATOM     27  C   UNL     1      -1.967  -2.774   0.683  0.00  0.00    +0.077 C 
ATOM     28  C   UNL     1      -1.059  -3.621  -0.145  0.00  0.00    +0.022 C 
ATOM     29  C   UNL     1      -2.546  -3.806  -0.227  0.00  0.00    +0.022 C 
ENDBRANCH   4  27
BRANCH  11  31
ATOM     30  O   UNL     1      -6.071   0.165   0.310  0.00  0.00    -0.245 OA
ATOM     31  C   UNL     1      -5.153   0.747  -0.241  0.00  0.00    +0.342 C 
BRANCH  31  32
ATOM     32  O   UNL     1      -5.276   1.783  -1.097  0.00  0.00    -0.477 OA
ATOM     33  H   UNL     1      -4.511   2.171  -1.475  0.00  0.00    +0.295 HD
ENDBRANCH  31  32
ENDBRANCH  11  31
TORSDOF 5
