REMARK  Name = 1045
REMARK  5 active torsions:
REMARK  status: ('A' for Active; 'I' for Inactive)
REMARK    1  A    between atoms: C_1  and  C_2
REMARK    2  A    between atoms: C_1  and  C_8
REMARK    3  A    between atoms: C_2  and  C_3
REMARK    4  A    between atoms: C_3  and  N_4
REMARK    5  A    between atoms: C_8  and  N_9
REMARK                            x       y       z     vdW  Elec       q    Type
REMARK                         _______ _______ _______ _____ _____    ______ ____
ROOT
ATOM      1  C   UNL     1       0.646   0.372  -0.009  0.00  0.00    -0.026 C 
ENDROOT
BRANCH   1   2
ATOM      2  C   UNL     1      -0.671  -0.410  -0.012  0.00  0.00    -0.026 C 
BRANCH   2   3
ATOM      3  C   UNL     1      -1.872   0.536   0.002  0.00  0.00    -0.086 C 
BRANCH   3   4
ATOM      4  N   UNL     1      -3.116  -0.224   0.008  0.00  0.00    +0.380 N 
ATOM      5  H   UNL     1      -3.908   0.420   0.017  0.00  0.00    -0.089 HD
ATOM      6  H   UNL     1      -3.150  -0.816   0.838  0.00  0.00    -0.089 HD
ATOM      7  H   UNL     1      -3.162  -0.807  -0.828  0.00  0.00    -0.089 HD
ENDBRANCH   3   4
ENDBRANCH   2   3
ENDBRANCH   1   2
BRANCH   1   8
ATOM      8  C   UNL     1       1.888  -0.522   0.005  0.00  0.00    -0.086 C 
BRANCH   8   9
ATOM      9  N   UNL     1       3.126   0.248   0.005  0.00  0.00    +0.380 N 
ATOM     10  H   UNL     1       3.922  -0.389   0.015  0.00  0.00    -0.089 HD
ATOM     11  H   UNL     1       3.156   0.843   0.834  0.00  0.00    -0.089 HD
ATOM     12  H   UNL     1       3.165   0.829  -0.832  0.00  0.00    -0.089 HD
ENDBRANCH   8   9
ENDBRANCH   1   8
TORSDOF 5
