REMARK  Name = 447259
REMARK  1 active torsions:
REMARK  status: ('A' for Active; 'I' for Inactive)
REMARK    1  A    between atoms: C_1  and  N_8
REMARK                            x       y       z     vdW  Elec       q    Type
REMARK                         _______ _______ _______ _____ _____    ______ ____
ROOT
ATOM      1  C   UNL     1      -0.749  -0.008  -0.191  0.00  0.00    -0.054 C 
ATOM      2  C   UNL     1      -0.035  -1.238   0.374  0.00  0.00    -0.016 C 
ATOM      3  C   UNL     1      -0.037   1.278   0.252  0.00  0.00    +0.005 C 
ATOM      4  C   UNL     1       1.422  -1.292  -0.101  0.00  0.00    +0.020 C 
ATOM      5  C   UNL     1       2.126   0.042  -0.052  0.00  0.00    -0.048 C 
ATOM      6  C   UNL     1       1.457   1.194   0.122  0.00  0.00    -0.037 C 
ATOM      7  C   UNL     1       3.617   0.007  -0.211  0.00  0.00    +0.026 C 
ENDROOT
BRANCH   1   8
ATOM      8  N   UNL     1      -2.142   0.019   0.251  0.00  0.00    +0.386 N 
ATOM      9  C   UNL     1      -2.834  -1.202  -0.164  0.00  0.00    -0.101 C 
ATOM     10  C   UNL     1      -2.825   1.198  -0.280  0.00  0.00    -0.101 C 
ATOM     11  H   UNL     1      -2.156   0.068   1.269  0.00  0.00    -0.080 HD
ENDBRANCH   1   8
TORSDOF 1
