REMARK  Name = 445025
REMARK  10 active torsions:
REMARK  status: ('A' for Active; 'I' for Inactive)
REMARK    1  A    between atoms: C_1  and  N_2
REMARK    2  A    between atoms: C_1  and  C_6
REMARK    3  A    between atoms: C_1  and  C_12
REMARK    4  A    between atoms: C_6  and  N_8
REMARK    5  A    between atoms: C_12  and  C_13
REMARK    6  A    between atoms: C_13  and  C_14
REMARK    7  A    between atoms: C_14  and  C_15
REMARK    8  A    between atoms: C_15  and  C_16
REMARK    9  A    between atoms: C_16  and  C_18
REMARK   10  A    between atoms: C_18  and  O_19
REMARK                            x       y       z     vdW  Elec       q    Type
REMARK                         _______ _______ _______ _____ _____    ______ ____
ROOT
ATOM      1  C   UNL     1      -2.557   0.009   0.297  0.00  0.00    -0.086 C 
ENDROOT
BRANCH   1   2
ATOM      2  N   UNL     1      -2.426   0.207   1.744  0.00  0.00    +0.380 N 
ATOM      3  H   UNL     1      -1.441   0.319   1.984  0.00  0.00    -0.089 HD
ATOM      4  H   UNL     1      -2.804  -0.604   2.234  0.00  0.00    -0.089 HD
ATOM      5  H   UNL     1      -2.941   1.042   2.021  0.00  0.00    -0.089 HD
ENDBRANCH   1   2
BRANCH   1   6
ATOM      6  C   UNL     1      -4.043  -0.167  -0.111  0.00  0.00    -0.086 C 
ATOM      7  C   UNL     1      -4.732  -1.321   0.626  0.00  0.00    -0.026 C 
BRANCH   6   8
ATOM      8  N   UNL     1      -4.143  -0.419  -1.554  0.00  0.00    +0.380 N 
ATOM      9  H   UNL     1      -3.690   0.339  -2.064  0.00  0.00    -0.089 HD
ATOM     10  H   UNL     1      -5.126  -0.470  -1.822  0.00  0.00    -0.089 HD
ATOM     11  H   UNL     1      -3.684  -1.302  -1.778  0.00  0.00    -0.089 HD
ENDBRANCH   6   8
ENDBRANCH   1   6
BRANCH   1  12
ATOM     12  C   UNL     1      -1.822   1.144  -0.457  0.00  0.00    -0.024 C 
BRANCH  12  13
ATOM     13  C   UNL     1      -0.342   1.391  -0.131  0.00  0.00    -0.002 C 
BRANCH  13  14
ATOM     14  C   UNL     1       0.573   0.183  -0.340  0.00  0.00    +0.000 C 
BRANCH  14  15
ATOM     15  C   UNL     1       2.041   0.555  -0.102  0.00  0.00    +0.012 C 
BRANCH  15  16
ATOM     16  C   UNL     1       2.980  -0.640  -0.269  0.00  0.00    +0.109 C 
BRANCH  16  18
ATOM     17  O   UNL     1       4.853   0.781   0.379  0.00  0.00    -0.250 OA
ATOM     18  C   UNL     1       4.422  -0.307   0.030  0.00  0.00    +0.314 C 
BRANCH  18  19
ATOM     19  O   UNL     1       5.196  -1.414  -0.112  0.00  0.00    -0.480 OA
ATOM     20  H   UNL     1       4.810  -2.224  -0.383  0.00  0.00    +0.295 HD
ENDBRANCH  18  19
ENDBRANCH  16  18
ENDBRANCH  15  16
ENDBRANCH  14  15
ENDBRANCH  13  14
ENDBRANCH  12  13
ENDBRANCH   1  12
TORSDOF 10
