REMARK  Name = 92196
REMARK  1 active torsions:
REMARK  status: ('A' for Active; 'I' for Inactive)
REMARK    1  A    between atoms: C_4  and  C_10
REMARK                            x       y       z     vdW  Elec       q    Type
REMARK                         _______ _______ _______ _____ _____    ______ ____
ROOT
ATOM      1  O   UNL     1       1.321  -0.933   0.630  0.00  0.00    -0.447 OA
ATOM      2  N   UNL     1       2.661   0.451  -0.596  0.00  0.00    -0.223 NA
ATOM      3  N   UNL     1       3.458  -1.641   0.247  0.00  0.00    -0.313 N 
ATOM      4  C   UNL     1       0.594   0.293   0.549  0.00  0.00    +0.213 C 
ATOM      5  C   UNL     1       1.317   1.054  -0.555  0.00  0.00    +0.152 C 
ATOM      6  C   UNL     1       1.428   2.544  -0.279  0.00  0.00    +0.031 C 
ATOM      7  C   UNL     1       2.527  -0.666   0.050  0.00  0.00    +0.277 C 
ATOM      8  H   UNL     1       3.225  -2.447   0.761  0.00  0.00    +0.147 HD
ATOM      9  H   UNL     1       4.364  -1.539  -0.126  0.00  0.00    +0.147 HD
ENDROOT
BRANCH   4  10
ATOM     10  C   UNL     1      -0.865   0.046   0.260  0.00  0.00    +0.019 C 
ATOM     11  C   UNL     1      -1.827   0.976   0.661  0.00  0.00    -0.001 C 
ATOM     12  C   UNL     1      -1.260  -1.115  -0.409  0.00  0.00    -0.001 C 
ATOM     13  C   UNL     1      -3.177   0.747   0.394  0.00  0.00    -0.000 C 
ATOM     14  C   UNL     1      -2.610  -1.344  -0.676  0.00  0.00    -0.000 C 
ATOM     15  C   UNL     1      -3.568  -0.413  -0.275  0.00  0.00    -0.000 C 
ENDBRANCH   4  10
TORSDOF 1
