REMARK  Name = 3261
REMARK  1 active torsions:
REMARK  status: ('A' for Active; 'I' for Inactive)
REMARK    1  A    between atoms: C_8  and  C_16
REMARK                            x       y       z     vdW  Elec       q    Type
REMARK                         _______ _______ _______ _____ _____    ______ ____
ROOT
ATOM      1 CL   UNL     1      -0.987   4.465   0.674  0.00  0.00    -0.082 Cl
ATOM      2  N   UNL     1       2.339  -0.347  -0.311  0.00  0.00    -0.233 N 
ATOM      3  N   UNL     1      -0.004  -1.754   1.048  0.00  0.00    -0.262 NA
ATOM      4  N   UNL     1       3.251  -2.333  -0.029  0.00  0.00    -0.133 NA
ATOM      5  N   UNL     1       3.965  -1.666  -0.995  0.00  0.00    -0.128 NA
ATOM      6  C   UNL     1       1.488   0.767  -0.140  0.00  0.00    +0.060 C 
ATOM      7  C   UNL     1       0.185   0.634   0.377  0.00  0.00    +0.032 C 
ATOM      8  C   UNL     1      -0.517  -0.683   0.545  0.00  0.00    +0.078 C 
ATOM      9  C   UNL     1       2.299  -1.529   0.394  0.00  0.00    +0.164 C 
ATOM     10  C   UNL     1       1.367  -1.756   1.520  0.00  0.00    +0.189 C 
ATOM     11  C   UNL     1       1.982   2.042  -0.463  0.00  0.00    +0.016 C 
ATOM     12  C   UNL     1      -0.564   1.794   0.643  0.00  0.00    +0.014 C 
ATOM     13  C   UNL     1       3.428  -0.475  -1.133  0.00  0.00    +0.196 C 
ATOM     14  C   UNL     1       1.214   3.180  -0.215  0.00  0.00    +0.013 C 
ATOM     15  C   UNL     1      -0.050   3.058   0.352  0.00  0.00    +0.058 C 
ENDROOT
BRANCH   8  16
ATOM     16  C   UNL     1      -1.927  -0.795   0.066  0.00  0.00    +0.017 C 
ATOM     17  C   UNL     1      -2.348  -0.023  -1.008  0.00  0.00    +0.001 C 
ATOM     18  C   UNL     1      -2.797  -1.670   0.701  0.00  0.00    +0.001 C 
ATOM     19  C   UNL     1      -3.664  -0.128  -1.456  0.00  0.00    +0.000 C 
ATOM     20  C   UNL     1      -4.114  -1.775   0.254  0.00  0.00    +0.000 C 
ATOM     21  C   UNL     1      -4.548  -1.004  -0.825  0.00  0.00    +0.000 C 
ENDBRANCH   8  16
TORSDOF 1
