REMARK  Name = 26175
REMARK  4 active torsions:
REMARK  status: ('A' for Active; 'I' for Inactive)
REMARK    1  A    between atoms: C_3  and  C_12
REMARK    2  A    between atoms: C_8  and  O_10
REMARK    3  A    between atoms: C_12  and  C_13
REMARK    4  A    between atoms: C_13  and  N_15
REMARK                            x       y       z     vdW  Elec       q    Type
REMARK                         _______ _______ _______ _____ _____    ______ ____
ROOT
ATOM      1  O   UNL     1       2.007   2.270  -0.370  0.00  0.00    -0.435 OA
ATOM      2  O   UNL     1       3.045   0.104  -0.181  0.00  0.00    -0.431 OA
ATOM      3  C   UNL     1      -0.985   0.358   0.555  0.00  0.00    -0.018 C 
ATOM      4  C   UNL     1      -0.230   1.481   0.207  0.00  0.00    +0.036 C 
ATOM      5  C   UNL     1       1.118   1.300  -0.022  0.00  0.00    +0.179 C 
ATOM      6  C   UNL     1      -0.379  -0.906   0.665  0.00  0.00    +0.036 C 
ATOM      7  C   UNL     1       1.712   0.063   0.086  0.00  0.00    +0.210 C 
ATOM      8  C   UNL     1       0.989  -1.062   0.428  0.00  0.00    +0.175 C 
ATOM      9  C   UNL     1       3.225   1.506  -0.469  0.00  0.00    +0.429 C 
ENDROOT
BRANCH   8  10
ATOM     10  O   UNL     1       1.578  -2.279   0.532  0.00  0.00    -0.468 OA
ATOM     11  C   UNL     1       1.624  -3.087  -0.645  0.00  0.00    +0.253 C 
ENDBRANCH   8  10
BRANCH   3  12
ATOM     12  C   UNL     1      -2.448   0.500   0.813  0.00  0.00    +0.005 C 
BRANCH  12  13
ATOM     13  C   UNL     1      -3.334   0.315  -0.442  0.00  0.00    -0.061 C 
ATOM     14  C   UNL     1      -3.177  -1.072  -1.063  0.00  0.00    -0.024 C 
BRANCH  13  15
ATOM     15  N   UNL     1      -4.745   0.509  -0.095  0.00  0.00    +0.382 N 
ATOM     16  H   UNL     1      -4.869   1.431   0.322  0.00  0.00    -0.089 HD
ATOM     17  H   UNL     1      -5.033  -0.207   0.572  0.00  0.00    -0.089 HD
ATOM     18  H   UNL     1      -5.315   0.437  -0.938  0.00  0.00    -0.089 HD
ENDBRANCH  13  15
ENDBRANCH  12  13
ENDBRANCH   3  12
TORSDOF 4
