REMARK  Name = 4915
REMARK  5 active torsions:
REMARK  status: ('A' for Active; 'I' for Inactive)
REMARK    1  A    between atoms: C_1  and  C_14
REMARK    2  A    between atoms: C_2  and  C_9
REMARK    3  A    between atoms: N_8  and  C_11
REMARK    4  A    between atoms: C_14  and  N_15
REMARK    5  A    between atoms: N_15  and  N_17
REMARK                            x       y       z     vdW  Elec       q    Type
REMARK                         _______ _______ _______ _____ _____    ______ ____
ROOT
ATOM      1  C   UNL     1       1.925   0.458   0.471  0.00  0.00    -0.005 C 
ATOM      2  C   UNL     1      -0.806   0.586  -0.003  0.00  0.00    +0.053 C 
ATOM      3  C   UNL     1       1.411   1.428  -0.390  0.00  0.00    -0.003 C 
ATOM      4  C   UNL     1       1.066  -0.448   1.094  0.00  0.00    -0.003 C 
ATOM      5  C   UNL     1       0.038   1.492  -0.628  0.00  0.00    +0.004 C 
ATOM      6  C   UNL     1      -0.307  -0.383   0.856  0.00  0.00    +0.004 C 
ENDROOT
BRANCH   2   9
ATOM      7  O   UNL     1      -2.804   1.714  -0.546  0.00  0.00    -0.270 OA
ATOM      8  N   UNL     1      -2.962  -0.544  -0.111  0.00  0.00    -0.302 N 
ATOM      9  C   UNL     1      -2.252   0.654  -0.253  0.00  0.00    +0.246 C 
ATOM     10  H   UNL     1      -2.465  -1.361   0.125  0.00  0.00    +0.150 HD
BRANCH   8  11
ATOM     11  C   UNL     1      -4.409  -0.632  -0.298  0.00  0.00    +0.072 C 
ATOM     12  C   UNL     1      -5.130  -0.361   1.019  0.00  0.00    +0.021 C 
ATOM     13  C   UNL     1      -4.767  -2.010  -0.845  0.00  0.00    +0.021 C 
ENDBRANCH   8  11
ENDBRANCH   2   9
BRANCH   1  14
ATOM     14  C   UNL     1       3.393   0.389   0.725  0.00  0.00    +0.110 C 
BRANCH  14  15
ATOM     15  N   UNL     1       4.043  -0.485  -0.227  0.00  0.00    -0.241 NA
ATOM     16  H   UNL     1       3.669  -1.430  -0.138  0.00  0.00    +0.142 HD
BRANCH  15  17
ATOM     17  N   UNL     1       5.454  -0.493   0.050  0.00  0.00    -0.244 NA
ATOM     18  C   UNL     1       6.109  -1.365  -0.916  0.00  0.00    +0.103 C 
ATOM     19  H   UNL     1       5.617  -0.842   0.995  0.00  0.00    +0.141 HD
ENDBRANCH  15  17
ENDBRANCH  14  15
ENDBRANCH   1  14
TORSDOF 5
