REMARK  Name = 5287463
REMARK  5 active torsions:
REMARK  status: ('A' for Active; 'I' for Inactive)
REMARK    1  A    between atoms: C_1  and  O_9
REMARK    2  A    between atoms: C_2  and  C_8
REMARK    3  A    between atoms: O_9  and  P_10
REMARK    4  A    between atoms: P_10  and  O_12
REMARK    5  A    between atoms: P_10  and  O_14
REMARK                            x       y       z     vdW  Elec       q    Type
REMARK                         _______ _______ _______ _____ _____    ______ ____
ROOT
ATOM      1  C   UNL     1      -0.177   0.093  -0.029  0.00  0.00    +0.152 C 
ATOM      2  C   UNL     1      -1.454  -0.469  -0.013  0.00  0.00    +0.077 C 
ATOM      3  C   UNL     1      -0.026   1.480  -0.014  0.00  0.00    +0.038 C 
ATOM      4  C   UNL     1      -2.579   0.355   0.017  0.00  0.00    +0.006 C 
ATOM      5  C   UNL     1      -1.151   2.304   0.017  0.00  0.00    +0.003 C 
ATOM      6  C   UNL     1      -2.427   1.742   0.032  0.00  0.00    +0.000 C 
ENDROOT
BRANCH   2   8
ATOM      7  O   UNL     1      -2.744  -2.453  -0.015  0.00  0.00    -0.283 OA
ATOM      8  C   UNL     1      -1.634  -1.914  -0.028  0.00  0.00    +0.237 C 
ENDBRANCH   2   8
BRANCH   1   9
ATOM      9  O   UNL     1       0.934  -0.695  -0.057  0.00  0.00    -0.403 OA
BRANCH   9  10
ATOM     10  P   UNL     1       2.459  -0.155  -0.076  0.00  0.00    +0.528 P 
ATOM     11  O   UNL     1       2.817   0.714  -1.247  0.00  0.00    -0.216 OA
BRANCH  10  12
ATOM     12  O   UNL     1       2.659   0.517   1.382  0.00  0.00    -0.293 OA
ATOM     13  H   UNL     1       2.403  -0.119   2.068  0.00  0.00    +0.223 HD
ENDBRANCH  10  12
BRANCH  10  14
ATOM     14  O   UNL     1       3.322  -1.519   0.032  0.00  0.00    -0.293 OA
ATOM     15  H   UNL     1       3.034  -2.023   0.810  0.00  0.00    +0.223 HD
ENDBRANCH  10  14
ENDBRANCH   9  10
ENDBRANCH   1   9
TORSDOF 5
