62307
  -OEChem-10051719373D

 53 55  0     1  0  0  0  0  0999 V2000
    3.5654   -3.3199   -0.0260 O   0  0  0  0  0  0  0  0  0  0  0  0
   -0.9214    0.1048   -0.3445 N   0  0  0  0  0  0  0  0  0  0  0  0
    3.1666   -0.9811   -0.1476 N   0  0  0  0  0  0  0  0  0  0  0  0
    1.7710   -1.0291   -0.5060 C   0  0  0  0  0  0  0  0  0  0  0  0
    1.3612    0.2170   -1.2915 C   0  0  0  0  0  0  0  0  0  0  0  0
    0.8946   -1.1814    0.7369 C   0  0  0  0  0  0  0  0  0  0  0  0
   -0.1403    0.2198   -1.5839 C   0  0  0  0  0  0  0  0  0  0  0  0
   -0.5916   -1.1313    0.3783 C   0  0  0  0  0  0  0  0  0  0  0  0
   -2.3538    0.1604   -0.6356 C   0  0  1  0  0  0  0  0  0  0  0  0
   -3.1506    0.0322    0.6755 C   0  0  0  0  0  0  0  0  0  0  0  0
   -2.6446    1.4681   -1.3723 C   0  0  0  0  0  0  0  0  0  0  0  0
    3.7565    0.3336    0.0944 C   0  0  0  0  0  0  0  0  0  0  0  0
    3.9493   -2.1510    0.0632 C   0  0  0  0  0  0  0  0  0  0  0  0
   -4.6474    0.0382    0.4765 C   0  0  0  0  0  0  0  0  0  0  0  0
    4.3855    0.9454   -0.9486 C   0  0  0  0  0  0  0  0  0  0  0  0
    3.6362    0.8586    1.3465 C   0  0  0  0  0  0  0  0  0  0  0  0
    5.4061   -1.9086    0.3853 C   0  0  0  0  0  0  0  0  0  0  0  0
   -5.3307    1.2436    0.4989 C   0  0  0  0  0  0  0  0  0  0  0  0
   -5.3106   -1.1618    0.2755 C   0  0  0  0  0  0  0  0  0  0  0  0
    4.9477    2.2010   -0.7176 C   0  0  0  0  0  0  0  0  0  0  0  0
    4.1983    2.1141    1.5775 C   0  0  0  0  0  0  0  0  0  0  0  0
   -6.7135    1.2492    0.3156 C   0  0  0  0  0  0  0  0  0  0  0  0
   -6.6933   -1.1563    0.0920 C   0  0  0  0  0  0  0  0  0  0  0  0
    4.8540    2.7853    0.5454 C   0  0  0  0  0  0  0  0  0  0  0  0
   -7.3947    0.0492    0.1121 C   0  0  0  0  0  0  0  0  0  0  0  0
    1.6219   -1.9138   -1.1393 H   0  0  0  0  0  0  0  0  0  0  0  0
    1.9067    0.2666   -2.2419 H   0  0  0  0  0  0  0  0  0  0  0  0
    1.5684    1.1442   -0.7435 H   0  0  0  0  0  0  0  0  0  0  0  0
    1.1017   -0.3872    1.4633 H   0  0  0  0  0  0  0  0  0  0  0  0
    1.1183   -2.1286    1.2431 H   0  0  0  0  0  0  0  0  0  0  0  0
   -0.3132    1.1680   -2.0998 H   0  0  0  0  0  0  0  0  0  0  0  0
   -0.3836   -0.5916   -2.2824 H   0  0  0  0  0  0  0  0  0  0  0  0
   -0.8653   -2.0198   -0.2053 H   0  0  0  0  0  0  0  0  0  0  0  0
   -1.0879   -1.1971    1.3486 H   0  0  0  0  0  0  0  0  0  0  0  0
   -2.6415   -0.6686   -1.2983 H   0  0  0  0  0  0  0  0  0  0  0  0
   -2.8741    0.8356    1.3723 H   0  0  0  0  0  0  0  0  0  0  0  0
   -2.9521   -0.9032    1.2061 H   0  0  0  0  0  0  0  0  0  0  0  0
   -2.2464    1.4819   -2.3914 H   0  0  0  0  0  0  0  0  0  0  0  0
   -2.2611    2.3389   -0.8284 H   0  0  0  0  0  0  0  0  0  0  0  0
   -3.7169    1.6196   -1.5198 H   0  0  0  0  0  0  0  0  0  0  0  0
    4.4628    0.4901   -1.9304 H   0  0  0  0  0  0  0  0  0  0  0  0
    3.1452    0.3345    2.1587 H   0  0  0  0  0  0  0  0  0  0  0  0
    5.5137   -1.3451    1.3151 H   0  0  0  0  0  0  0  0  0  0  0  0
    5.9051   -1.3945   -0.4395 H   0  0  0  0  0  0  0  0  0  0  0  0
    5.9067   -2.8724    0.5263 H   0  0  0  0  0  0  0  0  0  0  0  0
   -4.8125    2.1837    0.6652 H   0  0  0  0  0  0  0  0  0  0  0  0
   -4.7739   -2.1059    0.2547 H   0  0  0  0  0  0  0  0  0  0  0  0
    5.4594    2.7229   -1.5209 H   0  0  0  0  0  0  0  0  0  0  0  0
    4.1294    2.5671    2.5622 H   0  0  0  0  0  0  0  0  0  0  0  0
   -7.2599    2.1876    0.3332 H   0  0  0  0  0  0  0  0  0  0  0  0
   -7.2238   -2.0906   -0.0673 H   0  0  0  0  0  0  0  0  0  0  0  0
    5.2929    3.7623    0.7257 H   0  0  0  0  0  0  0  0  0  0  0  0
   -8.4713    0.0535   -0.0305 H   0  0  0  0  0  0  0  0  0  0  0  0
  1 13  2  0  0  0  0
  2  7  1  0  0  0  0
  2  8  1  0  0  0  0
  2  9  1  0  0  0  0
  3  4  1  0  0  0  0
  3 12  1  0  0  0  0
  3 13  1  0  0  0  0
  4  5  1  0  0  0  0
  4  6  1  0  0  0  0
  4 26  1  0  0  0  0
  5  7  1  0  0  0  0
  5 27  1  0  0  0  0
  5 28  1  0  0  0  0
  6  8  1  0  0  0  0
  6 29  1  0  0  0  0
  6 30  1  0  0  0  0
  7 31  1  0  0  0  0
  7 32  1  0  0  0  0
  8 33  1  0  0  0  0
  8 34  1  0  0  0  0
  9 10  1  0  0  0  0
  9 11  1  0  0  0  0
  9 35  1  0  0  0  0
 10 14  1  0  0  0  0
 10 36  1  0  0  0  0
 10 37  1  0  0  0  0
 11 38  1  0  0  0  0
 11 39  1  0  0  0  0
 11 40  1  0  0  0  0
 12 15  2  0  0  0  0
 12 16  1  0  0  0  0
 13 17  1  0  0  0  0
 14 18  2  0  0  0  0
 14 19  1  0  0  0  0
 15 20  1  0  0  0  0
 15 41  1  0  0  0  0
 16 21  2  0  0  0  0
 16 42  1  0  0  0  0
 17 43  1  0  0  0  0
 17 44  1  0  0  0  0
 17 45  1  0  0  0  0
 18 22  1  0  0  0  0
 18 46  1  0  0  0  0
 19 23  2  0  0  0  0
 19 47  1  0  0  0  0
 20 24  2  0  0  0  0
 20 48  1  0  0  0  0
 21 24  1  0  0  0  0
 21 49  1  0  0  0  0
 22 25  2  0  0  0  0
 22 50  1  0  0  0  0
 23 25  1  0  0  0  0
 23 51  1  0  0  0  0
 24 52  1  0  0  0  0
 25 53  1  0  0  0  0
M  END
> <DATABASE_ID>
DB01532

> <DATABASE_NAME>
drugbank

> <ORIGINAL_SOURCE>
PUBCHEM

> <ORIGINAL_SOURCE_URL>
https://pubchem.ncbi.nlm.nih.gov/rest/pug/compound/inchikey/OKTLVZBUKMRPLL-UHFFFAOYSA-N/SDF?record_type=3d

> <SMILES>
CC(CC1=CC=CC=C1)N1CCC(CC1)N(C(C)=O)C1=CC=CC=C1

> <INCHI_IDENTIFIER>
InChI=1S/C22H28N2O/c1-18(17-20-9-5-3-6-10-20)23-15-13-22(14-16-23)24(19(2)25)21-11-7-4-8-12-21/h3-12,18,22H,13-17H2,1-2H3

> <INCHI_KEY>
OKTLVZBUKMRPLL-UHFFFAOYSA-N

> <FORMULA>
C22H28N2O

> <MOLECULAR_WEIGHT>
336.4705

> <EXACT_MASS>
336.220163528

> <JCHEM_ACCEPTOR_COUNT>
2

> <JCHEM_AVERAGE_POLARIZABILITY>
39.93804531521542

> <JCHEM_BIOAVAILABILITY>
1

> <JCHEM_DONOR_COUNT>
0

> <JCHEM_FORMAL_CHARGE>
0

> <JCHEM_GHOSE_FILTER>
1

> <JCHEM_IUPAC>
N-phenyl-N-[1-(1-phenylpropan-2-yl)piperidin-4-yl]acetamide

> <ALOGPS_LOGP>
4.09

> <JCHEM_LOGP>
3.5315377259999994

> <ALOGPS_LOGS>
-4.19

> <JCHEM_MDDR_LIKE_RULE>
0

> <JCHEM_NUMBER_OF_RINGS>
3

> <JCHEM_PHYSIOLOGICAL_CHARGE>
1

> <JCHEM_PKA_STRONGEST_BASIC>
9.00503063384305

> <JCHEM_POLAR_SURFACE_AREA>
23.550000000000004

> <JCHEM_REFRACTIVITY>
103.27440000000004

> <JCHEM_ROTATABLE_BOND_COUNT>
5

> <JCHEM_RULE_OF_FIVE>
1

> <ALOGPS_SOLUBILITY>
2.20e-02 g/l

> <JCHEM_TRADITIONAL_IUPAC>
acetyl-α-methylfentanyl

> <JCHEM_VEBER_RULE>
1

> <DRUGBANK_ID>
DB01532

> <DRUG_GROUPS>
illicit

> <GENERIC_NAME>
α-Methylacetylfentanyl

> <SYNONYMS>
Acetyl-alpha-methylfentanyl; alphamethylacetylfentanyl

$$$$
