REMARK  Name = 5327
REMARK  3 active torsions:
REMARK  status: ('A' for Active; 'I' for Inactive)
REMARK    1  A    between atoms: S_1  and  N_4
REMARK    2  A    between atoms: S_1  and  C_14
REMARK    3  A    between atoms: C_17  and  N_20
REMARK                            x       y       z     vdW  Elec       q    Type
REMARK                         _______ _______ _______ _____ _____    ______ ____
ROOT
ATOM      1  S   UNL     1      -0.632   2.283   0.156  0.00  0.00    +0.083 S 
ATOM      2  O   UNL     1      -1.452   3.183   0.960  0.00  0.00    -0.149 OA
ATOM      3  O   UNL     1      -0.147   2.745  -1.139  0.00  0.00    -0.149 OA
ENDROOT
BRANCH   1   4
ATOM      4  N   UNL     1       0.699   1.768   1.120  0.00  0.00    -0.139 N 
ATOM      5  N   UNL     1       1.389  -0.470   1.403  0.00  0.00    -0.336 NA
ATOM      6  N   UNL     1       2.189   0.839  -0.455  0.00  0.00    -0.336 NA
ATOM      7  C   UNL     1       1.472   0.645   0.662  0.00  0.00    +0.218 C 
ATOM      8  C   UNL     1       2.127  -1.503   0.945  0.00  0.00    +0.107 C 
ATOM      9  C   UNL     1       2.902  -0.234  -0.857  0.00  0.00    +0.107 C 
ATOM     10  C   UNL     1       2.909  -1.442  -0.190  0.00  0.00    +0.111 C 
ATOM     11  C   UNL     1       2.071  -2.768   1.732  0.00  0.00    +0.063 C 
ATOM     12  C   UNL     1       3.717  -0.072  -2.096  0.00  0.00    +0.063 C 
ATOM     13  H   UNL     1       0.924   2.229   1.961  0.00  0.00    +0.188 HD
ENDBRANCH   1   4
BRANCH   1  14
ATOM     14  C   UNL     1      -1.535   0.807  -0.079  0.00  0.00    +0.126 C 
ATOM     15  C   UNL     1      -2.532   0.448   0.829  0.00  0.00    +0.021 C 
ATOM     16  C   UNL     1      -1.260  -0.012  -1.174  0.00  0.00    +0.021 C 
ATOM     17  C   UNL     1      -2.977  -1.551  -0.453  0.00  0.00    +0.042 C 
ATOM     18  C   UNL     1      -3.253  -0.732   0.641  0.00  0.00    +0.015 C 
ATOM     19  C   UNL     1      -1.981  -1.192  -1.361  0.00  0.00    +0.015 C 
BRANCH  17  20
ATOM     20  N   UNL     1      -3.707  -2.743  -0.643  0.00  0.00    -0.357 N 
ATOM     21  H   UNL     1      -4.410  -2.997  -0.003  0.00  0.00    +0.142 HD
ATOM     22  H   UNL     1      -3.513  -3.321  -1.417  0.00  0.00    +0.142 HD
ENDBRANCH  17  20
ENDBRANCH   1  14
TORSDOF 3
