REMARK  Name = 2952
REMARK  5 active torsions:
REMARK  status: ('A' for Active; 'I' for Inactive)
REMARK    1  A    between atoms: C_2  and  C_6
REMARK    2  A    between atoms: C_3  and  C_16
REMARK    3  A    between atoms: C_9  and  N_14
REMARK    4  A    between atoms: N_15  and  C_16
REMARK    5  A    between atoms: N_15  and  N_19
REMARK                            x       y       z     vdW  Elec       q    Type
REMARK                         _______ _______ _______ _____ _____    ______ ____
ROOT
ATOM      1  O   UNL     1       0.228  -0.254   0.000  0.00  0.00    -0.456 OA
ATOM      2  C   UNL     1       1.242  -1.154   0.000  0.00  0.00    +0.145 C 
ATOM      3  C   UNL     1      -0.923  -0.975   0.000  0.00  0.00    +0.142 C 
ATOM      4  C   UNL     1       0.761  -2.438   0.000  0.00  0.00    +0.040 C 
ATOM      5  C   UNL     1      -0.650  -2.323   0.000  0.00  0.00    +0.038 C 
ENDROOT
BRANCH   2   6
ATOM      6  C   UNL     1       2.568  -0.585   0.000  0.00  0.00    +0.035 C 
ATOM      7  C   UNL     1       3.685  -1.419   0.001  0.00  0.00    +0.005 C 
ATOM      8  C   UNL     1       2.731   0.800  -0.001  0.00  0.00    +0.005 C 
ATOM      9  C   UNL     1       5.130   0.517   0.000  0.00  0.00    +0.143 C 
ATOM     10  C   UNL     1       4.967  -0.868   0.001  0.00  0.00    +0.024 C 
ATOM     11  C   UNL     1       4.013   1.351  -0.001  0.00  0.00    +0.024 C 
BRANCH   9  14
ATOM     12  O   UNL     1       7.423   0.306   0.001  0.00  0.00    -0.126 OA
ATOM     13  O   UNL     1       6.554   2.326  -0.001  0.00  0.00    -0.126 OA
ATOM     14  N   UNL     1       6.435   1.078   0.000  0.00  0.00    +0.058 N 
ENDBRANCH   9  14
ENDBRANCH   2   6
BRANCH   3  15
ATOM     15  C   UNL     1      -2.155  -0.262   0.000  0.00  0.00    +0.176 C 
BRANCH  15  16
ATOM     16  N   UNL     1      -3.325  -0.854   0.000  0.00  0.00    -0.118 NA
BRANCH  16  19
ATOM     17  O   UNL     1      -6.099   2.967   0.001  0.00  0.00    -0.273 OA
ATOM     18  O   UNL     1      -6.093  -1.622   0.000  0.00  0.00    -0.251 OA
ATOM     19  N   UNL     1      -4.381  -0.016   0.000  0.00  0.00    -0.181 N 
ATOM     20  N   UNL     1      -6.476   0.673   0.000  0.00  0.00    -0.237 N 
ATOM     21  C   UNL     1      -4.239   1.408   0.000  0.00  0.00    +0.199 C 
ATOM     22  C   UNL     1      -5.702   1.810   0.000  0.00  0.00    +0.251 C 
ATOM     23  C   UNL     1      -5.695  -0.466   0.000  0.00  0.00    +0.325 C 
ATOM     24  H   UNL     1      -7.461   0.672   0.000  0.00  0.00    +0.159 HD
ENDBRANCH  16  19
ENDBRANCH  15  16
ENDBRANCH   3  15
TORSDOF 5
