REMARK  Name = 27934
REMARK  3 active torsions:
REMARK  status: ('A' for Active; 'I' for Inactive)
REMARK    1  A    between atoms: C_2  and  C_11
REMARK    2  A    between atoms: C_11  and  C_12
REMARK    3  A    between atoms: C_12  and  C_14
REMARK                            x       y       z     vdW  Elec       q    Type
REMARK                         _______ _______ _______ _____ _____    ______ ____
ROOT
ATOM      1  N   UNL     1      -2.789  -1.190  -0.884  0.00  0.00    -0.312 N 
ATOM      2  C   UNL     1      -0.961  -1.529   0.329  0.00  0.00    -0.006 C 
ATOM      3  C   UNL     1      -1.306  -0.151   0.420  0.00  0.00    +0.011 C 
ATOM      4  C   UNL     1      -2.456   0.035  -0.350  0.00  0.00    +0.048 C 
ATOM      5  C   UNL     1      -1.891  -2.141  -0.479  0.00  0.00    +0.058 C 
ATOM      6  C   UNL     1      -0.748   0.958   1.086  0.00  0.00    +0.001 C 
ATOM      7  C   UNL     1      -3.079   1.280  -0.488  0.00  0.00    +0.015 C 
ATOM      8  C   UNL     1      -1.361   2.210   0.957  0.00  0.00    +0.000 C 
ATOM      9  C   UNL     1      -2.508   2.366   0.181  0.00  0.00    +0.001 C 
ATOM     10  H   UNL     1      -3.560  -1.357  -1.472  0.00  0.00    +0.152 HD
ENDROOT
BRANCH   2  11
ATOM     11  C   UNL     1       0.186  -2.194   0.980  0.00  0.00    +0.032 C 
BRANCH  11  12
ATOM     12  C   UNL     1       1.481  -2.208   0.137  0.00  0.00    +0.031 C 
BRANCH  12  14
ATOM     13  N   UNL     1       3.100   1.704  -0.533  0.00  0.00    -0.242 NA
ATOM     14  C   UNL     1       2.052  -0.830  -0.099  0.00  0.00    -0.019 C 
ATOM     15  C   UNL     1       1.655  -0.111  -1.210  0.00  0.00    +0.016 C 
ATOM     16  C   UNL     1       2.962  -0.308   0.799  0.00  0.00    +0.016 C 
ATOM     17  C   UNL     1       2.206   1.148  -1.382  0.00  0.00    +0.099 C 
ATOM     18  C   UNL     1       3.455   0.960   0.538  0.00  0.00    +0.099 C 
ENDBRANCH  12  14
ENDBRANCH  11  12
ENDBRANCH   2  11
TORSDOF 3
