REMARK  Name = 3033053
REMARK  2 active torsions:
REMARK  status: ('A' for Active; 'I' for Inactive)
REMARK    1  A    between atoms: C_2  and  N_17
REMARK    2  A    between atoms: C_15  and  O_21
REMARK                            x       y       z     vdW  Elec       q    Type
REMARK                         _______ _______ _______ _____ _____    ______ ____
ROOT
ATOM      1  C   UNL     1      -0.614   1.247   0.328  0.00  0.00    +0.001 C 
ATOM      2  C   UNL     1      -1.737   0.555   1.169  0.00  0.00    -0.061 C 
ATOM      3  C   UNL     1      -1.801  -0.981   1.061  0.00  0.00    -0.015 C 
ATOM      4  C   UNL     1      -1.046   1.650  -1.121  0.00  0.00    +0.002 C 
ATOM      5  C   UNL     1      -0.446  -1.575   1.456  0.00  0.00    +0.024 C 
ATOM      6  C   UNL     1       0.686   0.416   0.319  0.00  0.00    -0.026 C 
ATOM      7  C   UNL     1      -2.413  -1.602  -0.207  0.00  0.00    -0.002 C 
ATOM      8  C   UNL     1       0.741  -0.897   0.827  0.00  0.00    -0.026 C 
ATOM      9  C   UNL     1      -1.693   0.636  -2.071  0.00  0.00    +0.000 C 
ATOM     10  C   UNL     1      -0.298   2.595   1.060  0.00  0.00    +0.002 C 
ATOM     11  C   UNL     1      -1.538  -1.868  -1.433  0.00  0.00    -0.000 C 
ATOM     12  C   UNL     1      -0.972  -0.692  -2.226  0.00  0.00    +0.000 C 
ATOM     13  C   UNL     1       1.871   0.959  -0.225  0.00  0.00    +0.032 C 
ATOM     14  C   UNL     1       1.955  -1.610   0.804  0.00  0.00    -0.001 C 
ATOM     15  C   UNL     1       3.066   0.236  -0.253  0.00  0.00    +0.133 C 
ATOM     16  C   UNL     1       3.108  -1.050   0.264  0.00  0.00    +0.036 C 
ENDROOT
BRANCH   2  17
ATOM     17  N   UNL     1      -3.053   1.188   1.037  0.00  0.00    +0.382 N 
ATOM     18  H   UNL     1      -2.953   2.200   1.115  0.00  0.00    -0.089 HD
ATOM     19  H   UNL     1      -3.669   0.849   1.776  0.00  0.00    -0.089 HD
ATOM     20  H   UNL     1      -3.453   0.955   0.128  0.00  0.00    -0.089 HD
ENDBRANCH   2  17
BRANCH  15  21
ATOM     21  O   UNL     1       4.186   0.794  -0.789  0.00  0.00    -0.506 OA
ATOM     22  H   UNL     1       4.155   1.663  -1.138  0.00  0.00    +0.292 HD
ENDBRANCH  15  21
TORSDOF 2
