REMARK  Name = 447536
REMARK  4 active torsions:
REMARK  status: ('A' for Active; 'I' for Inactive)
REMARK    1  A    between atoms: C_1  and  C_2
REMARK    2  A    between atoms: C_1  and  S_8
REMARK    3  A    between atoms: C_1  and  C_13
REMARK    4  A    between atoms: C_13  and  O_14
REMARK                            x       y       z     vdW  Elec       q    Type
REMARK                         _______ _______ _______ _____ _____    ______ ____
ROOT
ATOM      1  C   UNL     1       0.783  -0.155  -0.600  0.00  0.00    +0.256 C 
ENDROOT
BRANCH   1   2
ATOM      2  C   UNL     1      -0.672  -0.097  -0.279  0.00  0.00    +0.011 C 
ATOM      3  C   UNL     1      -1.525   0.696  -1.047  0.00  0.00    -0.002 C 
ATOM      4  C   UNL     1      -1.181  -0.836   0.789  0.00  0.00    -0.002 C 
ATOM      5  C   UNL     1      -2.886   0.750  -0.746  0.00  0.00    -0.000 C 
ATOM      6  C   UNL     1      -2.542  -0.782   1.090  0.00  0.00    -0.000 C 
ATOM      7  C   UNL     1      -3.394   0.011   0.322  0.00  0.00    -0.000 C 
ENDBRANCH   1   2
BRANCH   1   8
ATOM      8  S   UNL     1       1.581   1.193   0.237  0.00  0.00    +0.035 S 
ATOM      9  O   UNL     1       0.892   2.397  -0.617  0.00  0.00    -0.069 OA
ATOM     10  O   UNL     1       2.997   1.149  -0.066  0.00  0.00    -0.069 OA
ATOM     11  O   UNL     1       1.089   1.240   1.599  0.00  0.00    -0.069 OA
ENDBRANCH   1   8
BRANCH   1  13
ATOM     12  O   UNL     1       2.373  -1.587   0.564  0.00  0.00    -0.248 OA
ATOM     13  C   UNL     1       1.473  -1.466  -0.258  0.00  0.00    +0.341 C 
BRANCH  13  14
ATOM     14  O   UNL     1       1.012  -2.515  -0.988  0.00  0.00    -0.479 OA
ATOM     15  H   UNL     1       0.321  -2.387  -1.608  0.00  0.00    +0.295 HD
ENDBRANCH  13  14
ENDBRANCH   1  13
TORSDOF 4
