REMARK  Name = 2372
REMARK  11 active torsions:
REMARK  status: ('A' for Active; 'I' for Inactive)
REMARK    1  A    between atoms: N_1  and  C_4
REMARK    2  A    between atoms: N_1  and  C_17
REMARK    3  A    between atoms: C_4  and  C_5
REMARK    4  A    between atoms: C_5  and  O_6
REMARK    5  A    between atoms: C_5  and  C_8
REMARK    6  A    between atoms: C_8  and  O_9
REMARK    7  A    between atoms: O_9  and  C_10
REMARK    8  A    between atoms: C_17  and  C_18
REMARK    9  A    between atoms: C_18  and  C_19
REMARK   10  A    between atoms: C_22  and  O_25
REMARK   11  A    between atoms: C_24  and  O_27
REMARK                            x       y       z     vdW  Elec       q    Type
REMARK                         _______ _______ _______ _____ _____    ______ ____
ROOT
ATOM      1  N   UNL     1      -2.255   1.948   0.051  0.00  0.00    +0.386 N 
ATOM      2  H   UNL     1      -1.516   1.255   0.173  0.00  0.00    -0.084 HD
ATOM      3  H   UNL     1      -2.419   2.452   0.922  0.00  0.00    -0.084 HD
ENDROOT
BRANCH   1   4
ATOM      4  C   UNL     1      -3.486   1.270  -0.332  0.00  0.00    -0.048 C 
BRANCH   4   5
ATOM      5  C   UNL     1      -3.906   0.216   0.696  0.00  0.00    +0.133 C 
BRANCH   5   6
ATOM      6  O   UNL     1      -5.095  -0.421   0.221  0.00  0.00    -0.383 OA
ATOM      7  H   UNL     1      -5.780   0.247   0.066  0.00  0.00    +0.210 HD
ENDBRANCH   5   6
BRANCH   5   8
ATOM      8  C   UNL     1      -2.842  -0.854   0.934  0.00  0.00    +0.232 C 
BRANCH   8   9
ATOM      9  O   UNL     1      -2.603  -1.545  -0.288  0.00  0.00    -0.473 OA
BRANCH   9  10
ATOM     10  C   UNL     1      -1.340  -2.036  -0.480  0.00  0.00    +0.138 C 
ATOM     11  C   UNL     1      -0.569  -2.426   0.615  0.00  0.00    +0.033 C 
ATOM     12  C   UNL     1       0.718  -2.926   0.420  0.00  0.00    -0.019 C 
ATOM     13  C   UNL     1      -0.823  -2.146  -1.771  0.00  0.00    +0.037 C 
ATOM     14  C   UNL     1       1.235  -3.036  -0.871  0.00  0.00    -0.004 C 
ATOM     15  C   UNL     1       0.465  -2.646  -1.966  0.00  0.00    +0.003 C 
ATOM     16  C   UNL     1       1.543  -3.342   1.591  0.00  0.00    +0.031 C 
ENDBRANCH   9  10
ENDBRANCH   8   9
ENDBRANCH   5   8
ENDBRANCH   4   5
ENDBRANCH   1   4
BRANCH   1  17
ATOM     17  C   UNL     1      -1.848   2.904  -0.970  0.00  0.00    -0.077 C 
BRANCH  17  18
ATOM     18  C   UNL     1      -0.549   3.608  -0.574  0.00  0.00    +0.003 C 
BRANCH  18  19
ATOM     19  C   UNL     1       0.585   2.628  -0.414  0.00  0.00    -0.021 C 
ATOM     20  C   UNL     1       0.828   2.039   0.827  0.00  0.00    +0.036 C 
ATOM     21  C   UNL     1       1.393   2.311  -1.506  0.00  0.00    -0.001 C 
ATOM     22  C   UNL     1       1.877   1.133   0.976  0.00  0.00    +0.172 C 
ATOM     23  C   UNL     1       2.442   1.405  -1.358  0.00  0.00    +0.040 C 
ATOM     24  C   UNL     1       2.685   0.816  -0.117  0.00  0.00    +0.172 C 
BRANCH  22  25
ATOM     25  O   UNL     1       2.106   0.565   2.193  0.00  0.00    -0.468 OA
ATOM     26  C   UNL     1       1.235   0.943   3.257  0.00  0.00    +0.253 C 
ENDBRANCH  22  25
BRANCH  24  27
ATOM     27  O   UNL     1       3.713  -0.068   0.016  0.00  0.00    -0.468 OA
ATOM     28  C   UNL     1       4.490  -0.338  -1.149  0.00  0.00    +0.253 C 
ENDBRANCH  24  27
ENDBRANCH  18  19
ENDBRANCH  17  18
ENDBRANCH   1  17
TORSDOF 11
