REMARK  Name = 15606
REMARK  8 active torsions:
REMARK  status: ('A' for Active; 'I' for Inactive)
REMARK    1  A    between atoms: C_1  and  C_2
REMARK    2  A    between atoms: C_1  and  C_7
REMARK    3  A    between atoms: C_2  and  C_3
REMARK    4  A    between atoms: C_3  and  C_4
REMARK    5  A    between atoms: C_4  and  C_5
REMARK    6  A    between atoms: C_7  and  C_8
REMARK    7  A    between atoms: C_8  and  C_10
REMARK    8  A    between atoms: C_10  and  O_11
REMARK                            x       y       z     vdW  Elec       q    Type
REMARK                         _______ _______ _______ _____ _____    ______ ____
ROOT
ATOM      1  C   UNL     1       0.296   0.622   0.041  0.00  0.00    +0.001 C 
ENDROOT
BRANCH   1   2
ATOM      2  C   UNL     1       1.534  -0.277   0.008  0.00  0.00    +0.000 C 
BRANCH   2   3
ATOM      3  C   UNL     1       2.852   0.503  -0.001  0.00  0.00    +0.000 C 
BRANCH   3   4
ATOM      4  C   UNL     1       4.091  -0.394  -0.060  0.00  0.00    +0.000 C 
BRANCH   4   5
ATOM      5  C   UNL     1       5.376   0.432   0.007  0.00  0.00    +0.000 C 
ATOM      6  C   UNL     1       6.610  -0.456  -0.012  0.00  0.00    +0.000 C 
ENDBRANCH   4   5
ENDBRANCH   3   4
ENDBRANCH   2   3
ENDBRANCH   1   2
BRANCH   1   7
ATOM      7  C   UNL     1      -0.991  -0.210   0.035  0.00  0.00    +0.012 C 
BRANCH   7   8
ATOM      8  C   UNL     1      -2.247   0.658   0.037  0.00  0.00    +0.110 C 
BRANCH   8  10
ATOM      9  O   UNL     1      -3.534  -1.384   0.033  0.00  0.00    -0.250 OA
ATOM     10  C   UNL     1      -3.515  -0.160   0.013  0.00  0.00    +0.317 C 
BRANCH  10  11
ATOM     11  O   UNL     1      -4.601   0.663  -0.036  0.00  0.00    -0.444 OA
ATOM     12  C   UNL     1      -5.871   0.004  -0.066  0.00  0.00    +0.256 C 
ENDBRANCH  10  11
ENDBRANCH   8  10
ENDBRANCH   7   8
ENDBRANCH   1   7
TORSDOF 8
