REMARK  Name = 5429
REMARK  0 active torsions:
REMARK  status: ('A' for Active; 'I' for Inactive)
REMARK                            x       y       z     vdW  Elec       q    Type
REMARK                         _______ _______ _______ _____ _____    ______ ____
ROOT
ATOM      1  O   UNL     1       1.017   2.559   0.001  0.00  0.00    -0.273 OA
ATOM      2  O   UNL     1      -3.223   0.724   0.000  0.00  0.00    -0.252 OA
ATOM      3  N   UNL     1       2.049  -0.290   0.000  0.00  0.00    -0.239 NA
ATOM      4  N   UNL     1      -1.426  -0.774   0.000  0.00  0.00    -0.228 N 
ATOM      5  N   UNL     1      -1.094   1.602   0.000  0.00  0.00    -0.238 N 
ATOM      6  N   UNL     1       0.681  -2.053   0.000  0.00  0.00    -0.240 NA
ATOM      7  C   UNL     1       0.779   0.211   0.000  0.00  0.00    +0.191 C 
ATOM      8  C   UNL     1      -0.039  -0.890   0.000  0.00  0.00    +0.135 C 
ATOM      9  C   UNL     1       0.308   1.558  -0.001  0.00  0.00    +0.251 C 
ATOM     10  C   UNL     1      -2.007   0.517   0.000  0.00  0.00    +0.314 C 
ATOM     11  C   UNL     1       1.938  -1.657   0.000  0.00  0.00    +0.203 C 
ATOM     12  C   UNL     1      -2.267  -1.962   0.000  0.00  0.00    +0.123 C 
ATOM     13  C   UNL     1       3.285   0.455   0.000  0.00  0.00    +0.092 C 
ATOM     14  H   UNL     1      -1.495   2.501   0.000  0.00  0.00    +0.159 HD
ENDROOT
TORSDOF 0
