REMARK  Name = 165879
REMARK  4 active torsions:
REMARK  status: ('A' for Active; 'I' for Inactive)
REMARK    1  A    between atoms: C_1  and  O_12
REMARK    2  A    between atoms: C_3  and  N_9
REMARK    3  A    between atoms: C_4  and  O_10
REMARK    4  A    between atoms: O_12  and  S_13
REMARK                            x       y       z     vdW  Elec       q    Type
REMARK                         _______ _______ _______ _____ _____    ______ ____
ROOT
ATOM      1  C   UNL     1       0.443   0.310  -0.501  0.00  0.00    +0.211 C 
ATOM      2  C   UNL     1      -0.661  -0.539  -0.436  0.00  0.00    +0.067 C 
ATOM      3  C   UNL     1      -1.902  -0.042  -0.037  0.00  0.00    +0.146 C 
ATOM      4  C   UNL     1       0.306   1.658  -0.166  0.00  0.00    +0.171 C 
ATOM      5  C   UNL     1      -2.038   1.306   0.297  0.00  0.00    +0.027 C 
ATOM      6  C   UNL     1      -0.934   2.155   0.232  0.00  0.00    +0.042 C 
ENDROOT
BRANCH   3   9
ATOM      7  O   UNL     1      -4.133  -0.439   0.390  0.00  0.00    -0.126 OA
ATOM      8  O   UNL     1      -2.882  -2.115  -0.276  0.00  0.00    -0.126 OA
ATOM      9  N   UNL     1      -3.026  -0.907   0.029  0.00  0.00    +0.058 N 
ENDBRANCH   3   9
BRANCH   4  10
ATOM     10  O   UNL     1       1.377   2.498  -0.225  0.00  0.00    -0.503 OA
ATOM     11  H   UNL     1       2.214   2.172  -0.492  0.00  0.00    +0.292 HD
ENDBRANCH   4  10
BRANCH   1  12
ATOM     12  O   UNL     1       1.649  -0.188  -0.891  0.00  0.00    -0.319 OA
BRANCH  12  13
ATOM     13  S   UNL     1       2.670  -0.785   0.250  0.00  0.00    +0.282 S 
ATOM     14  O   UNL     1       4.027  -1.140  -0.586  0.00  0.00    -0.105 OA
ATOM     15  O   UNL     1       2.991   0.268   1.196  0.00  0.00    -0.012 OA
ATOM     16  O   UNL     1       2.113  -2.039   0.725  0.00  0.00    -0.105 OA
ENDBRANCH  12  13
ENDBRANCH   1  12
TORSDOF 4
