REMARK  Name = 54766
REMARK  9 active torsions:
REMARK  status: ('A' for Active; 'I' for Inactive)
REMARK    1  A    between atoms: C_1  and  C_19
REMARK    2  A    between atoms: C_4  and  O_7
REMARK    3  A    between atoms: C_5  and  O_13
REMARK    4  A    between atoms: O_7  and  C_10
REMARK    5  A    between atoms: O_13  and  C_16
REMARK    6  A    between atoms: C_19  and  O_20
REMARK    7  A    between atoms: C_19  and  C_22
REMARK    8  A    between atoms: C_22  and  N_23
REMARK    9  A    between atoms: N_23  and  C_26
REMARK                            x       y       z     vdW  Elec       q    Type
REMARK                         _______ _______ _______ _____ _____    ______ ____
ROOT
ATOM      1  C   UNL     1       0.550   0.706   1.090  0.00  0.00    +0.008 C 
ATOM      2  C   UNL     1      -0.623   1.452   0.984  0.00  0.00    +0.036 C 
ATOM      3  C   UNL     1       0.496  -0.688   1.056  0.00  0.00    +0.036 C 
ATOM      4  C   UNL     1      -0.732  -1.335   0.917  0.00  0.00    +0.153 C 
ATOM      5  C   UNL     1      -1.851   0.805   0.845  0.00  0.00    +0.153 C 
ATOM      6  C   UNL     1      -1.905  -0.588   0.811  0.00  0.00    +0.075 C 
ENDROOT
BRANCH   4   7
ATOM      7  O   UNL     1      -0.785  -2.694   0.885  0.00  0.00    -0.410 OA
BRANCH   7  10
ATOM      8  O   UNL     1      -0.546  -2.599  -1.414  0.00  0.00    -0.226 OA
ATOM      9  N   UNL     1      -0.738  -4.677  -0.388  0.00  0.00    -0.242 N 
ATOM     10  C   UNL     1      -0.678  -3.279  -0.397  0.00  0.00    +0.410 C 
ATOM     11  C   UNL     1      -0.641  -5.423  -1.635  0.00  0.00    +0.118 C 
ATOM     12  C   UNL     1      -0.891  -5.475   0.825  0.00  0.00    +0.118 C 
ENDBRANCH   7  10
ENDBRANCH   4   7
BRANCH   5  13
ATOM     13  O   UNL     1      -2.996   1.534   0.741  0.00  0.00    -0.410 OA
BRANCH  13  16
ATOM     14  O   UNL     1      -2.716   1.552  -1.555  0.00  0.00    -0.226 OA
ATOM     15  N   UNL     1      -4.560   2.633  -0.637  0.00  0.00    -0.242 N 
ATOM     16  C   UNL     1      -3.379   1.885  -0.574  0.00  0.00    +0.410 C 
ATOM     17  C   UNL     1      -5.081   3.069  -1.925  0.00  0.00    +0.118 C 
ATOM     18  C   UNL     1      -5.340   3.020   0.533  0.00  0.00    +0.118 C 
ENDBRANCH  13  16
ENDBRANCH   5  13
BRANCH   1  19
ATOM     19  C   UNL     1       1.883   1.407   1.240  0.00  0.00    +0.112 C 
BRANCH  19  20
ATOM     20  O   UNL     1       2.431   1.057   2.510  0.00  0.00    -0.382 OA
ATOM     21  H   UNL     1       3.287   1.498   2.625  0.00  0.00    +0.211 HD
ENDBRANCH  19  20
BRANCH  19  22
ATOM     22  C   UNL     1       2.852   1.018   0.117  0.00  0.00    -0.047 C 
BRANCH  22  23
ATOM     23  N   UNL     1       4.125   1.699   0.274  0.00  0.00    +0.388 N 
ATOM     24  H   UNL     1       3.972   2.707   0.249  0.00  0.00    -0.084 HD
ATOM     25  H   UNL     1       4.537   1.427   1.167  0.00  0.00    -0.084 HD
BRANCH  23  26
ATOM     26  C   UNL     1       5.046   1.326  -0.805  0.00  0.00    -0.046 C 
ATOM     27  C   UNL     1       4.437   1.724  -2.154  0.00  0.00    -0.022 C 
ATOM     28  C   UNL     1       5.269  -0.190  -0.754  0.00  0.00    -0.022 C 
ATOM     29  C   UNL     1       6.374   2.059  -0.589  0.00  0.00    -0.022 C 
ENDBRANCH  23  26
ENDBRANCH  22  23
ENDBRANCH  19  22
ENDBRANCH   1  19
TORSDOF 9
