REMARK  Name = 448014
REMARK  4 active torsions:
REMARK  status: ('A' for Active; 'I' for Inactive)
REMARK    1  A    between atoms: N_3  and  C_15
REMARK    2  A    between atoms: C_8  and  N_14
REMARK    3  A    between atoms: C_15  and  C_16
REMARK    4  A    between atoms: C_19  and  O_22
REMARK                            x       y       z     vdW  Elec       q    Type
REMARK                         _______ _______ _______ _____ _____    ______ ____
ROOT
ATOM      1  S   UNL     1      -3.745  -0.397   1.155  0.00  0.00    -0.027 S 
ATOM      2  O   UNL     1      -0.057  -0.796  -1.635  0.00  0.00    -0.252 OA
ATOM      3  N   UNL     1       0.776  -1.908   0.210  0.00  0.00    -0.285 N 
ATOM      4  N   UNL     1      -1.352  -1.054   0.311  0.00  0.00    -0.248 N 
ATOM      5  N   UNL     1      -2.796   0.169  -1.182  0.00  0.00    -0.221 NA
ATOM      6  C   UNL     1      -0.215  -1.202  -0.487  0.00  0.00    +0.306 C 
ATOM      7  C   UNL     1      -2.537  -0.407  -0.047  0.00  0.00    +0.168 C 
ATOM      8  C   UNL     1      -4.749   0.473   0.070  0.00  0.00    +0.194 C 
ATOM      9  C   UNL     1      -4.077   0.680  -1.117  0.00  0.00    +0.132 C 
ATOM     10  H   UNL     1       0.582  -2.205   1.128  0.00  0.00    +0.151 HD
ATOM     11  H   UNL     1      -1.315  -1.442   1.215  0.00  0.00    +0.158 HD
ENDROOT
BRANCH   8  14
ATOM     12  O   UNL     1      -6.767   1.496  -0.359  0.00  0.00    -0.126 OA
ATOM     13  O   UNL     1      -6.461   0.558   1.607  0.00  0.00    -0.126 OA
ATOM     14  N   UNL     1      -6.039   0.856   0.453  0.00  0.00    +0.065 N 
ENDBRANCH   8  14
BRANCH   3  15
ATOM     15  C   UNL     1       2.065  -2.218  -0.353  0.00  0.00    +0.118 C 
BRANCH  15  16
ATOM     16  C   UNL     1       3.073  -1.152  -0.084  0.00  0.00    -0.002 C 
ATOM     17  C   UNL     1       3.858  -1.210   1.067  0.00  0.00    +0.000 C 
ATOM     18  C   UNL     1       3.229  -0.097  -0.984  0.00  0.00    +0.000 C 
ATOM     19  C   UNL     1       4.958   0.842   0.419  0.00  0.00    +0.139 C 
ATOM     20  C   UNL     1       4.801  -0.212   1.318  0.00  0.00    +0.037 C 
ATOM     21  C   UNL     1       4.172   0.900  -0.732  0.00  0.00    +0.037 C 
BRANCH  19  22
ATOM     22  O   UNL     1       5.877   1.815   0.665  0.00  0.00    -0.471 OA
ATOM     23  C   UNL     1       5.986   2.864  -0.296  0.00  0.00    +0.252 C 
ENDBRANCH  19  22
ENDBRANCH  15  16
ENDBRANCH   3  15
TORSDOF 4
