4469994
  -OEChem-10051719403D

 19 18  0     0  0  0  0  0  0999 V2000
    2.8410   -0.1436   -0.1458 P   0  0  0  0  0  0  0  0  0  0  0  0
    2.6165   -1.6325   -0.4396 O   0  5  0  0  0  0  0  0  0  0  0  0
    2.7987    0.7587   -1.3858 O   0  5  0  0  0  0  0  0  0  0  0  0
    4.0099    0.1435    0.8053 O   0  0  0  0  0  0  0  0  0  0  0  0
   -2.9296    1.3029   -0.5869 O   0  0  0  0  0  0  0  0  0  0  0  0
   -4.2069   -1.0679   -0.3652 O   0  0  0  0  0  0  0  0  0  0  0  0
   -2.9960   -0.8297    0.2982 N   0  0  0  0  0  0  0  0  0  0  0  0
    0.0714    0.1430    0.0447 C   0  0  0  0  0  0  0  0  0  0  0  0
    1.3794    0.3415    0.7985 C   0  0  0  0  0  0  0  0  0  0  0  0
   -1.1405    0.5704    0.8694 C   0  0  0  0  0  0  0  0  0  0  0  0
   -2.4439    0.4138    0.1072 C   0  0  0  0  0  0  0  0  0  0  0  0
   -0.0312   -0.9096   -0.2446 H   0  0  0  0  0  0  0  0  0  0  0  0
    0.0960    0.7109   -0.8930 H   0  0  0  0  0  0  0  0  0  0  0  0
    1.4892    1.3953    1.0793 H   0  0  0  0  0  0  0  0  0  0  0  0
    1.3638   -0.2404    1.7272 H   0  0  0  0  0  0  0  0  0  0  0  0
   -1.0516    1.6250    1.1567 H   0  0  0  0  0  0  0  0  0  0  0  0
   -1.1884   -0.0067    1.8008 H   0  0  0  0  0  0  0  0  0  0  0  0
   -2.5744   -1.6081    0.7926 H   0  0  0  0  0  0  0  0  0  0  0  0
   -4.0894   -2.0005   -0.6131 H   0  0  0  0  0  0  0  0  0  0  0  0
  1  2  1  0  0  0  0
  1  3  1  0  0  0  0
  1  4  2  0  0  0  0
  1  9  1  0  0  0  0
  5 11  2  0  0  0  0
  6  7  1  0  0  0  0
  6 19  1  0  0  0  0
  7 11  1  0  0  0  0
  7 18  1  0  0  0  0
  8  9  1  0  0  0  0
  8 10  1  0  0  0  0
  8 12  1  0  0  0  0
  8 13  1  0  0  0  0
  9 14  1  0  0  0  0
  9 15  1  0  0  0  0
 10 11  1  0  0  0  0
 10 16  1  0  0  0  0
 10 17  1  0  0  0  0
M  CHG  2   2  -1   3  -1
M  END
> <DATABASE_ID>
DB01695

> <DATABASE_NAME>
drugbank

> <ORIGINAL_SOURCE>
PUBCHEM

> <ORIGINAL_SOURCE_URL>
https://pubchem.ncbi.nlm.nih.gov/rest/pug/compound/inchikey/AKXSFRVADDCWTF-UHFFFAOYSA-L/SDF?record_type=3d

> <SMILES>
ONC(=O)CCCP([O-])([O-])=O

> <INCHI_IDENTIFIER>
InChI=1S/C4H10NO5P/c6-4(5-7)2-1-3-11(8,9)10/h7H,1-3H2,(H,5,6)(H2,8,9,10)/p-2

> <INCHI_KEY>
AKXSFRVADDCWTF-UHFFFAOYSA-L

> <FORMULA>
C4H8NO5P

> <MOLECULAR_WEIGHT>
181.0838

> <EXACT_MASS>
181.014008883

> <JCHEM_ACCEPTOR_COUNT>
5

> <JCHEM_AVERAGE_POLARIZABILITY>
14.41876634781832

> <JCHEM_BIOAVAILABILITY>
1

> <JCHEM_DONOR_COUNT>
2

> <JCHEM_FORMAL_CHARGE>
-2

> <JCHEM_GHOSE_FILTER>
0

> <JCHEM_IUPAC>
[3-(hydroxycarbamoyl)propyl]phosphonate

> <ALOGPS_LOGP>
-1.07

> <JCHEM_LOGP>
-2.1092318416666664

> <ALOGPS_LOGS>
-0.67

> <JCHEM_MDDR_LIKE_RULE>
0

> <JCHEM_NUMBER_OF_RINGS>
0

> <JCHEM_PHYSIOLOGICAL_CHARGE>
-1

> <JCHEM_PKA>
8.19802479000612

> <JCHEM_PKA_STRONGEST_ACIDIC>
1.8103299146814913

> <JCHEM_PKA_STRONGEST_BASIC>
-5.462929306715227

> <JCHEM_POLAR_SURFACE_AREA>
112.52000000000001

> <JCHEM_REFRACTIVITY>
34.184200000000004

> <JCHEM_ROTATABLE_BOND_COUNT>
4

> <JCHEM_RULE_OF_FIVE>
1

> <ALOGPS_SOLUBILITY>
4.64e+01 g/l

> <JCHEM_TRADITIONAL_IUPAC>
4PBH

> <JCHEM_VEBER_RULE>
0

> <DRUGBANK_ID>
DB01695

> <SECONDARY_ACCESSION_NUMBERS>
EXPT00226

> <DRUG_GROUPS>
experimental

> <GENERIC_NAME>
N-Hydroxy-4-Phosphono-Butanamide

$$$$
