REMARK  Name = 657144
REMARK  8 active torsions:
REMARK  status: ('A' for Active; 'I' for Inactive)
REMARK    1  A    between atoms: C_1  and  N_3
REMARK    2  A    between atoms: C_1  and  C_11
REMARK    3  A    between atoms: C_1  and  C_18
REMARK    4  A    between atoms: C_4  and  C_6
REMARK    5  A    between atoms: C_6  and  C_8
REMARK    6  A    between atoms: C_8  and  O_9
REMARK    7  A    between atoms: C_11  and  C_12
REMARK    8  A    between atoms: C_18  and  S_19
REMARK                            x       y       z     vdW  Elec       q    Type
REMARK                         _______ _______ _______ _____ _____    ______ ____
ROOT
ATOM      1  C   UNL     1       0.592  -2.026   0.036  0.00  0.00    +0.086 C 
ENDROOT
BRANCH   1   3
ATOM      2  O   UNL     1       1.436   0.152  -1.631  0.00  0.00    -0.274 OA
ATOM      3  N   UNL     1       1.221  -0.803   0.474  0.00  0.00    -0.304 N 
ATOM      4  C   UNL     1       1.594   0.194  -0.414  0.00  0.00    +0.234 C 
ATOM      5  H   UNL     1       1.392  -0.672   1.435  0.00  0.00    +0.149 HD
BRANCH   4   6
ATOM      6  C   UNL     1       2.251   1.362   0.287  0.00  0.00    +0.194 C 
BRANCH   6   8
ATOM      7  O   UNL     1       0.545   2.838  -0.570  0.00  0.00    -0.250 OA
ATOM      8  C   UNL     1       1.582   2.691   0.063  0.00  0.00    +0.323 C 
BRANCH   8   9
ATOM      9  O   UNL     1       2.263   3.718   0.630  0.00  0.00    -0.480 OA
ATOM     10  H   UNL     1       3.054   3.550   1.105  0.00  0.00    +0.295 HD
ENDBRANCH   8   9
ENDBRANCH   6   8
ENDBRANCH   4   6
ENDBRANCH   1   3
BRANCH   1  11
ATOM     11  C   UNL     1      -0.811  -2.165   0.657  0.00  0.00    +0.047 C 
BRANCH  11  12
ATOM     12  C   UNL     1      -1.717  -0.997   0.344  0.00  0.00    -0.021 C 
ATOM     13  C   UNL     1      -1.738   0.093   1.198  0.00  0.00    -0.004 C 
ATOM     14  C   UNL     1      -2.508  -1.038  -0.793  0.00  0.00    -0.004 C 
ATOM     15  C   UNL     1      -2.574   1.171   0.909  0.00  0.00    -0.000 C 
ATOM     16  C   UNL     1      -3.344   0.040  -1.082  0.00  0.00    -0.000 C 
ATOM     17  C   UNL     1      -3.377   1.145  -0.232  0.00  0.00    -0.000 C 
ENDBRANCH  11  12
ENDBRANCH   1  11
BRANCH   1  18
ATOM     18  C   UNL     1       1.452  -3.240   0.409  0.00  0.00    +0.073 C 
BRANCH  18  19
ATOM     19  S   UNL     1       3.132  -3.136  -0.287  0.00  0.00    -0.166 S 
ATOM     20  H   UNL     1       3.843  -4.236   0.078  0.00  0.00    +0.102 HD
ENDBRANCH  18  19
ENDBRANCH   1  18
TORSDOF 8
