REMARK  Name = 4688
REMARK  4 active torsions:
REMARK  status: ('A' for Active; 'I' for Inactive)
REMARK    1  A    between atoms: C_1  and  C_2
REMARK    2  A    between atoms: C_1  and  N_8
REMARK    3  A    between atoms: N_8  and  C_11
REMARK    4  A    between atoms: C_11  and  C_12
REMARK                            x       y       z     vdW  Elec       q    Type
REMARK                         _______ _______ _______ _____ _____    ______ ____
ROOT
ATOM      1  C   UNL     1      -0.286  -0.338   1.122  0.00  0.00    -0.049 C 
ENDROOT
BRANCH   1   2
ATOM      2  C   UNL     1       1.075  -0.188   0.497  0.00  0.00    -0.043 C 
ATOM      3  C   UNL     1       1.695  -1.295  -0.066  0.00  0.00    -0.006 C 
ATOM      4  C   UNL     1       1.692   1.056   0.492  0.00  0.00    -0.006 C 
ATOM      5  C   UNL     1       2.956  -1.156  -0.645  0.00  0.00    -0.000 C 
ATOM      6  C   UNL     1       2.953   1.195  -0.087  0.00  0.00    -0.000 C 
ATOM      7  C   UNL     1       3.585   0.089  -0.655  0.00  0.00    -0.000 C 
ENDBRANCH   1   2
BRANCH   1   8
ATOM      8  N   UNL     1      -1.358  -0.110   0.154  0.00  0.00    +0.396 N 
ATOM      9  C   UNL     1      -1.269   1.241  -0.399  0.00  0.00    -0.099 C 
ATOM     10  H   UNL     1      -1.253  -0.779  -0.608  0.00  0.00    -0.078 HD
BRANCH   8  11
ATOM     11  C   UNL     1      -2.664  -0.322   0.778  0.00  0.00    +0.003 C 
BRANCH  11  12
ATOM     12  C   UNL     1      -3.744  -0.153  -0.199  0.00  0.00    -0.101 C 
ATOM     13  C   UNL     1      -4.633  -0.017  -0.995  0.00  0.00    -0.016 C 
ENDBRANCH  11  12
ENDBRANCH   8  11
ENDBRANCH   1   8
TORSDOF 4
