REMARK  Name = 24916772
REMARK  4 active torsions:
REMARK  status: ('A' for Active; 'I' for Inactive)
REMARK    1  A    between atoms: C_4  and  C_13
REMARK    2  A    between atoms: C_8  and  O_14
REMARK    3  A    between atoms: O_14  and  C_16
REMARK    4  A    between atoms: C_16  and  C_17
REMARK                            x       y       z     vdW  Elec       q    Type
REMARK                         _______ _______ _______ _____ _____    ______ ____
ROOT
ATOM      1  N   UNL     1      -3.480   0.474   0.528  0.00  0.00    +0.389 N 
ATOM      2  C   UNL     1      -2.994   0.130  -0.875  0.00  0.00    -0.044 C 
ATOM      3  C   UNL     1      -3.077  -0.755   1.316  0.00  0.00    -0.055 C 
ATOM      4  C   UNL     1      -1.459   0.260  -0.881  0.00  0.00    +0.125 C 
ATOM      5  C   UNL     1      -3.452  -1.324  -1.031  0.00  0.00    -0.022 C 
ATOM      6  C   UNL     1      -3.491  -1.901   0.390  0.00  0.00    -0.023 C 
ATOM      7  C   UNL     1      -1.556  -0.656   1.512  0.00  0.00    +0.023 C 
ATOM      8  C   UNL     1      -0.793  -0.632   0.181  0.00  0.00    +0.176 C 
ATOM      9  C   UNL     1      -4.933   0.836   0.620  0.00  0.00    -0.100 C 
ATOM     10  H   UNL     1      -3.065   1.332   0.893  0.00  0.00    -0.080 HD
ENDROOT
BRANCH   4  13
ATOM     11  O   UNL     1      -1.425   2.271   0.353  0.00  0.00    -0.246 OA
ATOM     12  O   UNL     1      -0.429   2.209  -1.706  0.00  0.00    -0.246 OA
ATOM     13  C   UNL     1      -1.066   1.726  -0.728  0.00  0.00    +0.366 C 
ENDBRANCH   4  13
BRANCH   8  14
ATOM     14  O   UNL     1       0.564  -0.272   0.413  0.00  0.00    -0.449 OA
BRANCH  14  16
ATOM     15  O   UNL     1       1.249  -1.656  -1.295  0.00  0.00    -0.245 OA
ATOM     16  C   UNL     1       1.485  -0.860  -0.399  0.00  0.00    +0.341 C 
BRANCH  16  17
ATOM     17  C   UNL     1       2.855  -0.404  -0.055  0.00  0.00    +0.076 C 
ATOM     18  C   UNL     1       3.951  -0.888  -0.770  0.00  0.00    +0.006 C 
ATOM     19  C   UNL     1       3.047   0.510   0.981  0.00  0.00    +0.006 C 
ATOM     20  C   UNL     1       5.239  -0.460  -0.447  0.00  0.00    +0.000 C 
ATOM     21  C   UNL     1       4.335   0.938   1.304  0.00  0.00    +0.000 C 
ATOM     22  C   UNL     1       5.431   0.453   0.590  0.00  0.00    +0.000 C 
ENDBRANCH  16  17
ENDBRANCH  14  16
ENDBRANCH   8  14
TORSDOF 4
