REMARK  Name = 61119
REMARK  5 active torsions:
REMARK  status: ('A' for Active; 'I' for Inactive)
REMARK    1  A    between atoms: C_2  and  C_9
REMARK    2  A    between atoms: C_2  and  O_17
REMARK    3  A    between atoms: C_3  and  C_15
REMARK    4  A    between atoms: O_17  and  C_19
REMARK    5  A    between atoms: C_19  and  C_20
REMARK                            x       y       z     vdW  Elec       q    Type
REMARK                         _______ _______ _______ _____ _____    ______ ____
ROOT
ATOM      1  N   UNL     1      -3.085  -0.508  -0.958  0.00  0.00    +0.386 N 
ATOM      2  C   UNL     1      -0.255  -0.180  -0.166  0.00  0.00    +0.150 C 
ATOM      3  C   UNL     1      -1.180  -1.265   0.462  0.00  0.00    +0.020 C 
ATOM      4  C   UNL     1      -0.800   0.202  -1.563  0.00  0.00    +0.022 C 
ATOM      5  C   UNL     1      -2.661  -0.827   0.412  0.00  0.00    -0.074 C 
ATOM      6  C   UNL     1      -2.283   0.584  -1.520  0.00  0.00    -0.074 C 
ATOM      7  C   UNL     1      -4.507  -0.165  -0.988  0.00  0.00    -0.101 C 
ATOM      8  H   UNL     1      -2.936  -1.337  -1.534  0.00  0.00    -0.080 HD
ENDROOT
BRANCH   2   9
ATOM      9  C   UNL     1       1.200  -0.645  -0.268  0.00  0.00    +0.013 C 
ATOM     10  C   UNL     1       1.649  -1.267  -1.430  0.00  0.00    -0.001 C 
ATOM     11  C   UNL     1       2.068  -0.445   0.802  0.00  0.00    -0.001 C 
ATOM     12  C   UNL     1       2.975  -1.691  -1.523  0.00  0.00    -0.000 C 
ATOM     13  C   UNL     1       3.394  -0.868   0.710  0.00  0.00    -0.000 C 
ATOM     14  C   UNL     1       3.847  -1.491  -0.453  0.00  0.00    -0.000 C 
ENDBRANCH   2   9
BRANCH   3  15
ATOM     15  C   UNL     1      -0.808  -1.596   1.915  0.00  0.00    +0.002 C 
ATOM     16  C   UNL     1      -1.648  -2.738   2.446  0.00  0.00    +0.000 C 
ENDBRANCH   3  15
BRANCH   2  17
ATOM     17  O   UNL     1      -0.355   0.992   0.660  0.00  0.00    -0.452 OA
BRANCH  17  19
ATOM     18  O   UNL     1       1.043   2.136  -0.775  0.00  0.00    -0.250 OA
ATOM     19  C   UNL     1       0.351   2.084   0.232  0.00  0.00    +0.317 C 
BRANCH  19  20
ATOM     20  C   UNL     1       0.141   3.223   1.204  0.00  0.00    +0.110 C 
ATOM     21  C   UNL     1       0.912   4.467   0.801  0.00  0.00    +0.012 C 
ENDBRANCH  19  20
ENDBRANCH  17  19
ENDBRANCH   2  17
TORSDOF 5
