REMARK  Name = 1005
REMARK  6 active torsions:
REMARK  status: ('A' for Active; 'I' for Inactive)
REMARK    1  A    between atoms: O_1  and  P_2
REMARK    2  A    between atoms: O_1  and  C_8
REMARK    3  A    between atoms: P_2  and  O_4
REMARK    4  A    between atoms: P_2  and  O_6
REMARK    5  A    between atoms: C_8  and  C_11
REMARK    6  A    between atoms: C_11  and  O_12
REMARK                            x       y       z     vdW  Elec       q    Type
REMARK                         _______ _______ _______ _____ _____    ______ ____
ROOT
ATOM      1  O   UNL     1       0.251  -0.532  -0.069  0.00  0.00    -0.396 OA
ENDROOT
BRANCH   1   2
ATOM      2  P   UNL     1       1.785  -0.070  -0.081  0.00  0.00    +0.528 P 
ATOM      3  O   UNL     1       2.208   0.810  -1.221  0.00  0.00    -0.216 OA
BRANCH   2   4
ATOM      4  O   UNL     1       2.575  -1.480   0.002  0.00  0.00    -0.293 OA
ATOM      5  H   UNL     1       2.248  -1.990   0.759  0.00  0.00    +0.223 HD
ENDBRANCH   2   4
BRANCH   2   6
ATOM      6  O   UNL     1       2.027   0.562   1.388  0.00  0.00    -0.293 OA
ATOM      7  H   UNL     1       1.729  -0.067   2.064  0.00  0.00    +0.223 HD
ENDBRANCH   2   6
ENDBRANCH   1   2
BRANCH   1   8
ATOM      8  C   UNL     1      -0.795   0.368  -0.013  0.00  0.00    +0.224 C 
ATOM      9  C   UNL     1      -0.585   1.691   0.034  0.00  0.00    +0.048 C 
BRANCH   8  11
ATOM     10  O   UNL     1      -3.175   0.447   0.035  0.00  0.00    -0.242 OA
ATOM     11  C   UNL     1      -2.153  -0.222  -0.011  0.00  0.00    +0.373 C 
BRANCH  11  12
ATOM     12  O   UNL     1      -2.139  -1.573  -0.063  0.00  0.00    -0.475 OA
ATOM     13  H   UNL     1      -1.324  -2.032  -0.096  0.00  0.00    +0.296 HD
ENDBRANCH  11  12
ENDBRANCH   8  11
ENDBRANCH   1   8
TORSDOF 6
