REMARK  Name = 4601
REMARK  6 active torsions:
REMARK  status: ('A' for Active; 'I' for Inactive)
REMARK    1  A    between atoms: C_1  and  C_2
REMARK    2  A    between atoms: C_1  and  C_9
REMARK    3  A    between atoms: C_1  and  O_15
REMARK    4  A    between atoms: O_15  and  C_16
REMARK    5  A    between atoms: C_16  and  C_17
REMARK    6  A    between atoms: C_17  and  N_18
REMARK                            x       y       z     vdW  Elec       q    Type
REMARK                         _______ _______ _______ _____ _____    ______ ____
ROOT
ATOM      1  C   UNL     1      -0.420   0.297   0.508  0.00  0.00    +0.159 C 
ENDROOT
BRANCH   1   2
ATOM      2  C   UNL     1      -0.278  -1.118  -0.018  0.00  0.00    +0.005 C 
ATOM      3  C   UNL     1       0.047  -2.151   0.843  0.00  0.00    -0.023 C 
ATOM      4  C   UNL     1      -0.482  -1.337  -1.370  0.00  0.00    -0.002 C 
ATOM      5  C   UNL     1       0.172  -3.444   0.337  0.00  0.00    -0.004 C 
ATOM      6  C   UNL     1       0.269  -1.918   2.301  0.00  0.00    +0.031 C 
ATOM      7  C   UNL     1      -0.357  -2.631  -1.876  0.00  0.00    -0.000 C 
ATOM      8  C   UNL     1      -0.030  -3.684  -1.023  0.00  0.00    -0.000 C 
ENDBRANCH   1   2
BRANCH   1   9
ATOM      9  C   UNL     1      -1.796   0.880   0.267  0.00  0.00    +0.009 C 
ATOM     10  C   UNL     1      -2.812   0.607   1.167  0.00  0.00    -0.002 C 
ATOM     11  C   UNL     1      -2.007   1.673  -0.847  0.00  0.00    -0.002 C 
ATOM     12  C   UNL     1      -4.080   1.145   0.945  0.00  0.00    -0.000 C 
ATOM     13  C   UNL     1      -3.275   2.211  -1.069  0.00  0.00    -0.000 C 
ATOM     14  C   UNL     1      -4.311   1.946  -0.173  0.00  0.00    -0.000 C 
ENDBRANCH   1   9
BRANCH   1  15
ATOM     15  O   UNL     1       0.576   1.160  -0.024  0.00  0.00    -0.350 OA
BRANCH  15  16
ATOM     16  C   UNL     1       1.883   0.640   0.186  0.00  0.00    +0.120 C 
BRANCH  16  17
ATOM     17  C   UNL     1       2.894   1.609  -0.405  0.00  0.00    -0.045 C 
BRANCH  17  18
ATOM     18  N   UNL     1       4.258   1.123  -0.197  0.00  0.00    +0.386 N 
ATOM     19  C   UNL     1       4.523   0.941   1.230  0.00  0.00    -0.101 C 
ATOM     20  C   UNL     1       5.226   2.050  -0.782  0.00  0.00    -0.101 C 
ATOM     21  H   UNL     1       4.353   0.220  -0.661  0.00  0.00    -0.080 HD
ENDBRANCH  17  18
ENDBRANCH  16  17
ENDBRANCH  15  16
ENDBRANCH   1  15
TORSDOF 6
