REMARK  Name = 48194
REMARK  8 active torsions:
REMARK  status: ('A' for Active; 'I' for Inactive)
REMARK    1  A    between atoms: C_1  and  C_2
REMARK    2  A    between atoms: C_1  and  C_8
REMARK    3  A    between atoms: C_1  and  C_15
REMARK    4  A    between atoms: C_1  and  C_19
REMARK    5  A    between atoms: C_15  and  O_16
REMARK    6  A    between atoms: O_16  and  C_17
REMARK    7  A    between atoms: C_19  and  C_20
REMARK    8  A    between atoms: C_20  and  N_22
REMARK                            x       y       z     vdW  Elec       q    Type
REMARK                         _______ _______ _______ _____ _____    ______ ____
ROOT
ATOM      1  C   UNL     1       0.726  -0.077  -0.081  0.00  0.00    +0.125 C 
ENDROOT
BRANCH   1   2
ATOM      2  C   UNL     1       1.171  -1.561  -0.184  0.00  0.00    -0.009 C 
ATOM      3  C   UNL     1       0.730  -2.426   0.775  0.00  0.00    -0.003 C 
ATOM      4  C   UNL     1       1.978  -1.913  -1.228  0.00  0.00    -0.003 C 
ATOM      5  C   UNL     1       1.129  -3.760   0.683  0.00  0.00    -0.000 C 
ATOM      6  C   UNL     1       2.377  -3.246  -1.321  0.00  0.00    -0.000 C 
ATOM      7  C   UNL     1       1.953  -4.169  -0.365  0.00  0.00    -0.000 C 
ENDBRANCH   1   2
BRANCH   1   8
ATOM      8  C   UNL     1       1.795   0.661   0.775  0.00  0.00    -0.009 C 
ATOM      9  C   UNL     1       3.079   0.668   0.315  0.00  0.00    -0.003 C 
ATOM     10  C   UNL     1       1.381   1.255   1.931  0.00  0.00    -0.003 C 
ATOM     11  C   UNL     1       4.038   1.330   1.082  0.00  0.00    -0.000 C 
ATOM     12  C   UNL     1       2.340   1.917   2.697  0.00  0.00    -0.000 C 
ATOM     13  C   UNL     1       3.669   1.954   2.273  0.00  0.00    -0.000 C 
ENDBRANCH   1   8
BRANCH   1  15
ATOM     14  O   UNL     1       0.271  -0.010  -2.509  0.00  0.00    -0.249 OA
ATOM     15  C   UNL     1       0.588   0.582  -1.483  0.00  0.00    +0.324 C 
BRANCH  15  16
ATOM     16  O   UNL     1       0.791   1.934  -1.401  0.00  0.00    -0.448 OA
BRANCH  16  17
ATOM     17  C   UNL     1       0.610   2.665  -2.617  0.00  0.00    +0.209 C 
ATOM     18  C   UNL     1       0.870   4.133  -2.354  0.00  0.00    +0.051 C 
ENDBRANCH  16  17
ENDBRANCH  15  16
ENDBRANCH   1  15
BRANCH   1  19
ATOM     19  C   UNL     1      -0.720   0.096   0.534  0.00  0.00    -0.004 C 
BRANCH  19  20
ATOM     20  C   UNL     1      -1.850  -0.628  -0.219  0.00  0.00    -0.076 C 
BRANCH  20  22
ATOM     21  O   UNL     1      -5.817   0.567   0.451  0.00  0.00    -0.358 OA
ATOM     22  N   UNL     1      -3.131  -0.375   0.437  0.00  0.00    +0.390 N 
ATOM     23  C   UNL     1      -3.442   1.061   0.437  0.00  0.00    -0.045 C 
ATOM     24  C   UNL     1      -4.211  -1.124  -0.220  0.00  0.00    -0.045 C 
ATOM     25  C   UNL     1      -4.787   1.300   1.117  0.00  0.00    +0.119 C 
ATOM     26  C   UNL     1      -5.539  -0.834   0.474  0.00  0.00    +0.119 C 
ATOM     27  H   UNL     1      -3.055  -0.692   1.404  0.00  0.00    -0.079 HD
ENDBRANCH  20  22
ENDBRANCH  19  20
ENDBRANCH   1  19
TORSDOF 8
