REMARK  Name = 42113
REMARK  3 active torsions:
REMARK  status: ('A' for Active; 'I' for Inactive)
REMARK    1  A    between atoms: C_2  and  C_6
REMARK    2  A    between atoms: C_2  and  O_7
REMARK    3  A    between atoms: O_7  and  C_10
REMARK                            x       y       z     vdW  Elec       q    Type
REMARK                         _______ _______ _______ _____ _____    ______ ____
ROOT
ATOM      1  F   UNL     1       0.206  -1.542   0.636  0.00  0.00    -0.194 F 
ATOM      2  C   UNL     1       0.240  -0.472  -0.202  0.00  0.00    +0.378 C 
ENDROOT
BRANCH   2   6
ATOM      3  F   UNL     1       1.675   1.253  -0.905  0.00  0.00    -0.165 F 
ATOM      4  F   UNL     1       2.578  -0.671  -0.420  0.00  0.00    -0.165 F 
ATOM      5  F   UNL     1       1.819   0.612   1.177  0.00  0.00    -0.165 F 
ATOM      6  C   UNL     1       1.590   0.185  -0.083  0.00  0.00    +0.456 C 
ENDBRANCH   2   6
BRANCH   2   7
ATOM      7  O   UNL     1      -0.765   0.446   0.211  0.00  0.00    -0.264 OA
BRANCH   7  10
ATOM      8  F   UNL     1      -2.970   0.815   0.510  0.00  0.00    -0.166 F 
ATOM      9  F   UNL     1      -2.315  -0.495  -1.102  0.00  0.00    -0.166 F 
ATOM     10  C   UNL     1      -2.058  -0.131   0.178  0.00  0.00    +0.452 C 
ENDBRANCH   7  10
ENDBRANCH   2   7
TORSDOF 3
