REMARK  Name = 3380
REMARK  2 active torsions:
REMARK  status: ('A' for Active; 'I' for Inactive)
REMARK    1  A    between atoms: C_6  and  C_15
REMARK    2  A    between atoms: C_11  and  N_23
REMARK                            x       y       z     vdW  Elec       q    Type
REMARK                         _______ _______ _______ _____ _____    ______ ____
ROOT
ATOM      1  O   UNL     1      -0.183   4.419  -0.053  0.00  0.00    -0.272 OA
ATOM      2  N   UNL     1       1.143   2.567  -0.541  0.00  0.00    -0.255 N 
ATOM      3  N   UNL     1      -1.322   1.606   0.951  0.00  0.00    -0.260 NA
ATOM      4  C   UNL     1       0.576   0.239   0.190  0.00  0.00    +0.033 C 
ATOM      5  C   UNL     1       1.492   1.192  -0.302  0.00  0.00    +0.055 C 
ATOM      6  C   UNL     1      -0.874   0.540   0.379  0.00  0.00    +0.080 C 
ATOM      7  C   UNL     1       0.994  -1.076   0.464  0.00  0.00    +0.027 C 
ATOM      8  C   UNL     1      -0.354   2.573   1.424  0.00  0.00    +0.210 C 
ATOM      9  C   UNL     1       2.802   0.754  -0.580  0.00  0.00    +0.017 C 
ATOM     10  C   UNL     1       0.190   3.272   0.203  0.00  0.00    +0.254 C 
ATOM     11  C   UNL     1       2.304  -1.471   0.210  0.00  0.00    +0.143 C 
ATOM     12  C   UNL     1       3.204  -0.559  -0.324  0.00  0.00    +0.025 C 
ATOM     13  C   UNL     1       1.873   3.290  -1.582  0.00  0.00    +0.120 C 
ENDROOT
BRANCH   6  15
ATOM     14  F   UNL     1      -3.404   0.193   1.583  0.00  0.00    -0.204 F 
ATOM     15  C   UNL     1      -1.885  -0.429  -0.134  0.00  0.00    +0.045 C 
ATOM     16  C   UNL     1      -3.112  -0.551   0.506  0.00  0.00    +0.142 C 
ATOM     17  C   UNL     1      -1.586  -1.202  -1.250  0.00  0.00    +0.004 C 
ATOM     18  C   UNL     1      -4.055  -1.459   0.022  0.00  0.00    +0.030 C 
ATOM     19  C   UNL     1      -2.528  -2.109  -1.734  0.00  0.00    +0.000 C 
ATOM     20  C   UNL     1      -3.763  -2.238  -1.097  0.00  0.00    +0.002 C 
ENDBRANCH   6  15
BRANCH  11  23
ATOM     21  O   UNL     1       3.895  -3.139   0.226  0.00  0.00    -0.126 OA
ATOM     22  O   UNL     1       1.881  -3.610   0.961  0.00  0.00    -0.126 OA
ATOM     23  N   UNL     1       2.713  -2.803   0.478  0.00  0.00    +0.058 N 
ENDBRANCH  11  23
TORSDOF 2
