REMARK  Name = 27453
REMARK  10 active torsions:
REMARK  status: ('A' for Active; 'I' for Inactive)
REMARK    1  A    between atoms: C_1  and  C_2
REMARK    2  A    between atoms: C_1  and  C_10
REMARK    3  A    between atoms: C_1  and  C_12
REMARK    4  A    between atoms: C_1  and  C_14
REMARK    5  A    between atoms: C_5  and  O_8
REMARK    6  A    between atoms: C_14  and  N_16
REMARK    7  A    between atoms: C_17  and  C_19
REMARK    8  A    between atoms: C_19  and  C_20
REMARK    9  A    between atoms: C_20  and  C_21
REMARK   10  A    between atoms: C_21  and  O_22
REMARK                            x       y       z     vdW  Elec       q    Type
REMARK                         _______ _______ _______ _____ _____    ______ ____
ROOT
ATOM      1  C   UNL     1      -0.558  -0.444  -0.138  0.00  0.00    +0.037 C 
ENDROOT
BRANCH   1   2
ATOM      2  C   UNL     1      -1.958   0.218  -0.224  0.00  0.00    -0.018 C 
ATOM      3  C   UNL     1      -3.064  -0.412   0.347  0.00  0.00    +0.033 C 
ATOM      4  C   UNL     1      -2.112   1.443  -0.873  0.00  0.00    -0.004 C 
ATOM      5  C   UNL     1      -4.323   0.183   0.270  0.00  0.00    +0.138 C 
ATOM      6  C   UNL     1      -3.371   2.038  -0.951  0.00  0.00    +0.003 C 
ATOM      7  C   UNL     1      -4.476   1.408  -0.380  0.00  0.00    +0.037 C 
BRANCH   5   8
ATOM      8  O   UNL     1      -5.402  -0.431   0.828  0.00  0.00    -0.471 OA
ATOM      9  C   UNL     1      -5.174  -1.681   1.476  0.00  0.00    +0.252 C 
ENDBRANCH   5   8
ENDBRANCH   1   2
BRANCH   1  10
ATOM     10  C   UNL     1      -0.171  -0.615   1.374  0.00  0.00    +0.006 C 
ATOM     11  C   UNL     1      -0.097   0.674   2.187  0.00  0.00    +0.000 C 
ENDBRANCH   1  10
BRANCH   1  12
ATOM     12  C   UNL     1      -0.624  -1.885  -0.758  0.00  0.00    +0.006 C 
ATOM     13  C   UNL     1      -1.043  -1.954  -2.224  0.00  0.00    +0.000 C 
ENDBRANCH   1  12
BRANCH   1  14
ATOM     14  C   UNL     1       0.541   0.384  -0.877  0.00  0.00    +0.093 C 
BRANCH  14  16
ATOM     15  O   UNL     1       2.925   1.554   0.242  0.00  0.00    -0.275 OA
ATOM     16  N   UNL     1       1.856  -0.200  -0.842  0.00  0.00    -0.304 N 
ATOM     17  C   UNL     1       2.952   0.442  -0.278  0.00  0.00    +0.223 C 
ATOM     18  H   UNL     1       1.985  -1.094  -1.235  0.00  0.00    +0.149 HD
BRANCH  17  19
ATOM     19  C   UNL     1       4.206  -0.414  -0.352  0.00  0.00    +0.088 C 
BRANCH  19  20
ATOM     20  C   UNL     1       5.438   0.249   0.256  0.00  0.00    +0.041 C 
BRANCH  20  21
ATOM     21  C   UNL     1       6.684  -0.622   0.155  0.00  0.00    +0.138 C 
BRANCH  21  22
ATOM     22  O   UNL     1       7.771   0.065   0.762  0.00  0.00    -0.382 OA
ATOM     23  H   UNL     1       8.571  -0.480   0.704  0.00  0.00    +0.210 HD
ENDBRANCH  21  22
ENDBRANCH  20  21
ENDBRANCH  19  20
ENDBRANCH  17  19
ENDBRANCH  14  16
ENDBRANCH   1  14
TORSDOF 10
