62281
  -OEChem-10051719373D

 56 58  0     1  0  0  0  0  0999 V2000
   -3.9988   -2.7998    0.1121 O   0  0  0  0  0  0  0  0  0  0  0  0
    1.1921   -0.3625   -0.3616 N   0  0  0  0  0  0  0  0  0  0  0  0
   -3.0164   -0.6450    0.0102 N   0  0  0  0  0  0  0  0  0  0  0  0
   -1.6391   -1.0550   -0.1054 C   0  0  0  0  0  0  0  0  0  0  0  0
   -1.0342   -0.5666   -1.4213 C   0  0  0  0  0  0  0  0  0  0  0  0
   -0.8124   -0.5468    1.0762 C   0  0  0  0  0  0  0  0  0  0  0  0
    0.4543   -0.9080   -1.5092 C   0  0  0  0  0  0  0  0  0  0  0  0
    0.6685   -0.8902    0.9060 C   0  0  0  0  0  0  0  0  0  0  0  0
    2.6201   -0.6542   -0.4862 C   0  0  1  0  0  0  0  0  0  0  0  0
    3.3832    0.0049    0.6774 C   0  0  0  0  0  0  0  0  0  0  0  0
    2.7999   -2.1720   -0.5194 C   0  0  0  0  0  0  0  0  0  0  0  0
   -3.3187    0.7846    0.0250 C   0  0  0  0  0  0  0  0  0  0  0  0
   -4.0985   -1.5702    0.1109 C   0  0  0  0  0  0  0  0  0  0  0  0
    4.8506    0.2194    0.3935 C   0  0  0  0  0  0  0  0  0  0  0  0
   -5.4845   -0.9353    0.1771 C   0  0  0  0  0  0  0  0  0  0  0  0
   -3.3456    1.4122    1.2345 C   0  0  0  0  0  0  0  0  0  0  0  0
   -3.5544    1.3919   -1.1722 C   0  0  0  0  0  0  0  0  0  0  0  0
    5.7582   -0.7750    0.7216 C   0  0  0  0  0  0  0  0  0  0  0  0
    5.2627    1.4070   -0.1897 C   0  0  0  0  0  0  0  0  0  0  0  0
   -6.5989   -1.9635    0.2985 C   0  0  0  0  0  0  0  0  0  0  0  0
   -3.6354    2.7765    1.2482 C   0  0  0  0  0  0  0  0  0  0  0  0
   -3.8443    2.7564   -1.1586 C   0  0  0  0  0  0  0  0  0  0  0  0
    7.1138   -0.5765    0.4596 C   0  0  0  0  0  0  0  0  0  0  0  0
    6.6183    1.6053   -0.4518 C   0  0  0  0  0  0  0  0  0  0  0  0
   -3.8847    3.4487    0.0517 C   0  0  0  0  0  0  0  0  0  0  0  0
    7.5439    0.6136   -0.1272 C   0  0  0  0  0  0  0  0  0  0  0  0
   -1.6038   -2.1519   -0.0996 H   0  0  0  0  0  0  0  0  0  0  0  0
   -1.1155    0.5209   -1.5262 H   0  0  0  0  0  0  0  0  0  0  0  0
   -1.5677   -1.0087   -2.2718 H   0  0  0  0  0  0  0  0  0  0  0  0
   -1.1884   -0.9756    2.0133 H   0  0  0  0  0  0  0  0  0  0  0  0
   -0.8768    0.5424    1.1770 H   0  0  0  0  0  0  0  0  0  0  0  0
    0.5039   -1.9984   -1.5826 H   0  0  0  0  0  0  0  0  0  0  0  0
    0.8491   -0.4918   -2.4440 H   0  0  0  0  0  0  0  0  0  0  0  0
    1.1769   -0.4568    1.7728 H   0  0  0  0  0  0  0  0  0  0  0  0
    0.7470   -1.9793    0.9846 H   0  0  0  0  0  0  0  0  0  0  0  0
    2.9847   -0.2309   -1.4315 H   0  0  0  0  0  0  0  0  0  0  0  0
    3.2986   -0.5833    1.6009 H   0  0  0  0  0  0  0  0  0  0  0  0
    2.9474    0.9874    0.9100 H   0  0  0  0  0  0  0  0  0  0  0  0
    2.3105   -2.6779   -1.3539 H   0  0  0  0  0  0  0  0  0  0  0  0
    2.5459   -2.6810    0.4142 H   0  0  0  0  0  0  0  0  0  0  0  0
    3.8633   -2.3917   -0.6777 H   0  0  0  0  0  0  0  0  0  0  0  0
   -5.5440   -0.2754    1.0479 H   0  0  0  0  0  0  0  0  0  0  0  0
   -5.6614   -0.3529   -0.7324 H   0  0  0  0  0  0  0  0  0  0  0  0
   -3.1651    0.8904    2.1684 H   0  0  0  0  0  0  0  0  0  0  0  0
   -3.5367    0.8548   -2.1145 H   0  0  0  0  0  0  0  0  0  0  0  0
    5.4357   -1.7036    1.1833 H   0  0  0  0  0  0  0  0  0  0  0  0
    4.5496    2.1842   -0.4487 H   0  0  0  0  0  0  0  0  0  0  0  0
   -7.5723   -1.4656    0.3483 H   0  0  0  0  0  0  0  0  0  0  0  0
   -6.4785   -2.5694    1.2026 H   0  0  0  0  0  0  0  0  0  0  0  0
   -6.6057   -2.6403   -0.5623 H   0  0  0  0  0  0  0  0  0  0  0  0
   -3.6702    3.3148    2.1909 H   0  0  0  0  0  0  0  0  0  0  0  0
   -4.0416    3.2789   -2.0900 H   0  0  0  0  0  0  0  0  0  0  0  0
    7.8347   -1.3483    0.7134 H   0  0  0  0  0  0  0  0  0  0  0  0
    6.9532    2.5317   -0.9093 H   0  0  0  0  0  0  0  0  0  0  0  0
   -4.1118    4.5107    0.0625 H   0  0  0  0  0  0  0  0  0  0  0  0
    8.5995    0.7681   -0.3312 H   0  0  0  0  0  0  0  0  0  0  0  0
  1 13  2  0  0  0  0
  2  7  1  0  0  0  0
  2  8  1  0  0  0  0
  2  9  1  0  0  0  0
  3  4  1  0  0  0  0
  3 12  1  0  0  0  0
  3 13  1  0  0  0  0
  4  5  1  0  0  0  0
  4  6  1  0  0  0  0
  4 27  1  0  0  0  0
  5  7  1  0  0  0  0
  5 28  1  0  0  0  0
  5 29  1  0  0  0  0
  6  8  1  0  0  0  0
  6 30  1  0  0  0  0
  6 31  1  0  0  0  0
  7 32  1  0  0  0  0
  7 33  1  0  0  0  0
  8 34  1  0  0  0  0
  8 35  1  0  0  0  0
  9 10  1  0  0  0  0
  9 11  1  0  0  0  0
  9 36  1  0  0  0  0
 10 14  1  0  0  0  0
 10 37  1  0  0  0  0
 10 38  1  0  0  0  0
 11 39  1  0  0  0  0
 11 40  1  0  0  0  0
 11 41  1  0  0  0  0
 12 16  2  0  0  0  0
 12 17  1  0  0  0  0
 13 15  1  0  0  0  0
 14 18  2  0  0  0  0
 14 19  1  0  0  0  0
 15 20  1  0  0  0  0
 15 42  1  0  0  0  0
 15 43  1  0  0  0  0
 16 21  1  0  0  0  0
 16 44  1  0  0  0  0
 17 22  2  0  0  0  0
 17 45  1  0  0  0  0
 18 23  1  0  0  0  0
 18 46  1  0  0  0  0
 19 24  2  0  0  0  0
 19 47  1  0  0  0  0
 20 48  1  0  0  0  0
 20 49  1  0  0  0  0
 20 50  1  0  0  0  0
 21 25  2  0  0  0  0
 21 51  1  0  0  0  0
 22 25  1  0  0  0  0
 22 52  1  0  0  0  0
 23 26  2  0  0  0  0
 23 53  1  0  0  0  0
 24 26  1  0  0  0  0
 24 54  1  0  0  0  0
 25 55  1  0  0  0  0
 26 56  1  0  0  0  0
M  END
> <DATABASE_ID>
DB01557

> <DATABASE_NAME>
drugbank

> <ORIGINAL_SOURCE>
PUBCHEM

> <ORIGINAL_SOURCE_URL>
https://pubchem.ncbi.nlm.nih.gov/rest/pug/compound/inchikey/NGTVDHYUFBKWID-UHFFFAOYSA-N/SDF?record_type=3d

> <SMILES>
CCC(=O)N(C1CCN(CC1)C(C)CC1=CC=CC=C1)C1=CC=CC=C1

> <INCHI_IDENTIFIER>
InChI=1S/C23H30N2O/c1-3-23(26)25(21-12-8-5-9-13-21)22-14-16-24(17-15-22)19(2)18-20-10-6-4-7-11-20/h4-13,19,22H,3,14-18H2,1-2H3

> <INCHI_KEY>
NGTVDHYUFBKWID-UHFFFAOYSA-N

> <FORMULA>
C23H30N2O

> <MOLECULAR_WEIGHT>
350.4971

> <EXACT_MASS>
350.235813592

> <JCHEM_ACCEPTOR_COUNT>
2

> <JCHEM_AVERAGE_POLARIZABILITY>
41.90506511706627

> <JCHEM_BIOAVAILABILITY>
1

> <JCHEM_DONOR_COUNT>
0

> <JCHEM_FORMAL_CHARGE>
0

> <JCHEM_GHOSE_FILTER>
1

> <JCHEM_IUPAC>
N-phenyl-N-[1-(1-phenylpropan-2-yl)piperidin-4-yl]propanamide

> <ALOGPS_LOGP>
4.49

> <JCHEM_LOGP>
4.232073573

> <ALOGPS_LOGS>
-4.40

> <JCHEM_MDDR_LIKE_RULE>
1

> <JCHEM_NUMBER_OF_RINGS>
3

> <JCHEM_PHYSIOLOGICAL_CHARGE>
1

> <JCHEM_PKA_STRONGEST_BASIC>
9.004906222646257

> <JCHEM_POLAR_SURFACE_AREA>
23.550000000000004

> <JCHEM_REFRACTIVITY>
107.90130000000003

> <JCHEM_ROTATABLE_BOND_COUNT>
6

> <JCHEM_RULE_OF_FIVE>
1

> <ALOGPS_SOLUBILITY>
1.40e-02 g/l

> <JCHEM_TRADITIONAL_IUPAC>
α-methylfentanyl

> <JCHEM_VEBER_RULE>
1

> <DRUGBANK_ID>
DB01557

> <DRUG_GROUPS>
illicit

> <GENERIC_NAME>
α-Methylfentanyl

> <SYNONYMS>
alpha-methylfentanyl

$$$$
