REMARK  Name = 5288801
REMARK  11 active torsions:
REMARK  status: ('A' for Active; 'I' for Inactive)
REMARK    1  A    between atoms: C_1  and  C_4
REMARK    2  A    between atoms: C_2  and  C_16
REMARK    3  A    between atoms: C_4  and  C_6
REMARK    4  A    between atoms: C_6  and  O_7
REMARK    5  A    between atoms: C_6  and  C_9
REMARK    6  A    between atoms: C_9  and  C_10
REMARK    7  A    between atoms: C_17  and  C_18
REMARK    8  A    between atoms: C_18  and  N_19
REMARK    9  A    between atoms: C_18  and  C_23
REMARK   10  A    between atoms: C_23  and  C_26
REMARK   11  A    between atoms: C_26  and  O_27
REMARK                            x       y       z     vdW  Elec       q    Type
REMARK                         _______ _______ _______ _____ _____    ______ ____
ROOT
ATOM      1  C   UNL     1       0.149  -0.218   0.784  0.00  0.00    -0.028 C 
ATOM      2  C   UNL     1       1.286  -0.869   0.463  0.00  0.00    -0.026 C 
ATOM      3  C   UNL     1       1.580  -2.312   0.771  0.00  0.00    +0.031 C 
ENDROOT
BRANCH   1   4
ATOM      4  C   UNL     1      -1.036  -0.746   1.566  0.00  0.00    +0.049 C 
ATOM      5  C   UNL     1      -1.176   0.040   2.875  0.00  0.00    +0.007 C 
BRANCH   4   6
ATOM      6  C   UNL     1      -2.349  -0.724   0.744  0.00  0.00    +0.124 C 
BRANCH   6   7
ATOM      7  O   UNL     1      -2.212  -1.625  -0.360  0.00  0.00    -0.353 OA
ATOM      8  C   UNL     1      -1.895  -2.933   0.085  0.00  0.00    +0.174 C 
ENDBRANCH   6   7
BRANCH   6   9
ATOM      9  C   UNL     1      -2.744   0.655   0.189  0.00  0.00    +0.056 C 
BRANCH   9  10
ATOM     10  C   UNL     1      -4.198   0.703  -0.224  0.00  0.00    -0.020 C 
ATOM     11  C   UNL     1      -4.544   0.364  -1.521  0.00  0.00    -0.004 C 
ATOM     12  C   UNL     1      -5.153   1.085   0.703  0.00  0.00    -0.004 C 
ATOM     13  C   UNL     1      -5.885   0.408  -1.903  0.00  0.00    -0.000 C 
ATOM     14  C   UNL     1      -6.494   1.129   0.321  0.00  0.00    -0.000 C 
ATOM     15  C   UNL     1      -6.859   0.791  -0.982  0.00  0.00    -0.000 C 
ENDBRANCH   9  10
ENDBRANCH   6   9
ENDBRANCH   4   6
ENDBRANCH   1   4
BRANCH   2  16
ATOM     16  C   UNL     1       2.343  -0.214  -0.299  0.00  0.00    -0.011 C 
ATOM     17  C   UNL     1       3.502  -0.789  -0.660  0.00  0.00    -0.048 C 
BRANCH  17  18
ATOM     18  C   UNL     1       4.566  -0.086  -1.474  0.00  0.00    -0.032 C 
BRANCH  18  19
ATOM     19  N   UNL     1       5.245  -1.079  -2.317  0.00  0.00    +0.385 N 
ATOM     20  H   UNL     1       5.965  -0.617  -2.872  0.00  0.00    -0.089 HD
ATOM     21  H   UNL     1       4.566  -1.519  -2.939  0.00  0.00    -0.089 HD
ATOM     22  H   UNL     1       5.675  -1.790  -1.726  0.00  0.00    -0.089 HD
ENDBRANCH  18  19
BRANCH  18  23
ATOM     23  C   UNL     1       5.575   0.640  -0.544  0.00  0.00    +0.083 C 
ATOM     24  C   UNL     1       6.292  -0.300   0.429  0.00  0.00    +0.010 C 
BRANCH  23  26
ATOM     25  O   UNL     1       4.858   1.722   1.521  0.00  0.00    -0.250 OA
ATOM     26  C   UNL     1       4.871   1.700   0.297  0.00  0.00    +0.311 C 
BRANCH  26  27
ATOM     27  O   UNL     1       4.279   2.656  -0.463  0.00  0.00    -0.480 OA
ATOM     28  H   UNL     1       4.313   2.600  -1.398  0.00  0.00    +0.295 HD
ENDBRANCH  26  27
ENDBRANCH  23  26
ENDBRANCH  18  23
ENDBRANCH  17  18
ENDBRANCH   2  16
TORSDOF 11
