REMARK  Name = 447583
REMARK  6 active torsions:
REMARK  status: ('A' for Active; 'I' for Inactive)
REMARK    1  A    between atoms: C_1  and  O_3
REMARK    2  A    between atoms: C_1  and  C_5
REMARK    3  A    between atoms: C_1  and  C_10
REMARK    4  A    between atoms: C_5  and  C_6
REMARK    5  A    between atoms: C_6  and  O_8
REMARK    6  A    between atoms: C_10  and  O_11
REMARK                            x       y       z     vdW  Elec       q    Type
REMARK                         _______ _______ _______ _____ _____    ______ ____
ROOT
ATOM      1  C   UNL     1      -0.841   0.381  -0.160  0.00  0.00    +0.118 C 
ATOM      2  C   UNL     1      -0.792   1.623  -1.053  0.00  0.00    +0.032 C 
ENDROOT
BRANCH   1   3
ATOM      3  O   UNL     1      -0.833   0.837   1.195  0.00  0.00    -0.384 OA
ATOM      4  H   UNL     1      -0.863   0.075   1.794  0.00  0.00    +0.210 HD
ENDBRANCH   1   3
BRANCH   1   5
ATOM      5  C   UNL     1       0.363  -0.565  -0.398  0.00  0.00    +0.059 C 
BRANCH   5   6
ATOM      6  C   UNL     1       1.756   0.060  -0.209  0.00  0.00    +0.113 C 
ATOM      7  C   UNL     1       2.853  -0.944  -0.546  0.00  0.00    +0.032 C 
BRANCH   6   8
ATOM      8  O   UNL     1       1.920   0.475   1.142  0.00  0.00    -0.384 OA
ATOM      9  H   UNL     1       1.228   1.115   1.371  0.00  0.00    +0.210 HD
ENDBRANCH   6   8
ENDBRANCH   5   6
ENDBRANCH   1   5
BRANCH   1  10
ATOM     10  C   UNL     1      -2.174  -0.352  -0.393  0.00  0.00    +0.164 C 
BRANCH  10  11
ATOM     11  O   UNL     1      -2.253  -1.516   0.422  0.00  0.00    -0.380 OA
ATOM     12  H   UNL     1      -3.097  -1.966   0.263  0.00  0.00    +0.211 HD
ENDBRANCH  10  11
ENDBRANCH   1  10
TORSDOF 6
