REMARK  Name = 6105620
REMARK  4 active torsions:
REMARK  status: ('A' for Active; 'I' for Inactive)
REMARK    1  A    between atoms: N_2  and  C_7
REMARK    2  A    between atoms: N_3  and  C_21
REMARK    3  A    between atoms: C_9  and  C_29
REMARK    4  A    between atoms: C_30  and  C_31
REMARK                            x       y       z     vdW  Elec       q    Type
REMARK                         _______ _______ _______ _____ _____    ______ ____
ROOT
ATOM      1  N   UNL     1      -0.458   0.907  -0.080  0.00  0.00    -0.086 NA
ATOM      2  N   UNL     1      -0.098  -0.439  -0.514  0.00  0.00    -0.132 N 
ATOM      3  N   UNL     1      -1.867   0.882   0.126  0.00  0.00    -0.240 N 
ATOM      4  N   UNL     1      -1.261  -1.186  -0.649  0.00  0.00    -0.146 NA
ATOM      5  C   UNL     1      -2.243  -0.382  -0.272  0.00  0.00    +0.162 C 
ATOM      6  H   UNL     1      -2.441   1.603   0.473  0.00  0.00    +0.170 HD
ENDROOT
BRANCH   2  11
ATOM      7  O   UNL     1       3.091  -2.609   2.829  0.00  0.00    -0.220 OA
ATOM      8  O   UNL     1       5.527  -3.202  -1.725  0.00  0.00    -0.220 OA
ATOM      9  N   UNL     1       4.880  -3.358   1.629  0.00  0.00    -0.062 NA
ATOM     10  N   UNL     1       5.465  -3.500   0.536  0.00  0.00    -0.062 NA
ATOM     11  C   UNL     1       1.154  -1.086  -0.563  0.00  0.00    +0.089 C 
ATOM     12  C   UNL     1       1.757  -1.577   0.609  0.00  0.00    +0.030 C 
ATOM     13  C   UNL     1       1.828  -1.255  -1.786  0.00  0.00    +0.019 C 
ATOM     14  C   UNL     1       2.998  -2.217   0.550  0.00  0.00    +0.097 C 
ATOM     15  C   UNL     1       3.646  -2.374  -0.660  0.00  0.00    +0.096 C 
ATOM     16  C   UNL     1       3.067  -1.895  -1.839  0.00  0.00    +0.014 C 
ATOM     17  C   UNL     1       3.659  -2.742   1.749  0.00  0.00    +0.174 C 
ATOM     18  C   UNL     1       4.945  -3.055  -0.654  0.00  0.00    +0.174 C 
ENDBRANCH   2  11
BRANCH   1  21
ATOM     19  S   UNL     1      -0.455   3.553   0.321  0.00  0.00    -0.074 S 
ATOM     20  N   UNL     1       1.605   2.025  -0.218  0.00  0.00    -0.310 N 
ATOM     21  C   UNL     1       0.282   1.992  -0.026  0.00  0.00    +0.222 C 
ATOM     22  C   UNL     1       2.116   3.278  -0.104  0.00  0.00    +0.052 C 
ATOM     23  C   UNL     1       1.168   4.265   0.188  0.00  0.00    +0.041 C 
ATOM     24  C   UNL     1       3.455   3.609  -0.253  0.00  0.00    +0.015 C 
ATOM     25  C   UNL     1       1.532   5.593   0.336  0.00  0.00    +0.007 C 
ATOM     26  C   UNL     1       3.834   4.945  -0.106  0.00  0.00    +0.001 C 
ATOM     27  C   UNL     1       2.879   5.930   0.186  0.00  0.00    +0.001 C 
ATOM     28  H   UNL     1       2.149   1.229  -0.420  0.00  0.00    +0.149 HD
ENDBRANCH   1  21
BRANCH   5  29
ATOM     29  C   UNL     1      -3.640  -0.840  -0.294  0.00  0.00    +0.037 C 
ATOM     30  C   UNL     1      -4.636  -0.059   0.090  0.00  0.00    +0.003 C 
BRANCH  30  31
ATOM     31  C   UNL     1      -6.049  -0.476   0.095  0.00  0.00    +0.000 C 
ATOM     32  C   UNL     1      -6.442  -1.552  -0.686  0.00  0.00    +0.000 C 
ATOM     33  C   UNL     1      -6.958   0.215   0.879  0.00  0.00    +0.000 C 
ATOM     34  C   UNL     1      -7.780  -1.947  -0.681  0.00  0.00    +0.000 C 
ATOM     35  C   UNL     1      -8.296  -0.180   0.884  0.00  0.00    +0.000 C 
ATOM     36  C   UNL     1      -8.707  -1.261   0.104  0.00  0.00    +0.000 C 
ENDBRANCH  30  31
ENDBRANCH   5  29
TORSDOF 4
