REMARK  Name = 637540
REMARK  4 active torsions:
REMARK  status: ('A' for Active; 'I' for Inactive)
REMARK    1  A    between atoms: C_1  and  C_9
REMARK    2  A    between atoms: C_2  and  O_7
REMARK    3  A    between atoms: C_10  and  C_12
REMARK    4  A    between atoms: C_12  and  O_13
REMARK                            x       y       z     vdW  Elec       q    Type
REMARK                         _______ _______ _______ _____ _____    ______ ____
ROOT
ATOM      1  C   UNL     1      -0.652  -0.011   0.124  0.00  0.00    +0.034 C 
ATOM      2  C   UNL     1      -1.602   0.991  -0.079  0.00  0.00    +0.134 C 
ATOM      3  C   UNL     1      -1.054  -1.342   0.229  0.00  0.00    +0.003 C 
ATOM      4  C   UNL     1      -2.954   0.661  -0.176  0.00  0.00    +0.037 C 
ATOM      5  C   UNL     1      -2.406  -1.672   0.133  0.00  0.00    +0.000 C 
ATOM      6  C   UNL     1      -3.356  -0.671  -0.070  0.00  0.00    +0.003 C 
ENDROOT
BRANCH   2   7
ATOM      7  O   UNL     1      -1.236   2.300  -0.186  0.00  0.00    -0.506 OA
ATOM      8  H   UNL     1      -0.333   2.541  -0.123  0.00  0.00    +0.292 HD
ENDBRANCH   2   7
BRANCH   1   9
ATOM      9  C   UNL     1       0.765   0.308   0.228  0.00  0.00    +0.010 C 
ATOM     10  C   UNL     1       1.776  -0.498  -0.163  0.00  0.00    +0.082 C 
BRANCH  10  12
ATOM     11  O   UNL     1       3.552   1.009   0.456  0.00  0.00    -0.245 OA
ATOM     12  C   UNL     1       3.175  -0.052  -0.013  0.00  0.00    +0.338 C 
BRANCH  12  13
ATOM     13  O   UNL     1       3.993  -1.023  -0.483  0.00  0.00    -0.477 OA
ATOM     14  H   UNL     1       3.629  -1.814  -0.830  0.00  0.00    +0.295 HD
ENDBRANCH  12  13
ENDBRANCH  10  12
ENDBRANCH   1   9
TORSDOF 4
