REMARK  Name = 441457
REMARK  4 active torsions:
REMARK  status: ('A' for Active; 'I' for Inactive)
REMARK    1  A    between atoms: C_1  and  C_2
REMARK    2  A    between atoms: C_1  and  O_8
REMARK    3  A    between atoms: C_1  and  C_10
REMARK    4  A    between atoms: C_10  and  N_12
REMARK                            x       y       z     vdW  Elec       q    Type
REMARK                         _______ _______ _______ _____ _____    ______ ____
ROOT
ATOM      1  C   UNL     1      -1.141   0.373  -0.564  0.00  0.00    +0.113 C 
ENDROOT
BRANCH   1   2
ATOM      2  C   UNL     1       0.329   0.163  -0.270  0.00  0.00    +0.002 C 
ATOM      3  C   UNL     1       1.004   1.097   0.496  0.00  0.00    -0.002 C 
ATOM      4  C   UNL     1       0.964  -0.958  -0.773  0.00  0.00    -0.002 C 
ATOM      5  C   UNL     1       2.358   0.903   0.768  0.00  0.00    -0.000 C 
ATOM      6  C   UNL     1       2.319  -1.152  -0.502  0.00  0.00    -0.000 C 
ATOM      7  C   UNL     1       3.016  -0.222   0.269  0.00  0.00    -0.000 C 
ENDBRANCH   1   2
BRANCH   1   8
ATOM      8  O   UNL     1      -1.352   1.787  -0.621  0.00  0.00    -0.382 OA
ATOM      9  H   UNL     1      -2.287   1.967  -0.809  0.00  0.00    +0.211 HD
ENDBRANCH   1   8
BRANCH   1  10
ATOM     10  C   UNL     1      -2.083  -0.258   0.486  0.00  0.00    -0.034 C 
ATOM     11  C   UNL     1      -1.936  -1.778   0.570  0.00  0.00    -0.021 C 
BRANCH  10  12
ATOM     12  N   UNL     1      -3.478   0.045   0.141  0.00  0.00    +0.384 N 
ATOM     13  H   UNL     1      -3.601   1.055   0.079  0.00  0.00    -0.089 HD
ATOM     14  H   UNL     1      -4.095  -0.330   0.862  0.00  0.00    -0.089 HD
ATOM     15  H   UNL     1      -3.706  -0.381  -0.757  0.00  0.00    -0.089 HD
ENDBRANCH  10  12
ENDBRANCH   1  10
TORSDOF 4
