REMARK  Name = 62516
REMARK  9 active torsions:
REMARK  status: ('A' for Active; 'I' for Inactive)
REMARK    1  A    between atoms: N_1  and  C_19
REMARK    2  A    between atoms: C_2  and  C_8
REMARK    3  A    between atoms: C_2  and  C_15
REMARK    4  A    between atoms: C_15  and  O_16
REMARK    5  A    between atoms: O_16  and  C_17
REMARK    6  A    between atoms: C_19  and  C_20
REMARK    7  A    between atoms: C_20  and  O_21
REMARK    8  A    between atoms: O_21  and  C_22
REMARK    9  A    between atoms: C_22  and  C_23
REMARK                            x       y       z     vdW  Elec       q    Type
REMARK                         _______ _______ _______ _____ _____    ______ ____
ROOT
ATOM      1  N   UNL     1      -0.132   0.544  -0.668  0.00  0.00    +0.389 N 
ATOM      2  C   UNL     1       2.839   0.483  -0.393  0.00  0.00    +0.104 C 
ATOM      3  C   UNL     1       2.087   0.625  -1.743  0.00  0.00    -0.008 C 
ATOM      4  C   UNL     1       1.879   1.016   0.704  0.00  0.00    -0.008 C 
ATOM      5  C   UNL     1       0.707  -0.040  -1.720  0.00  0.00    -0.076 C 
ATOM      6  C   UNL     1       0.483   0.380   0.654  0.00  0.00    -0.076 C 
ATOM      7  H   UNL     1      -0.216   1.543  -0.852  0.00  0.00    -0.080 HD
ENDROOT
BRANCH   2   8
ATOM      8  C   UNL     1       3.391  -0.934  -0.175  0.00  0.00    -0.013 C 
ATOM      9  C   UNL     1       2.999  -1.671   0.942  0.00  0.00    -0.004 C 
ATOM     10  C   UNL     1       4.284  -1.483  -1.095  0.00  0.00    -0.004 C 
ATOM     11  C   UNL     1       3.500  -2.957   1.140  0.00  0.00    -0.000 C 
ATOM     12  C   UNL     1       4.785  -2.770  -0.897  0.00  0.00    -0.000 C 
ATOM     13  C   UNL     1       4.394  -3.507   0.220  0.00  0.00    -0.000 C 
ENDBRANCH   2   8
BRANCH   2  15
ATOM     14  O   UNL     1       4.305   2.144  -1.370  0.00  0.00    -0.250 OA
ATOM     15  C   UNL     1       4.019   1.432  -0.418  0.00  0.00    +0.320 C 
BRANCH  15  16
ATOM     16  O   UNL     1       4.688   1.358   0.768  0.00  0.00    -0.448 OA
BRANCH  16  17
ATOM     17  C   UNL     1       5.833   2.208   0.882  0.00  0.00    +0.209 C 
ATOM     18  C   UNL     1       6.461   2.011   2.245  0.00  0.00    +0.051 C 
ENDBRANCH  16  17
ENDBRANCH  15  16
ENDBRANCH   2  15
BRANCH   1  19
ATOM     19  C   UNL     1      -1.470  -0.047  -0.689  0.00  0.00    -0.045 C 
BRANCH  19  20
ATOM     20  C   UNL     1      -2.489   0.910  -0.094  0.00  0.00    +0.120 C 
BRANCH  20  21
ATOM     21  O   UNL     1      -3.774   0.304  -0.151  0.00  0.00    -0.351 OA
BRANCH  21  22
ATOM     22  C   UNL     1      -4.772   1.143   0.412  0.00  0.00    +0.168 C 
BRANCH  22  23
ATOM     23  C   UNL     1      -6.101   0.452   0.324  0.00  0.00    +0.007 C 
ATOM     24  C   UNL     1      -6.907   0.631  -0.801  0.00  0.00    -0.002 C 
ATOM     25  C   UNL     1      -6.530  -0.371   1.365  0.00  0.00    -0.002 C 
ATOM     26  C   UNL     1      -8.142  -0.012  -0.883  0.00  0.00    -0.000 C 
ATOM     27  C   UNL     1      -7.765  -1.015   1.282  0.00  0.00    -0.000 C 
ATOM     28  C   UNL     1      -8.571  -0.835   0.158  0.00  0.00    -0.000 C 
ENDBRANCH  22  23
ENDBRANCH  21  22
ENDBRANCH  20  21
ENDBRANCH  19  20
ENDBRANCH   1  19
TORSDOF 9
