REMARK  Name = 33166
REMARK  2 active torsions:
REMARK  status: ('A' for Active; 'I' for Inactive)
REMARK    1  A    between atoms: C_3  and  C_7
REMARK    2  A    between atoms: C_4  and  O_10
REMARK                            x       y       z     vdW  Elec       q    Type
REMARK                         _______ _______ _______ _____ _____    ______ ____
ROOT
ATOM      1  N   UNL     1      -0.686   1.498   0.001  0.00  0.00    -0.242 NA
ATOM      2  N   UNL     1       1.881   0.367   0.000  0.00  0.00    -0.207 NA
ATOM      3  C   UNL     1      -0.471   0.179   0.001  0.00  0.00    +0.112 C 
ATOM      4  C   UNL     1       0.767  -0.392   0.001  0.00  0.00    +0.239 C 
ATOM      5  C   UNL     1       0.428   2.256   0.000  0.00  0.00    +0.119 C 
ATOM      6  C   UNL     1       1.689   1.701   0.000  0.00  0.00    +0.123 C 
ENDROOT
BRANCH   3   7
ATOM      7  C   UNL     1      -1.714  -0.691  -0.001  0.00  0.00    +0.045 C 
ATOM      8  C   UNL     1      -2.555  -0.471  -1.261  0.00  0.00    +0.006 C 
ATOM      9  C   UNL     1      -2.555  -0.474   1.260  0.00  0.00    +0.006 C 
ENDBRANCH   3   7
BRANCH   4  10
ATOM     10  O   UNL     1       0.938  -1.748   0.000  0.00  0.00    -0.455 OA
ATOM     11  C   UNL     1       2.280  -2.227  -0.001  0.00  0.00    +0.254 C 
ENDBRANCH   4  10
TORSDOF 2
