REMARK  Name = 46936196
REMARK  9 active torsions:
REMARK  status: ('A' for Active; 'I' for Inactive)
REMARK    1  A    between atoms: N_2  and  C_21
REMARK    2  A    between atoms: C_3  and  C_7
REMARK    3  A    between atoms: N_6  and  S_11
REMARK    4  A    between atoms: S_11  and  C_14
REMARK    5  A    between atoms: C_21  and  C_23
REMARK    6  A    between atoms: C_21  and  C_27
REMARK    7  A    between atoms: C_23  and  O_24
REMARK    8  A    between atoms: O_24  and  C_25
REMARK    9  A    between atoms: C_27  and  C_28
REMARK                            x       y       z     vdW  Elec       q    Type
REMARK                         _______ _______ _______ _____ _____    ______ ____
ROOT
ATOM      1  O   UNL     1      -1.422   1.275  -1.718  0.00  0.00    -0.274 OA
ATOM      2  N   UNL     1      -1.838   0.159   0.282  0.00  0.00    -0.295 N 
ATOM      3  C   UNL     1      -1.077   0.911  -0.597  0.00  0.00    +0.240 C 
ATOM      4  H   UNL     1      -1.451  -0.072   1.157  0.00  0.00    +0.150 HD
ENDROOT
BRANCH   3   7
ATOM      5  S   UNL     1       0.025   4.075  -0.342  0.00  0.00    -0.137 S 
ATOM      6  N   UNL     1       1.196   1.242  -1.176  0.00  0.00    -0.146 NA
ATOM      7  C   UNL     1       0.255   1.278  -0.022  0.00  0.00    +0.166 C 
ATOM      8  C   UNL     1       2.061   2.438  -1.341  0.00  0.00    +0.108 C 
ATOM      9  C   UNL     1       0.206   2.608   0.720  0.00  0.00    +0.085 C 
ATOM     10  C   UNL     1       1.207   3.655  -1.658  0.00  0.00    +0.077 C 
BRANCH   6  11
ATOM     11  S   UNL     1       1.929  -0.269  -1.513  0.00  0.00    +0.064 S 
ATOM     12  O   UNL     1       2.521  -0.208  -2.827  0.00  0.00    -0.153 OA
ATOM     13  O   UNL     1       1.007  -1.315  -1.145  0.00  0.00    -0.153 OA
BRANCH  11  14
ATOM     14  C   UNL     1       3.229  -0.236  -0.323  0.00  0.00    +0.122 C 
ATOM     15  C   UNL     1       3.018  -0.755   0.955  0.00  0.00    +0.020 C 
ATOM     16  C   UNL     1       4.468   0.311  -0.658  0.00  0.00    +0.020 C 
ATOM     17  C   UNL     1       4.046  -0.726   1.897  0.00  0.00    -0.003 C 
ATOM     18  C   UNL     1       5.495   0.340   0.285  0.00  0.00    -0.003 C 
ATOM     19  C   UNL     1       5.285  -0.179   1.563  0.00  0.00    -0.022 C 
ATOM     20  C   UNL     1       6.383  -0.148   2.571  0.00  0.00    +0.031 C 
ENDBRANCH  11  14
ENDBRANCH   6  11
ENDBRANCH   3   7
BRANCH   2  21
ATOM     21  C   UNL     1      -3.173  -0.303  -0.024  0.00  0.00    +0.176 C 
BRANCH  21  23
ATOM     22  O   UNL     1      -5.421   0.582   0.021  0.00  0.00    -0.248 OA
ATOM     23  C   UNL     1      -4.235   0.741   0.294  0.00  0.00    +0.335 C 
BRANCH  23  24
ATOM     24  O   UNL     1      -3.707   1.847   0.888  0.00  0.00    -0.447 OA
BRANCH  24  25
ATOM     25  C   UNL     1      -4.638   2.887   1.204  0.00  0.00    +0.209 C 
ATOM     26  C   UNL     1      -3.894   4.035   1.852  0.00  0.00    +0.051 C 
ENDBRANCH  24  25
ENDBRANCH  23  24
ENDBRANCH  21  23
BRANCH  21  27
ATOM     27  C   UNL     1      -3.467  -1.649   0.656  0.00  0.00    +0.057 C 
BRANCH  27  28
ATOM     28  C   UNL     1      -2.484  -2.750   0.328  0.00  0.00    -0.020 C 
ATOM     29  C   UNL     1      -2.710  -3.586  -0.766  0.00  0.00    -0.004 C 
ATOM     30  C   UNL     1      -1.350  -2.931   1.120  0.00  0.00    -0.004 C 
ATOM     31  C   UNL     1      -1.803  -4.601  -1.068  0.00  0.00    -0.000 C 
ATOM     32  C   UNL     1      -0.442  -3.946   0.818  0.00  0.00    -0.000 C 
ATOM     33  C   UNL     1      -0.669  -4.781  -0.276  0.00  0.00    -0.000 C 
ENDBRANCH  27  28
ENDBRANCH  21  27
ENDBRANCH   2  21
TORSDOF 9
