REMARK  Name = 2161
REMARK  3 active torsions:
REMARK  status: ('A' for Active; 'I' for Inactive)
REMARK    1  A    between atoms: C_4  and  C_19
REMARK    2  A    between atoms: C_14  and  C_23
REMARK    3  A    between atoms: C_23  and  O_24
REMARK                            x       y       z     vdW  Elec       q    Type
REMARK                         _______ _______ _______ _____ _____    ______ ____
ROOT
ATOM      1  O   UNL     1       0.084   1.868  -0.053  0.00  0.00    -0.430 OA
ATOM      2  O   UNL     1       0.381  -2.207   0.075  0.00  0.00    -0.290 OA
ATOM      3  N   UNL     1      -2.207   1.777  -0.050  0.00  0.00    -0.355 NA
ATOM      4  C   UNL     1       3.883   0.161   0.001  0.00  0.00    -0.022 C 
ATOM      5  C   UNL     1       1.488  -0.129   0.010  0.00  0.00    +0.070 C 
ATOM      6  C   UNL     1       2.771  -0.682   0.027  0.00  0.00    +0.002 C 
ATOM      7  C   UNL     1       1.312   1.254  -0.034  0.00  0.00    +0.151 C 
ATOM      8  C   UNL     1       3.712   1.544  -0.043  0.00  0.00    -0.001 C 
ATOM      9  C   UNL     1      -1.003  -0.305   0.015  0.00  0.00    +0.173 C 
ATOM     10  C   UNL     1       0.297  -0.988   0.037  0.00  0.00    +0.190 C 
ATOM     11  C   UNL     1       2.429   2.091  -0.061  0.00  0.00    +0.037 C 
ATOM     12  C   UNL     1      -1.046   1.082  -0.029  0.00  0.00    +0.269 C 
ATOM     13  C   UNL     1      -2.199  -1.019   0.038  0.00  0.00    +0.002 C 
ATOM     14  C   UNL     1      -3.402  -0.325   0.016  0.00  0.00    +0.116 C 
ATOM     15  C   UNL     1      -3.353   1.058  -0.028  0.00  0.00    +0.186 C 
ATOM     16  N   UNL     1      -4.577   1.772  -0.050  0.00  0.00    -0.333 N 
ATOM     17  H   UNL     1      -4.573   2.757  -0.081  0.00  0.00    +0.145 HD
ATOM     18  H   UNL     1      -5.432   1.284  -0.035  0.00  0.00    +0.145 HD
ENDROOT
BRANCH   4  19
ATOM     19  C   UNL     1       5.257  -0.419   0.020  0.00  0.00    +0.022 C 
ATOM     20  C   UNL     1       5.543  -1.297  -1.213  0.00  0.00    +0.005 C 
ATOM     21  C   UNL     1       5.542  -1.217   1.306  0.00  0.00    +0.005 C 
ENDBRANCH   4  19
BRANCH  14  23
ATOM     22  O   UNL     1      -5.714  -0.666   0.530  0.00  0.00    -0.245 OA
ATOM     23  C   UNL     1      -4.655  -1.068   0.039  0.00  0.00    +0.342 C 
BRANCH  23  24
ATOM     24  O   UNL     1      -4.545  -2.288  -0.553  0.00  0.00    -0.477 OA
ATOM     25  H   UNL     1      -3.725  -2.560  -0.915  0.00  0.00    +0.295 HD
ENDBRANCH  23  24
ENDBRANCH  14  23
TORSDOF 3
