REMARK  Name = 5426
REMARK  1 active torsions:
REMARK  status: ('A' for Active; 'I' for Inactive)
REMARK    1  A    between atoms: N_3  and  C_15
REMARK                            x       y       z     vdW  Elec       q    Type
REMARK                         _______ _______ _______ _____ _____    ______ ____
ROOT
ATOM      1  O   UNL     1       0.938   2.565  -0.028  0.00  0.00    -0.269 OA
ATOM      2  O   UNL     1       0.058  -1.976   0.236  0.00  0.00    -0.269 OA
ATOM      3  N   UNL     1       0.077   0.378   0.119  0.00  0.00    -0.216 N 
ATOM      4  C   UNL     1       1.047   1.355   0.036  0.00  0.00    +0.255 C 
ATOM      5  C   UNL     1       0.609  -0.893   0.167  0.00  0.00    +0.255 C 
ATOM      6  C   UNL     1       2.325   0.644   0.041  0.00  0.00    +0.058 C 
ATOM      7  C   UNL     1       2.060  -0.715   0.120  0.00  0.00    +0.058 C 
ATOM      8  C   UNL     1       3.613   1.135  -0.021  0.00  0.00    +0.005 C 
ATOM      9  C   UNL     1       3.070  -1.656   0.142  0.00  0.00    +0.005 C 
ATOM     10  C   UNL     1       4.652   0.200   0.001  0.00  0.00    +0.000 C 
ATOM     11  C   UNL     1       4.383  -1.181   0.081  0.00  0.00    +0.000 C 
ENDROOT
BRANCH   3  15
ATOM     12  O   UNL     1      -1.363  -0.057  -2.158  0.00  0.00    -0.273 OA
ATOM     13  O   UNL     1      -5.311  -0.503   0.169  0.00  0.00    -0.275 OA
ATOM     14  N   UNL     1      -3.310  -0.292  -0.956  0.00  0.00    -0.254 N 
ATOM     15  C   UNL     1      -1.335   0.654   0.152  0.00  0.00    +0.160 C 
ATOM     16  C   UNL     1      -1.969   0.100   1.417  0.00  0.00    +0.039 C 
ATOM     17  C   UNL     1      -3.460   0.385   1.401  0.00  0.00    +0.088 C 
ATOM     18  C   UNL     1      -1.966   0.051  -1.091  0.00  0.00    +0.247 C 
ATOM     19  C   UNL     1      -4.120  -0.193   0.172  0.00  0.00    +0.228 C 
ATOM     20  H   UNL     1      -3.743  -0.652  -1.763  0.00  0.00    +0.158 HD
ENDBRANCH   3  15
TORSDOF 1
