REMARK  Name = 5468
REMARK  5 active torsions:
REMARK  status: ('A' for Active; 'I' for Inactive)
REMARK    1  A    between atoms: C_2  and  C_14
REMARK    2  A    between atoms: C_3  and  C_7
REMARK    3  A    between atoms: C_7  and  C_8
REMARK    4  A    between atoms: C_14  and  C_17
REMARK    5  A    between atoms: C_17  and  O_18
REMARK                            x       y       z     vdW  Elec       q    Type
REMARK                         _______ _______ _______ _____ _____    ______ ____
ROOT
ATOM      1  S   UNL     1       0.768  -0.681   1.089  0.00  0.00    -0.088 S 
ATOM      2  C   UNL     1       2.111  -0.506   0.041  0.00  0.00    +0.018 C 
ATOM      3  C   UNL     1      -0.212  -1.021  -0.233  0.00  0.00    +0.068 C 
ATOM      4  C   UNL     1       1.768  -0.712  -1.277  0.00  0.00    +0.003 C 
ATOM      5  C   UNL     1       0.385  -1.018  -1.429  0.00  0.00    +0.010 C 
ENDROOT
BRANCH   3   7
ATOM      6  O   UNL     1      -1.977  -2.476   0.256  0.00  0.00    -0.286 OA
ATOM      7  C   UNL     1      -1.655  -1.298   0.041  0.00  0.00    +0.201 C 
BRANCH   7   8
ATOM      8  C   UNL     1      -2.660  -0.247   0.062  0.00  0.00    +0.039 C 
ATOM      9  C   UNL     1      -2.291   1.076  -0.181  0.00  0.00    +0.003 C 
ATOM     10  C   UNL     1      -3.993  -0.562   0.324  0.00  0.00    +0.003 C 
ATOM     11  C   UNL     1      -3.255   2.084  -0.161  0.00  0.00    +0.000 C 
ATOM     12  C   UNL     1      -4.957   0.446   0.344  0.00  0.00    +0.000 C 
ATOM     13  C   UNL     1      -4.588   1.769   0.101  0.00  0.00    +0.000 C 
ENDBRANCH   7   8
ENDBRANCH   3   7
BRANCH   2  14
ATOM     14  C   UNL     1       3.437  -0.175   0.606  0.00  0.00    +0.127 C 
ATOM     15  C   UNL     1       4.527  -1.242   0.348  0.00  0.00    +0.017 C 
BRANCH  14  17
ATOM     16  O   UNL     1       3.399   1.907  -0.671  0.00  0.00    -0.250 OA
ATOM     17  C   UNL     1       3.987   1.174   0.114  0.00  0.00    +0.318 C 
BRANCH  17  18
ATOM     18  O   UNL     1       5.207   1.482   0.627  0.00  0.00    -0.480 OA
ATOM     19  H   UNL     1       5.626   0.895   1.226  0.00  0.00    +0.295 HD
ENDBRANCH  17  18
ENDBRANCH  14  17
ENDBRANCH   2  14
TORSDOF 5
