REMARK  Name = 446157
REMARK  12 active torsions:
REMARK  status: ('A' for Active; 'I' for Inactive)
REMARK    1  A    between atoms: N_2  and  S_16
REMARK    2  A    between atoms: C_4  and  C_20
REMARK    3  A    between atoms: C_5  and  C_23
REMARK    4  A    between atoms: C_6  and  C_10
REMARK    5  A    between atoms: C_24  and  C_25
REMARK    6  A    between atoms: C_25  and  O_26
REMARK    7  A    between atoms: C_25  and  C_28
REMARK    8  A    between atoms: C_28  and  C_29
REMARK    9  A    between atoms: C_29  and  O_30
REMARK   10  A    between atoms: C_29  and  C_32
REMARK   11  A    between atoms: C_32  and  C_34
REMARK   12  A    between atoms: C_34  and  O_35
REMARK                            x       y       z     vdW  Elec       q    Type
REMARK                         _______ _______ _______ _____ _____    ______ ____
ROOT
ATOM      1  N   UNL     1      -3.324   1.041   0.166  0.00  0.00    -0.335 NA
ATOM      2  N   UNL     1      -4.402  -1.057   0.205  0.00  0.00    -0.116 N 
ATOM      3  N   UNL     1      -2.076  -0.976   0.589  0.00  0.00    -0.331 NA
ATOM      4  C   UNL     1      -2.174   1.735   0.288  0.00  0.00    +0.110 C 
ATOM      5  C   UNL     1      -0.952   1.152   0.557  0.00  0.00    +0.124 C 
ATOM      6  C   UNL     1      -0.963  -0.221   0.699  0.00  0.00    +0.133 C 
ATOM      7  C   UNL     1      -3.205  -0.291   0.325  0.00  0.00    +0.221 C 
ATOM      8  C   UNL     1      -5.683  -0.399   0.593  0.00  0.00    +0.153 C 
ENDROOT
BRANCH   6  10
ATOM      9  F   UNL     1       3.643  -3.172   1.782  0.00  0.00    -0.204 F 
ATOM     10  C   UNL     1       0.233  -0.986   0.979  0.00  0.00    +0.027 C 
ATOM     11  C   UNL     1       0.655  -1.972   0.087  0.00  0.00    +0.005 C 
ATOM     12  C   UNL     1       0.962  -0.739   2.143  0.00  0.00    +0.005 C 
ATOM     13  C   UNL     1       1.807  -2.710   0.359  0.00  0.00    +0.030 C 
ATOM     14  C   UNL     1       2.114  -1.478   2.414  0.00  0.00    +0.030 C 
ATOM     15  C   UNL     1       2.536  -2.463   1.522  0.00  0.00    +0.140 C 
ENDBRANCH   6  10
BRANCH   2  16
ATOM     16  S   UNL     1      -4.465  -2.242  -1.050  0.00  0.00    +0.068 S 
ATOM     17  O   UNL     1      -5.457  -3.248  -0.716  0.00  0.00    -0.154 OA
ATOM     18  O   UNL     1      -3.121  -2.641  -1.423  0.00  0.00    -0.154 OA
ATOM     19  C   UNL     1      -5.132  -1.290  -2.399  0.00  0.00    +0.201 C 
ENDBRANCH   2  16
BRANCH   4  20
ATOM     20  C   UNL     1      -2.298   3.213   0.110  0.00  0.00    +0.050 C 
ATOM     21  C   UNL     1      -3.206   3.857   1.173  0.00  0.00    +0.007 C 
ATOM     22  C   UNL     1      -2.787   3.594  -1.299  0.00  0.00    +0.007 C 
ENDBRANCH   4  20
BRANCH   5  23
ATOM     23  C   UNL     1       0.279   1.952   0.680  0.00  0.00    -0.015 C 
ATOM     24  C   UNL     1       1.116   2.233  -0.332  0.00  0.00    -0.001 C 
BRANCH  24  25
ATOM     25  C   UNL     1       2.387   3.045  -0.237  0.00  0.00    +0.135 C 
BRANCH  25  26
ATOM     26  O   UNL     1       2.266   4.065   0.749  0.00  0.00    -0.380 OA
ATOM     27  H   UNL     1       3.092   4.572   0.792  0.00  0.00    +0.211 HD
ENDBRANCH  25  26
BRANCH  25  28
ATOM     28  C   UNL     1       3.581   2.133   0.095  0.00  0.00    +0.064 C 
BRANCH  28  29
ATOM     29  C   UNL     1       3.809   1.019  -0.938  0.00  0.00    +0.124 C 
BRANCH  29  30
ATOM     30  O   UNL     1       4.038   1.607  -2.216  0.00  0.00    -0.384 OA
ATOM     31  H   UNL     1       3.298   2.193  -2.440  0.00  0.00    +0.210 HD
ENDBRANCH  29  30
BRANCH  29  32
ATOM     32  C   UNL     1       4.971   0.092  -0.577  0.00  0.00    +0.139 C 
BRANCH  32  34
ATOM     33  O   UNL     1       4.376  -1.394  -2.389  0.00  0.00    -0.250 OA
ATOM     34  C   UNL     1       4.928  -1.230  -1.308  0.00  0.00    +0.316 C 
BRANCH  34  35
ATOM     35  O   UNL     1       5.545  -2.229  -0.630  0.00  0.00    -0.480 OA
ATOM     36  H   UNL     1       5.953  -2.052   0.195  0.00  0.00    +0.295 HD
ENDBRANCH  34  35
ENDBRANCH  32  34
ENDBRANCH  29  32
ENDBRANCH  28  29
ENDBRANCH  25  28
ENDBRANCH  24  25
ENDBRANCH   5  23
TORSDOF 12
