REMARK  Name = 6920201
REMARK  1 active torsions:
REMARK  status: ('A' for Active; 'I' for Inactive)
REMARK    1  A    between atoms: C_4  and  C_12
REMARK                            x       y       z     vdW  Elec       q    Type
REMARK                         _______ _______ _______ _____ _____    ______ ____
ROOT
ATOM      1  S   UNK     1       1.421   1.619  -0.101  0.00  0.00    -0.163 S 
ATOM      2  N   UNK     1       0.352  -0.801  -0.129  0.00  0.00    +0.401 N 
ATOM      3  C   UNK     1       1.716  -0.177  -0.018  0.00  0.00    -0.003 C 
ATOM      4  C   UNK     1      -0.695   0.117   0.429  0.00  0.00    +0.056 C 
ATOM      5  C   UNK     1      -0.383   1.485  -0.145  0.00  0.00    +0.045 C 
ATOM      6  C   UNK     1       2.335  -0.560   1.325  0.00  0.00    -0.011 C 
ATOM      7  C   UNK     1       2.567  -0.647  -1.192  0.00  0.00    -0.011 C 
ATOM      8  H   UNK     1       0.341  -1.678   0.392  0.00  0.00    -0.082 HD
ATOM      9  H   UNK     1       0.148  -0.973  -1.113  0.00  0.00    -0.082 HD
ENDROOT
BRANCH   4  12
ATOM     10  O   UNK     1      -2.300  -1.491  -0.158  0.00  0.00    -0.248 OA
ATOM     11  O   UNK     1      -2.908   0.712  -0.048  0.00  0.00    -0.248 OA
ATOM     12  C   UNK     1      -2.105  -0.259   0.036  0.00  0.00    +0.346 C 
ENDBRANCH   4  12
TORSDOF 1
