REMARK  Name = 17676
REMARK  8 active torsions:
REMARK  status: ('A' for Active; 'I' for Inactive)
REMARK    1  A    between atoms: N_2  and  C_18
REMARK    2  A    between atoms: C_10  and  C_16
REMARK    3  A    between atoms: C_18  and  C_19
REMARK    4  A    between atoms: C_19  and  C_20
REMARK    5  A    between atoms: C_20  and  N_21
REMARK    6  A    between atoms: N_22  and  C_29
REMARK    7  A    between atoms: C_29  and  C_30
REMARK    8  A    between atoms: C_30  and  O_31
REMARK                            x       y       z     vdW  Elec       q    Type
REMARK                         _______ _______ _______ _____ _____    ______ ____
ROOT
ATOM      1  S   UNL     1      -3.011   0.904   2.114  0.00  0.00    -0.084 S 
ATOM      2  N   UNL     1      -1.977  -0.114  -0.636  0.00  0.00    -0.286 N 
ATOM      3  C   UNL     1      -1.326   1.036  -0.121  0.00  0.00    +0.058 C 
ATOM      4  C   UNL     1      -3.276  -0.549  -0.267  0.00  0.00    +0.058 C 
ATOM      5  C   UNL     1      -1.720   1.605   1.106  0.00  0.00    +0.043 C 
ATOM      6  C   UNL     1      -3.863  -0.136   0.945  0.00  0.00    +0.043 C 
ATOM      7  C   UNL     1      -0.285   1.682  -0.822  0.00  0.00    +0.018 C 
ATOM      8  C   UNL     1      -4.051  -1.380  -1.105  0.00  0.00    +0.015 C 
ATOM      9  C   UNL     1      -1.076   2.750   1.608  0.00  0.00    +0.008 C 
ATOM     10  C   UNL     1       0.349   2.822  -0.321  0.00  0.00    +0.036 C 
ATOM     11  C   UNL     1      -5.154  -0.565   1.302  0.00  0.00    +0.008 C 
ATOM     12  C   UNL     1      -0.045   3.355   0.897  0.00  0.00    +0.003 C 
ATOM     13  C   UNL     1      -5.336  -1.799  -0.747  0.00  0.00    +0.001 C 
ATOM     14  C   UNL     1      -5.886  -1.394   0.459  0.00  0.00    +0.001 C 
ENDROOT
BRANCH  10  16
ATOM     15  O   UNL     1       2.016   4.459  -0.646  0.00  0.00    -0.291 OA
ATOM     16  C   UNL     1       1.428   3.445  -1.072  0.00  0.00    +0.174 C 
ATOM     17  C   UNL     1       1.867   2.865  -2.412  0.00  0.00    +0.077 C 
ENDBRANCH  10  16
BRANCH   2  18
ATOM     18  C   UNL     1      -1.281  -0.875  -1.681  0.00  0.00    +0.093 C 
BRANCH  18  19
ATOM     19  C   UNL     1      -1.022  -2.310  -1.224  0.00  0.00    -0.001 C 
BRANCH  19  20
ATOM     20  C   UNL     1      -0.207  -2.430   0.068  0.00  0.00    -0.076 C 
BRANCH  20  21
ATOM     21  N   UNL     1       1.096  -1.777  -0.045  0.00  0.00    +0.384 N 
ATOM     22  N   UNL     1       3.984  -1.752   0.089  0.00  0.00    +0.386 N 
ATOM     23  C   UNL     1       1.913  -2.419  -1.082  0.00  0.00    -0.101 C 
ATOM     24  C   UNL     1       1.799  -1.790   1.243  0.00  0.00    -0.101 C 
ATOM     25  C   UNL     1       3.281  -1.737  -1.199  0.00  0.00    -0.101 C 
ATOM     26  C   UNL     1       3.167  -1.109   1.126  0.00  0.00    -0.101 C 
ATOM     27  H   UNL     1       0.939  -0.806  -0.316  0.00  0.00    -0.080 HD
ATOM     28  H   UNL     1       4.139  -2.723   0.360  0.00  0.00    -0.080 HD
BRANCH  22  29
ATOM     29  C   UNL     1       5.287  -1.101  -0.023  0.00  0.00    -0.045 C 
BRANCH  29  30
ATOM     30  C   UNL     1       6.031  -1.157   1.302  0.00  0.00    +0.115 C 
BRANCH  30  31
ATOM     31  O   UNL     1       7.296  -0.529   1.142  0.00  0.00    -0.384 OA
ATOM     32  H   UNL     1       7.780  -0.558   1.982  0.00  0.00    +0.210 HD
ENDBRANCH  30  31
ENDBRANCH  29  30
ENDBRANCH  22  29
ENDBRANCH  20  21
ENDBRANCH  19  20
ENDBRANCH  18  19
ENDBRANCH   2  18
TORSDOF 8
