REMARK  Name = 4887
REMARK  9 active torsions:
REMARK  status: ('A' for Active; 'I' for Inactive)
REMARK    1  A    between atoms: N_2  and  C_8
REMARK    2  A    between atoms: C_3  and  C_23
REMARK    3  A    between atoms: C_14  and  C_20
REMARK    4  A    between atoms: C_22  and  O_28
REMARK    5  A    between atoms: O_28  and  C_29
REMARK    6  A    between atoms: C_29  and  C_30
REMARK    7  A    between atoms: C_30  and  C_31
REMARK    8  A    between atoms: C_31  and  C_32
REMARK    9  A    between atoms: C_32  and  C_33
REMARK                            x       y       z     vdW  Elec       q    Type
REMARK                         _______ _______ _______ _____ _____    ______ ____
ROOT
ATOM      1  O   UNL     1      -3.073  -3.910   0.166  0.00  0.00    -0.270 OA
ATOM      2  N   UNL     1      -3.043  -1.564   0.019  0.00  0.00    -0.278 N 
ATOM      3  C   UNL     1      -2.480  -2.846   0.025  0.00  0.00    +0.250 C 
ATOM      4  H   UNL     1      -2.415  -0.817  -0.108  0.00  0.00    +0.155 HD
ENDROOT
BRANCH   2   8
ATOM      5  O   UNL     1      -3.819   1.066  -0.041  0.00  0.00    -0.442 OA
ATOM      6  O   UNL     1      -7.704   2.208   0.389  0.00  0.00    -0.286 OA
ATOM      7  C   UNL     1      -4.794   0.119   0.143  0.00  0.00    +0.163 C 
ATOM      8  C   UNL     1      -4.388  -1.216   0.172  0.00  0.00    +0.086 C 
ATOM      9  C   UNL     1      -6.141   0.439   0.297  0.00  0.00    +0.075 C 
ATOM     10  C   UNL     1      -5.333  -2.225   0.356  0.00  0.00    +0.018 C 
ATOM     11  C   UNL     1      -7.091  -0.568   0.481  0.00  0.00    +0.006 C 
ATOM     12  C   UNL     1      -6.540   1.853   0.262  0.00  0.00    +0.202 C 
ATOM     13  C   UNL     1      -6.682  -1.902   0.510  0.00  0.00    +0.002 C 
ATOM     14  C   UNL     1      -4.186   2.407  -0.074  0.00  0.00    +0.213 C 
ATOM     15  C   UNL     1      -5.453   2.832   0.063  0.00  0.00    +0.090 C 
BRANCH  14  20
ATOM     16  N   UNL     1      -3.103   4.625  -0.347  0.00  0.00    -0.107 NA
ATOM     17  N   UNL     1      -1.810   2.766  -0.400  0.00  0.00    -0.084 NA
ATOM     18  N   UNL     1      -1.798   4.872  -0.529  0.00  0.00    -0.140 N 
ATOM     19  N   UNL     1      -0.995   3.800  -0.567  0.00  0.00    -0.022 NA
ATOM     20  C   UNL     1      -3.062   3.292  -0.271  0.00  0.00    +0.109 C 
ATOM     21  H   UNL     1      -1.450   5.787  -0.629  0.00  0.00    +0.197 HD
ENDBRANCH  14  20
ENDBRANCH   2   8
BRANCH   3  23
ATOM     22  C   UNL     1       1.769  -2.979  -0.434  0.00  0.00    +0.139 C 
ATOM     23  C   UNL     1      -1.003  -2.892  -0.135  0.00  0.00    +0.054 C 
ATOM     24  C   UNL     1       1.108  -4.004   0.244  0.00  0.00    +0.037 C 
ATOM     25  C   UNL     1       1.044  -1.911  -0.962  0.00  0.00    +0.037 C 
ATOM     26  C   UNL     1      -0.278  -3.960   0.394  0.00  0.00    +0.008 C 
ATOM     27  C   UNL     1      -0.342  -1.867  -0.813  0.00  0.00    +0.008 C 
BRANCH  22  28
ATOM     28  O   UNL     1       3.121  -3.023  -0.582  0.00  0.00    -0.475 OA
BRANCH  28  29
ATOM     29  C   UNL     1       3.807  -1.774  -0.655  0.00  0.00    +0.205 C 
BRANCH  29  30
ATOM     30  C   UNL     1       5.214  -1.953  -0.102  0.00  0.00    +0.048 C 
BRANCH  30  31
ATOM     31  C   UNL     1       6.003  -0.645  -0.136  0.00  0.00    +0.009 C 
BRANCH  31  32
ATOM     32  C   UNL     1       7.401  -0.826   0.460  0.00  0.00    +0.026 C 
BRANCH  32  33
ATOM     33  C   UNL     1       8.201   0.451   0.400  0.00  0.00    -0.022 C 
ATOM     34  C   UNL     1       8.994   0.725  -0.714  0.00  0.00    -0.004 C 
ATOM     35  C   UNL     1       8.149   1.357   1.458  0.00  0.00    -0.004 C 
ATOM     36  C   UNL     1       9.735   1.905  -0.770  0.00  0.00    -0.000 C 
ATOM     37  C   UNL     1       8.889   2.538   1.403  0.00  0.00    -0.000 C 
ATOM     38  C   UNL     1       9.682   2.812   0.289  0.00  0.00    -0.000 C 
ENDBRANCH  32  33
ENDBRANCH  31  32
ENDBRANCH  30  31
ENDBRANCH  29  30
ENDBRANCH  28  29
ENDBRANCH  22  28
ENDBRANCH   3  23
TORSDOF 9
