REMARK  Name = 44093
REMARK  5 active torsions:
REMARK  status: ('A' for Active; 'I' for Inactive)
REMARK    1  A    between atoms: C_3  and  C_9
REMARK    2  A    between atoms: C_7  and  C_12
REMARK    3  A    between atoms: C_9  and  O_10
REMARK    4  A    between atoms: C_12  and  C_14
REMARK    5  A    between atoms: C_14  and  S_15
REMARK                            x       y       z     vdW  Elec       q    Type
REMARK                         _______ _______ _______ _____ _____    ______ ____
ROOT
ATOM      1  O   UNL     1      -0.999   1.560   0.238  0.00  0.00    -0.275 OA
ATOM      2  N   UNL     1       0.219  -0.405   0.133  0.00  0.00    -0.271 N 
ATOM      3  C   UNL     1       1.426   0.114   0.763  0.00  0.00    +0.174 C 
ATOM      4  C   UNL     1       2.235  -1.125   1.129  0.00  0.00    +0.033 C 
ATOM      5  C   UNL     1       1.816  -2.147   0.075  0.00  0.00    +0.024 C 
ATOM      6  C   UNL     1       0.345  -1.832  -0.152  0.00  0.00    +0.094 C 
ATOM      7  C   UNL     1      -0.931   0.356  -0.012  0.00  0.00    +0.226 C 
ENDROOT
BRANCH   3   9
ATOM      8  O   UNL     1       2.086   0.779  -1.466  0.00  0.00    -0.248 OA
ATOM      9  C   UNL     1       2.131   0.956  -0.258  0.00  0.00    +0.332 C 
BRANCH   9  10
ATOM     10  O   UNL     1       2.832   1.949   0.343  0.00  0.00    -0.479 OA
ATOM     11  H   UNL     1       2.825   2.029   1.276  0.00  0.00    +0.295 HD
ENDBRANCH   9  10
ENDBRANCH   3   9
BRANCH   7  12
ATOM     12  C   UNL     1      -2.140  -0.386  -0.523  0.00  0.00    +0.087 C 
ATOM     13  C   UNL     1      -2.080  -0.372  -2.046  0.00  0.00    +0.010 C 
BRANCH  12  14
ATOM     14  C   UNL     1      -3.428   0.264  -0.022  0.00  0.00    +0.062 C 
BRANCH  14  15
ATOM     15  S   UNL     1      -3.513   0.289   1.797  0.00  0.00    -0.167 S 
ATOM     16  H   UNL     1      -4.675   0.876   2.188  0.00  0.00    +0.102 HD
ENDBRANCH  14  15
ENDBRANCH  12  14
ENDBRANCH   7  12
TORSDOF 5
