REMARK  Name = 114683
REMARK  2 active torsions:
REMARK  status: ('A' for Active; 'I' for Inactive)
REMARK    1  A    between atoms: C_7  and  O_11
REMARK    2  A    between atoms: C_8  and  O_13
REMARK                            x       y       z     vdW  Elec       q    Type
REMARK                         _______ _______ _______ _____ _____    ______ ____
ROOT
ATOM      1  N   UNL     1       2.165   1.111   0.000  0.00  0.00    -0.311 N 
ATOM      2  C   UNL     1       0.857   0.681   0.000  0.00  0.00    +0.052 C 
ATOM      3  C   UNL     1       0.884  -0.716   0.000  0.00  0.00    +0.018 C 
ATOM      4  C   UNL     1      -0.335   1.413   0.000  0.00  0.00    +0.054 C 
ATOM      5  C   UNL     1      -0.337  -1.418   0.000  0.00  0.00    +0.041 C 
ATOM      6  C   UNL     1       2.253  -1.107   0.000  0.00  0.00    +0.017 C 
ATOM      7  C   UNL     1      -1.534   0.695   0.001  0.00  0.00    +0.169 C 
ATOM      8  C   UNL     1      -1.538  -0.699   0.001  0.00  0.00    +0.168 C 
ATOM      9  C   UNL     1       3.016   0.039   0.000  0.00  0.00    +0.062 C 
ATOM     10  H   UNL     1       2.448   2.055   0.000  0.00  0.00    +0.152 HD
ENDROOT
BRANCH   7  11
ATOM     11  O   UNL     1      -2.713   1.383   0.000  0.00  0.00    -0.503 OA
ATOM     12  H   UNL     1      -2.709   2.320   0.000  0.00  0.00    +0.292 HD
ENDBRANCH   7  11
BRANCH   8  13
ATOM     13  O   UNL     1      -2.717  -1.384  -0.001  0.00  0.00    -0.503 OA
ATOM     14  H   UNL     1      -2.715  -2.321   0.000  0.00  0.00    +0.292 HD
ENDBRANCH   8  13
TORSDOF 2
