REMARK  Name = 4174
REMARK  3 active torsions:
REMARK  status: ('A' for Active; 'I' for Inactive)
REMARK    1  A    between atoms: C_1  and  C_5
REMARK    2  A    between atoms: C_1  and  C_11
REMARK    3  A    between atoms: C_11  and  C_13
REMARK                            x       y       z     vdW  Elec       q    Type
REMARK                         _______ _______ _______ _____ _____    ______ ____
ROOT
ATOM      1  C   UNL     1      -0.678  -1.464  -0.290  0.00  0.00    +0.076 C 
ATOM      2  C   UNL     1      -0.284  -1.827  -1.739  0.00  0.00    +0.012 C 
ATOM      3  C   UNL     1      -1.470  -2.681   0.260  0.00  0.00    +0.012 C 
ENDROOT
BRANCH   1   5
ATOM      4  N   UNL     1      -2.709   1.578  -1.198  0.00  0.00    -0.243 NA
ATOM      5  C   UNL     1      -1.585  -0.233  -0.147  0.00  0.00    +0.003 C 
ATOM      6  C   UNL     1      -2.042   0.119   1.092  0.00  0.00    -0.001 C 
ATOM      7  C   UNL     1      -1.916   0.484  -1.255  0.00  0.00    +0.095 C 
ATOM      8  C   UNL     1      -2.860   1.239   1.191  0.00  0.00    +0.020 C 
ATOM      9  C   UNL     1      -3.161   1.928   0.027  0.00  0.00    +0.099 C 
ENDBRANCH   1   5
BRANCH   1  11
ATOM     10  O   UNL     1       0.934  -2.170   1.387  0.00  0.00    -0.291 OA
ATOM     11  C   UNL     1       0.636  -1.346   0.520  0.00  0.00    +0.178 C 
BRANCH  11  13
ATOM     12  N   UNL     1       3.537   0.519  -0.915  0.00  0.00    -0.242 NA
ATOM     13  C   UNL     1       1.616  -0.253   0.271  0.00  0.00    +0.054 C 
ATOM     14  C   UNL     1       1.507   0.928   0.962  0.00  0.00    +0.006 C 
ATOM     15  C   UNL     1       2.616  -0.433  -0.643  0.00  0.00    +0.102 C 
ATOM     16  C   UNL     1       2.436   1.931   0.709  0.00  0.00    +0.021 C 
ATOM     17  C   UNL     1       3.423   1.679  -0.231  0.00  0.00    +0.099 C 
ENDBRANCH  11  13
ENDBRANCH   1  11
TORSDOF 3
