REMARK  Name = 4927
REMARK  3 active torsions:
REMARK  status: ('A' for Active; 'I' for Inactive)
REMARK    1  A    between atoms: N_2  and  C_15
REMARK    2  A    between atoms: C_15  and  C_16
REMARK    3  A    between atoms: C_16  and  N_18
REMARK                            x       y       z     vdW  Elec       q    Type
REMARK                         _______ _______ _______ _____ _____    ______ ____
ROOT
ATOM      1  S   UNL     1       2.242  -1.561   1.014  0.00  0.00    -0.084 S 
ATOM      2  N   UNL     1      -0.012   0.103  -0.333  0.00  0.00    -0.288 N 
ATOM      3  C   UNL     1       1.262   0.723  -0.281  0.00  0.00    +0.058 C 
ATOM      4  C   UNL     1      -0.244  -1.293  -0.251  0.00  0.00    +0.058 C 
ATOM      5  C   UNL     1       2.369   0.059   0.284  0.00  0.00    +0.043 C 
ATOM      6  C   UNL     1       0.714  -2.156   0.316  0.00  0.00    +0.043 C 
ATOM      7  C   UNL     1       1.492   2.008  -0.820  0.00  0.00    +0.015 C 
ATOM      8  C   UNL     1      -1.419  -1.887  -0.762  0.00  0.00    +0.015 C 
ATOM      9  C   UNL     1       3.633   0.675   0.326  0.00  0.00    +0.008 C 
ATOM     10  C   UNL     1       0.483  -3.541   0.387  0.00  0.00    +0.008 C 
ATOM     11  C   UNL     1       2.751   2.613  -0.780  0.00  0.00    +0.001 C 
ATOM     12  C   UNL     1      -1.641  -3.265  -0.694  0.00  0.00    +0.001 C 
ATOM     13  C   UNL     1       3.822   1.947  -0.203  0.00  0.00    +0.001 C 
ATOM     14  C   UNL     1      -0.691  -4.093  -0.115  0.00  0.00    +0.001 C 
ENDROOT
BRANCH   2  15
ATOM     15  C   UNL     1      -1.177   0.970  -0.557  0.00  0.00    +0.075 C 
BRANCH  15  16
ATOM     16  C   UNL     1      -2.127   0.916   0.643  0.00  0.00    -0.038 C 
ATOM     17  C   UNL     1      -1.443   1.342   1.942  0.00  0.00    -0.021 C 
BRANCH  16  18
ATOM     18  N   UNL     1      -3.260   1.809   0.395  0.00  0.00    +0.387 N 
ATOM     19  C   UNL     1      -3.943   1.433  -0.842  0.00  0.00    -0.101 C 
ATOM     20  C   UNL     1      -2.810   3.198   0.330  0.00  0.00    -0.101 C 
ATOM     21  H   UNL     1      -3.920   1.719   1.167  0.00  0.00    -0.080 HD
ENDBRANCH  16  18
ENDBRANCH  15  16
ENDBRANCH   2  15
TORSDOF 3
