REMARK  Name = 5311507
REMARK  6 active torsions:
REMARK  status: ('A' for Active; 'I' for Inactive)
REMARK    1  A    between atoms: C_3  and  C_17
REMARK    2  A    between atoms: C_17  and  C_18
REMARK    3  A    between atoms: C_18  and  N_19
REMARK    4  A    between atoms: N_20  and  C_27
REMARK    5  A    between atoms: C_27  and  C_28
REMARK    6  A    between atoms: C_28  and  O_29
REMARK                            x       y       z     vdW  Elec       q    Type
REMARK                         _______ _______ _______ _____ _____    ______ ____
ROOT
ATOM      1 CL   UNL     1      -0.232  -4.098   1.162  0.00  0.00    -0.082 Cl
ATOM      2  S   UNL     1       4.489  -0.816  -1.435  0.00  0.00    -0.087 S 
ATOM      3  C   UNL     1       1.063   1.166   0.207  0.00  0.00    -0.028 C 
ATOM      4  C   UNL     1       2.197   0.440   0.236  0.00  0.00    -0.003 C 
ATOM      5  C   UNL     1       2.117  -1.034   0.052  0.00  0.00    +0.007 C 
ATOM      6  C   UNL     1       3.505   1.145   0.318  0.00  0.00    +0.006 C 
ATOM      7  C   UNL     1       3.121  -1.692  -0.683  0.00  0.00    +0.029 C 
ATOM      8  C   UNL     1       4.606   0.639  -0.399  0.00  0.00    +0.029 C 
ATOM      9  C   UNL     1       1.091  -1.800   0.632  0.00  0.00    +0.012 C 
ATOM     10  C   UNL     1       3.689   2.278   1.129  0.00  0.00    +0.000 C 
ATOM     11  C   UNL     1       3.061  -3.083  -0.860  0.00  0.00    +0.007 C 
ATOM     12  C   UNL     1       5.847   1.291  -0.327  0.00  0.00    +0.006 C 
ATOM     13  C   UNL     1       1.044  -3.184   0.456  0.00  0.00    +0.058 C 
ATOM     14  C   UNL     1       4.929   2.915   1.200  0.00  0.00    +0.000 C 
ATOM     15  C   UNL     1       2.025  -3.824  -0.294  0.00  0.00    +0.012 C 
ATOM     16  C   UNL     1       6.005   2.425   0.468  0.00  0.00    +0.001 C 
ENDROOT
BRANCH   3  17
ATOM     17  C   UNL     1      -0.305   0.567   0.126  0.00  0.00    +0.003 C 
BRANCH  17  18
ATOM     18  C   UNL     1      -1.265   1.492  -0.621  0.00  0.00    -0.073 C 
BRANCH  18  19
ATOM     19  N   UNL     1      -2.590   0.882  -0.708  0.00  0.00    +0.384 N 
ATOM     20  N   UNL     1      -5.448   0.860  -0.268  0.00  0.00    +0.386 N 
ATOM     21  C   UNL     1      -3.154   0.666   0.630  0.00  0.00    -0.101 C 
ATOM     22  C   UNL     1      -3.493   1.710  -1.517  0.00  0.00    -0.101 C 
ATOM     23  C   UNL     1      -4.546   0.031   0.540  0.00  0.00    -0.101 C 
ATOM     24  C   UNL     1      -4.884   1.074  -1.607  0.00  0.00    -0.101 C 
ATOM     25  H   UNL     1      -2.491  -0.024  -1.165  0.00  0.00    -0.080 HD
ATOM     26  H   UNL     1      -5.546   1.767   0.188  0.00  0.00    -0.080 HD
BRANCH  20  27
ATOM     27  C   UNL     1      -6.774   0.252  -0.354  0.00  0.00    -0.045 C 
BRANCH  27  28
ATOM     28  C   UNL     1      -7.403   0.138   1.025  0.00  0.00    +0.115 C 
BRANCH  28  29
ATOM     29  O   UNL     1      -8.694  -0.441   0.892  0.00  0.00    -0.384 OA
ATOM     30  H   UNL     1      -9.105  -0.519   1.767  0.00  0.00    +0.210 HD
ENDBRANCH  28  29
ENDBRANCH  27  28
ENDBRANCH  20  27
ENDBRANCH  18  19
ENDBRANCH  17  18
ENDBRANCH   3  17
TORSDOF 6
