REMARK  Name = 5910
REMARK  3 active torsions:
REMARK  status: ('A' for Active; 'I' for Inactive)
REMARK    1  A    between atoms: C_3  and  C_9
REMARK    2  A    between atoms: C_4  and  C_7
REMARK    3  A    between atoms: C_9  and  C_12
REMARK                            x       y       z     vdW  Elec       q    Type
REMARK                         _______ _______ _______ _____ _____    ______ ____
ROOT
ATOM      1  O   UNL     1      -2.077   1.828   0.293  0.00  0.00    -0.448 OA
ATOM      2  O   UNL     1      -3.846   0.605   1.083  0.00  0.00    -0.250 OA
ATOM      3  C   UNL     1      -0.483   0.131   0.141  0.00  0.00    +0.060 C 
ATOM      4  C   UNL     1      -1.857  -0.521   0.256  0.00  0.00    +0.103 C 
ATOM      5  C   UNL     1      -0.820   1.532  -0.324  0.00  0.00    +0.209 C 
ATOM      6  C   UNL     1      -2.721   0.664   0.610  0.00  0.00    +0.317 C 
ENDROOT
BRANCH   4   7
ATOM      7  C   UNL     1      -2.391  -1.185  -1.005  0.00  0.00    +0.011 C 
ATOM      8  C   UNL     1      -3.829  -1.645  -0.832  0.00  0.00    +0.001 C 
ENDBRANCH   4   7
BRANCH   3   9
ATOM      9  C   UNL     1       0.535  -0.565  -0.744  0.00  0.00    +0.047 C 
BRANCH   9  12
ATOM     10  N   UNL     1       2.711  -0.715   0.482  0.00  0.00    -0.271 N 
ATOM     11  N   UNL     1       3.901   0.956  -0.368  0.00  0.00    -0.225 NA
ATOM     12  C   UNL     1       1.933  -0.106  -0.438  0.00  0.00    +0.049 C 
ATOM     13  C   UNL     1       2.661   0.914  -0.955  0.00  0.00    +0.111 C 
ATOM     14  C   UNL     1       3.898  -0.037   0.493  0.00  0.00    +0.167 C 
ATOM     15  C   UNL     1       2.385  -1.855   1.306  0.00  0.00    +0.119 C 
ENDBRANCH   9  12
ENDBRANCH   3   9
TORSDOF 3
