REMARK  Name = 446806
REMARK  4 active torsions:
REMARK  status: ('A' for Active; 'I' for Inactive)
REMARK    1  A    between atoms: C_4  and  O_9
REMARK    2  A    between atoms: C_6  and  O_13
REMARK    3  A    between atoms: C_8  and  O_11
REMARK    4  A    between atoms: O_13  and  S_14
REMARK                            x       y       z     vdW  Elec       q    Type
REMARK                         _______ _______ _______ _____ _____    ______ ____
ROOT
ATOM      1  O   UNL     1      -1.643  -0.686   1.508  0.00  0.00    -0.348 OA
ATOM      2  O   UNL     1      -1.771   1.227  -0.897  0.00  0.00    -0.326 OA
ATOM      3  C   UNL     1      -0.494  -0.728   0.628  0.00  0.00    +0.179 C 
ATOM      4  C   UNL     1      -1.076  -1.057  -0.740  0.00  0.00    +0.170 C 
ATOM      5  C   UNL     1      -2.257  -0.114  -0.704  0.00  0.00    +0.176 C 
ATOM      6  C   UNL     1       0.125   0.676   0.594  0.00  0.00    +0.232 C 
ATOM      7  C   UNL     1      -2.797  -0.337   0.706  0.00  0.00    +0.174 C 
ATOM      8  C   UNL     1      -0.915   1.721   0.143  0.00  0.00    +0.265 C 
ENDROOT
BRANCH   4   9
ATOM      9  O   UNL     1      -1.483  -2.415  -0.818  0.00  0.00    -0.379 OA
ATOM     10  H   UNL     1      -0.699  -2.987  -0.839  0.00  0.00    +0.211 HD
ENDBRANCH   4   9
BRANCH   8  11
ATOM     11  O   UNL     1      -0.243   2.909  -0.268  0.00  0.00    -0.358 OA
ATOM     12  H   UNL     1      -0.895   3.568  -0.552  0.00  0.00    +0.213 HD
ENDBRANCH   8  11
BRANCH   6  13
ATOM     13  O   UNL     1       1.257   0.668  -0.274  0.00  0.00    -0.195 OA
BRANCH  13  14
ATOM     14  S   UNL     1       2.514  -0.322   0.049  0.00  0.00    +0.239 S 
ATOM     15  O   UNL     1       3.633   0.105  -1.059  0.00  0.00    -0.116 OA
ATOM     16  O   UNL     1       3.030   0.044   1.355  0.00  0.00    -0.022 OA
ATOM     17  O   UNL     1       2.119  -1.692  -0.221  0.00  0.00    -0.116 OA
ENDBRANCH  13  14
ENDBRANCH   6  13
TORSDOF 4
