REMARK  Name = 445501
REMARK  9 active torsions:
REMARK  status: ('A' for Active; 'I' for Inactive)
REMARK    1  A    between atoms: C_3  and  C_9
REMARK    2  A    between atoms: C_7  and  C_21
REMARK    3  A    between atoms: C_9  and  O_10
REMARK    4  A    between atoms: O_10  and  C_11
REMARK    5  A    between atoms: C_11  and  C_12
REMARK    6  A    between atoms: C_12  and  C_13
REMARK    7  A    between atoms: C_13  and  C_15
REMARK    8  A    between atoms: C_21  and  C_22
REMARK    9  A    between atoms: C_22  and  C_25
REMARK                            x       y       z     vdW  Elec       q    Type
REMARK                         _______ _______ _______ _____ _____    ______ ____
ROOT
ATOM      1  O   UNL     1       0.810   0.734  -0.889  0.00  0.00    -0.267 OA
ATOM      2  N   UNL     1       2.308  -1.011  -0.448  0.00  0.00    -0.266 N 
ATOM      3  C   UNL     1       1.448  -2.130  -0.806  0.00  0.00    +0.175 C 
ATOM      4  C   UNL     1       2.396  -3.316  -0.941  0.00  0.00    +0.033 C 
ATOM      5  C   UNL     1       3.532  -2.975   0.022  0.00  0.00    +0.024 C 
ATOM      6  C   UNL     1       3.650  -1.463  -0.095  0.00  0.00    +0.094 C 
ATOM      7  C   UNL     1       1.916   0.303  -0.596  0.00  0.00    +0.284 C 
ENDROOT
BRANCH   3   9
ATOM      8  O   UNL     1       0.722  -2.049   1.488  0.00  0.00    -0.248 OA
ATOM      9  C   UNL     1       0.476  -2.316   0.320  0.00  0.00    +0.335 C 
BRANCH   9  10
ATOM     10  O   UNL     1      -0.694  -2.819  -0.167  0.00  0.00    -0.447 OA
BRANCH  10  11
ATOM     11  C   UNL     1      -1.717  -3.047   0.807  0.00  0.00    +0.209 C 
BRANCH  11  12
ATOM     12  C   UNL     1      -2.560  -1.787   0.940  0.00  0.00    +0.052 C 
BRANCH  12  13
ATOM     13  C   UNL     1      -3.232  -1.419  -0.382  0.00  0.00    +0.032 C 
BRANCH  13  15
ATOM     14  N   UNL     1      -4.115   2.264  -0.433  0.00  0.00    -0.243 NA
ATOM     15  C   UNL     1      -4.032  -0.147  -0.265  0.00  0.00    -0.003 C 
ATOM     16  C   UNL     1      -5.373  -0.174   0.104  0.00  0.00    -0.001 C 
ATOM     17  C   UNL     1      -3.455   1.087  -0.521  0.00  0.00    +0.095 C 
ATOM     18  C   UNL     1      -6.085   1.016   0.205  0.00  0.00    +0.020 C 
ATOM     19  C   UNL     1      -5.416   2.197  -0.072  0.00  0.00    +0.099 C 
ENDBRANCH  13  15
ENDBRANCH  12  13
ENDBRANCH  11  12
ENDBRANCH  10  11
ENDBRANCH   9  10
ENDBRANCH   3   9
BRANCH   7  21
ATOM     20  O   UNL     1       3.955   1.239  -1.098  0.00  0.00    -0.287 OA
ATOM     21  C   UNL     1       2.979   1.310  -0.363  0.00  0.00    +0.225 C 
BRANCH  21  22
ATOM     22  C   UNL     1       2.764   2.358   0.731  0.00  0.00    +0.060 C 
ATOM     23  C   UNL     1       4.011   3.258   0.789  0.00  0.00    +0.008 C 
ATOM     24  C   UNL     1       2.626   1.645   2.089  0.00  0.00    +0.008 C 
BRANCH  22  25
ATOM     25  C   UNL     1       1.518   3.231   0.445  0.00  0.00    +0.007 C 
ATOM     26  C   UNL     1       1.566   4.013  -0.864  0.00  0.00    +0.000 C 
ENDBRANCH  22  25
ENDBRANCH  21  22
ENDBRANCH   7  21
TORSDOF 9
