REMARK  Name = 4753
REMARK  2 active torsions:
REMARK  status: ('A' for Active; 'I' for Inactive)
REMARK    1  A    between atoms: C_5  and  C_10
REMARK    2  A    between atoms: C_10  and  C_11
REMARK                            x       y       z     vdW  Elec       q    Type
REMARK                         _______ _______ _______ _____ _____    ______ ____
ROOT
ATOM      1  O   UNL     1       1.082  -1.584   0.423  0.00  0.00    -0.274 OA
ATOM      2  O   UNL     1       3.617  -0.558   1.100  0.00  0.00    -0.253 OA
ATOM      3  N   UNL     1       2.125   0.294  -0.482  0.00  0.00    -0.240 N 
ATOM      4  N   UNL     1       4.152   1.322  -0.108  0.00  0.00    -0.313 N 
ATOM      5  C   UNL     1       1.086  -0.630  -0.350  0.00  0.00    +0.234 C 
ATOM      6  C   UNL     1       3.319   0.275   0.245  0.00  0.00    +0.303 C 
ATOM      7  H   UNL     1       2.007   1.018  -1.139  0.00  0.00    +0.159 HD
ATOM      8  H   UNL     1       5.027   1.424   0.330  0.00  0.00    +0.146 HD
ATOM      9  H   UNL     1       3.868   1.965  -0.798  0.00  0.00    +0.146 HD
ENDROOT
BRANCH   5  10
ATOM     10  C   UNL     1      -0.060  -0.309  -1.290  0.00  0.00    +0.112 C 
BRANCH  10  11
ATOM     11  C   UNL     1      -1.360  -0.044  -0.578  0.00  0.00    -0.013 C 
ATOM     12  C   UNL     1      -2.224  -1.099  -0.320  0.00  0.00    -0.004 C 
ATOM     13  C   UNL     1      -1.674   1.250  -0.189  0.00  0.00    -0.004 C 
ATOM     14  C   UNL     1      -3.428  -0.854   0.340  0.00  0.00    -0.000 C 
ATOM     15  C   UNL     1      -2.878   1.495   0.472  0.00  0.00    -0.000 C 
ATOM     16  C   UNL     1      -3.755   0.443   0.736  0.00  0.00    -0.000 C 
ENDBRANCH  10  11
ENDBRANCH   5  10
TORSDOF 2
