REMARK  Name = 3677
REMARK  3 active torsions:
REMARK  status: ('A' for Active; 'I' for Inactive)
REMARK    1  A    between atoms: C_1  and  N_4
REMARK    2  A    between atoms: C_1  and  C_8
REMARK    3  A    between atoms: C_8  and  C_9
REMARK                            x       y       z     vdW  Elec       q    Type
REMARK                         _______ _______ _______ _____ _____    ______ ____
ROOT
ATOM      1  C   UNL     1       1.754  -0.328   0.274  0.00  0.00    -0.042 C 
ATOM      2  C   UNL     1       1.697   0.662   1.446  0.00  0.00    -0.021 C 
ATOM      3  C   UNL     1       1.560  -1.759   0.793  0.00  0.00    -0.021 C 
ENDROOT
BRANCH   1   4
ATOM      4  N   UNL     1       3.111  -0.252  -0.294  0.00  0.00    +0.385 N 
ATOM      5  C   UNL     1       3.390   1.096  -0.752  0.00  0.00    -0.105 C 
ATOM      6  H   UNL     1       3.182  -0.896  -1.082  0.00  0.00    -0.084 HD
ATOM      7  H   UNL     1       3.787  -0.504   0.426  0.00  0.00    -0.084 HD
ENDBRANCH   1   4
BRANCH   1   8
ATOM      8  C   UNL     1       0.748   0.033  -0.850  0.00  0.00    +0.007 C 
BRANCH   8   9
ATOM      9  C   UNL     1      -0.712   0.064  -0.460  0.00  0.00    -0.024 C 
ATOM     10  C   UNL     1      -1.467  -1.092  -0.569  0.00  0.00    -0.004 C 
ATOM     11  C   UNL     1      -1.266   1.247   0.001  0.00  0.00    -0.004 C 
ATOM     12  C   UNL     1      -2.814  -1.064  -0.208  0.00  0.00    -0.000 C 
ATOM     13  C   UNL     1      -2.613   1.275   0.362  0.00  0.00    -0.000 C 
ATOM     14  C   UNL     1      -3.387   0.119   0.257  0.00  0.00    -0.000 C 
ENDBRANCH   8   9
ENDBRANCH   1   8
TORSDOF 3
