REMARK  Name = 5826
REMARK  3 active torsions:
REMARK  status: ('A' for Active; 'I' for Inactive)
REMARK    1  A    between atoms: C_1  and  C_2
REMARK    2  A    between atoms: C_1  and  C_8
REMARK    3  A    between atoms: C_8  and  N_10
REMARK                            x       y       z     vdW  Elec       q    Type
REMARK                         _______ _______ _______ _____ _____    ______ ____
ROOT
ATOM      1  C   UNL     1      -1.224  -0.457   0.793  0.00  0.00    +0.004 C 
ENDROOT
BRANCH   1   2
ATOM      2  C   UNL     1       0.217  -0.234   0.401  0.00  0.00    -0.024 C 
ATOM      3  C   UNL     1       0.947  -1.285  -0.131  0.00  0.00    -0.004 C 
ATOM      4  C   UNL     1       0.783   1.018   0.581  0.00  0.00    -0.004 C 
ATOM      5  C   UNL     1       2.278  -1.079  -0.493  0.00  0.00    -0.000 C 
ATOM      6  C   UNL     1       2.115   1.224   0.218  0.00  0.00    -0.000 C 
ATOM      7  C   UNL     1       2.862   0.176  -0.319  0.00  0.00    -0.000 C 
ENDBRANCH   1   2
BRANCH   1   8
ATOM      8  C   UNL     1      -2.223  -0.177  -0.344  0.00  0.00    -0.061 C 
ATOM      9  C   UNL     1      -2.170   1.273  -0.826  0.00  0.00    -0.024 C 
BRANCH   8  10
ATOM     10  N   UNL     1      -3.584  -0.459   0.120  0.00  0.00    +0.382 N 
ATOM     11  H   UNL     1      -3.639  -1.424   0.446  0.00  0.00    -0.089 HD
ATOM     12  H   UNL     1      -4.241  -0.323  -0.648  0.00  0.00    -0.089 HD
ATOM     13  H   UNL     1      -3.820   0.172   0.885  0.00  0.00    -0.089 HD
ENDBRANCH   8  10
ENDBRANCH   1   8
TORSDOF 3
