REMARK  Name = 5329102
REMARK  7 active torsions:
REMARK  status: ('A' for Active; 'I' for Inactive)
REMARK    1  A    between atoms: C_2  and  C_24
REMARK    2  A    between atoms: C_4  and  C_13
REMARK    3  A    between atoms: N_23  and  C_26
REMARK    4  A    between atoms: C_26  and  C_27
REMARK    5  A    between atoms: C_27  and  N_28
REMARK    6  A    between atoms: N_28  and  C_30
REMARK    7  A    between atoms: N_28  and  C_32
REMARK                            x       y       z     vdW  Elec       q    Type
REMARK                         _______ _______ _______ _____ _____    ______ ____
ROOT
ATOM      1  N   UNL     1       0.675   1.783   0.951  0.00  0.00    -0.357 N 
ATOM      2  C   UNL     1      -1.188   0.925   0.098  0.00  0.00    +0.062 A 
ATOM      3  C   UNL     1      -0.186  -0.076   0.094  0.00  0.00    -0.001 A 
ATOM      4  C   UNL     1       0.928   0.491   0.622  0.00  0.00    +0.053 A 
ATOM      5  C   UNL     1      -0.628   2.065   0.633  0.00  0.00    +0.038 A 
ATOM      6  C   UNL     1      -0.337  -1.464  -0.392  0.00  0.00    +0.033 C 
ATOM      7  C   UNL     1      -1.196   3.405   0.879  0.00  0.00    +0.050 C 
ATOM      8  H   UNL     1       1.319   2.411   1.352  0.00  0.00    +0.166 HD
ENDROOT
BRANCH   4  13
ATOM      9  F   UNL     1       7.342  -1.933   2.024  0.00  0.00    -0.204 F 
ATOM     10  O   UNL     1       2.166   1.221  -1.822  0.00  0.00    -0.270 OA
ATOM     11  N   UNL     1       4.445   0.602  -1.871  0.00  0.00    -0.280 N 
ATOM     12  C   UNL     1       3.274   0.093   0.028  0.00  0.00    +0.056 C 
ATOM     13  C   UNL     1       2.252   0.005   0.881  0.00  0.00    +0.021 C 
ATOM     14  C   UNL     1       4.647  -0.369   0.203  0.00  0.00    +0.020 C 
ATOM     15  C   UNL     1       5.314  -0.036  -0.979  0.00  0.00    +0.051 C 
ATOM     16  C   UNL     1       3.162   0.724  -1.329  0.00  0.00    +0.250 C 
ATOM     17  C   UNL     1       5.311  -1.011   1.232  0.00  0.00    +0.031 C 
ATOM     18  C   UNL     1       6.650  -0.323  -1.180  0.00  0.00    +0.017 C 
ATOM     19  C   UNL     1       6.665  -1.312   1.049  0.00  0.00    +0.140 C 
ATOM     20  C   UNL     1       7.328  -0.971  -0.145  0.00  0.00    +0.031 C 
ATOM     21  H   UNL     1       4.704   0.924  -2.765  0.00  0.00    +0.155 HD
ENDBRANCH   4  13
BRANCH   2  24
ATOM     22  O   UNL     1      -3.168   1.785  -0.848  0.00  0.00    -0.270 OA
ATOM     23  N   UNL     1      -3.148  -0.445  -0.262  0.00  0.00    -0.303 N 
ATOM     24  C   UNL     1      -2.545   0.820  -0.359  0.00  0.00    +0.247 C 
ATOM     25  H   UNL     1      -2.627  -1.182   0.129  0.00  0.00    +0.150 HD
BRANCH  23  26
ATOM     26  C   UNL     1      -4.497  -0.718  -0.706  0.00  0.00    +0.067 C 
BRANCH  26  27
ATOM     27  C   UNL     1      -5.503  -0.487   0.412  0.00  0.00    -0.056 C 
BRANCH  27  28
ATOM     28  N   UNL     1      -6.856  -0.741  -0.064  0.00  0.00    +0.388 N 
ATOM     29  H   UNL     1      -7.044  -0.105  -0.839  0.00  0.00    -0.080 HD
BRANCH  28  30
ATOM     30  C   UNL     1      -7.833  -0.484   0.996  0.00  0.00    -0.077 C 
ATOM     31  C   UNL     1      -7.719   0.939   1.515  0.00  0.00    -0.025 C 
ENDBRANCH  28  30
BRANCH  28  32
ATOM     32  C   UNL     1      -6.984  -2.116  -0.549  0.00  0.00    -0.077 C 
ATOM     33  C   UNL     1      -8.372  -2.374  -1.111  0.00  0.00    -0.025 C 
ENDBRANCH  28  32
ENDBRANCH  27  28
ENDBRANCH  26  27
ENDBRANCH  23  26
ENDBRANCH   2  24
TORSDOF 7
