48041
  -OEChem-10051719323D

 54 56  0     1  0  0  0  0  0999 V2000
   -0.2601   -3.4925    0.6101 O   0  0  0  0  0  0  0  0  0  0  0  0
   -5.5682   -0.2317   -0.1082 O   0  0  0  0  0  0  0  0  0  0  0  0
    0.6082    2.8910   -0.8451 N   0  0  1  0  0  0  0  0  0  0  0  0
    0.6456   -1.4477   -0.1142 N   0  0  0  0  0  0  0  0  0  0  0  0
    1.9012    2.9854   -0.1390 C   0  0  1  0  0  0  0  0  0  0  0  0
    1.8728    3.9499    1.0610 C   0  0  0  0  0  0  0  0  0  0  0  0
    0.7073    3.6794    2.0075 C   0  0  0  0  0  0  0  0  0  0  0  0
   -0.5218    2.6444    0.0630 C   0  0  0  0  0  0  0  0  0  0  0  0
   -0.6074    3.6175    1.2400 C   0  0  0  0  0  0  0  0  0  0  0  0
    2.3791    1.5866    0.2760 C   0  0  0  0  0  0  0  0  0  0  0  0
    2.4456    0.6557   -0.9284 C   0  0  0  0  0  0  0  0  0  0  0  0
    0.3680    4.0556   -1.6980 C   0  0  0  0  0  0  0  0  0  0  0  0
    2.9235   -0.7172   -0.5299 C   0  0  0  0  0  0  0  0  0  0  0  0
    2.0198   -1.6983   -0.1458 C   0  0  0  0  0  0  0  0  0  0  0  0
    4.2878   -0.9747   -0.5572 C   0  0  0  0  0  0  0  0  0  0  0  0
    2.4886   -2.9606    0.2180 C   0  0  0  0  0  0  0  0  0  0  0  0
    4.7565   -2.2371   -0.1932 C   0  0  0  0  0  0  0  0  0  0  0  0
    3.8570   -3.2301    0.1945 C   0  0  0  0  0  0  0  0  0  0  0  0
   -0.3816   -2.3268    0.2489 C   0  0  0  0  0  0  0  0  0  0  0  0
   -1.7571   -1.7715    0.1531 C   0  0  0  0  0  0  0  0  0  0  0  0
   -2.7404   -2.2868    0.9714 C   0  0  0  0  0  0  0  0  0  0  0  0
   -2.0054   -0.7593   -0.7501 C   0  0  0  0  0  0  0  0  0  0  0  0
   -4.0313   -1.7657    0.8825 C   0  0  0  0  0  0  0  0  0  0  0  0
   -3.2962   -0.2382   -0.8390 C   0  0  0  0  0  0  0  0  0  0  0  0
   -4.3092   -0.7414   -0.0227 C   0  0  0  0  0  0  0  0  0  0  0  0
   -5.7824    0.8140   -1.0551 C   0  0  0  0  0  0  0  0  0  0  0  0
    2.6580    3.3638   -0.8408 H   0  0  0  0  0  0  0  0  0  0  0  0
    1.7972    4.9818    0.6951 H   0  0  0  0  0  0  0  0  0  0  0  0
    2.8161    3.8913    1.6172 H   0  0  0  0  0  0  0  0  0  0  0  0
    0.8681    2.7350    2.5402 H   0  0  0  0  0  0  0  0  0  0  0  0
    0.6567    4.4654    2.7693 H   0  0  0  0  0  0  0  0  0  0  0  0
   -0.4430    1.6249    0.4577 H   0  0  0  0  0  0  0  0  0  0  0  0
   -1.4659    2.6599   -0.4957 H   0  0  0  0  0  0  0  0  0  0  0  0
    1.7293    1.1562    1.0471 H   0  0  0  0  0  0  0  0  0  0  0  0
    3.3743    1.6690    0.7335 H   0  0  0  0  0  0  0  0  0  0  0  0
   -0.8711    4.6195    0.8811 H   0  0  0  0  0  0  0  0  0  0  0  0
   -1.4117    3.3051    1.9160 H   0  0  0  0  0  0  0  0  0  0  0  0
    1.5042    0.5917   -1.4831 H   0  0  0  0  0  0  0  0  0  0  0  0
    3.1523    1.0717   -1.6607 H   0  0  0  0  0  0  0  0  0  0  0  0
    0.2957    4.9930   -1.1376 H   0  0  0  0  0  0  0  0  0  0  0  0
    1.1708    4.1608   -2.4364 H   0  0  0  0  0  0  0  0  0  0  0  0
   -0.5584    3.9272   -2.2692 H   0  0  0  0  0  0  0  0  0  0  0  0
    4.9993   -0.2094   -0.8546 H   0  0  0  0  0  0  0  0  0  0  0  0
    1.8639   -3.7847    0.5300 H   0  0  0  0  0  0  0  0  0  0  0  0
    5.8221   -2.4466   -0.2109 H   0  0  0  0  0  0  0  0  0  0  0  0
    0.3777   -0.4932   -0.3197 H   0  0  0  0  0  0  0  0  0  0  0  0
    4.2236   -4.2126    0.4777 H   0  0  0  0  0  0  0  0  0  0  0  0
   -2.5397   -3.0795    1.6858 H   0  0  0  0  0  0  0  0  0  0  0  0
   -1.2584   -0.3672   -1.4325 H   0  0  0  0  0  0  0  0  0  0  0  0
   -4.8159   -2.1604    1.5222 H   0  0  0  0  0  0  0  0  0  0  0  0
   -3.4447    0.5506   -1.5687 H   0  0  0  0  0  0  0  0  0  0  0  0
   -6.8372    1.1001   -0.9875 H   0  0  0  0  0  0  0  0  0  0  0  0
   -5.1933    1.7047   -0.8113 H   0  0  0  0  0  0  0  0  0  0  0  0
   -5.6096    0.4699   -2.0804 H   0  0  0  0  0  0  0  0  0  0  0  0
  1 19  2  0  0  0  0
  2 25  1  0  0  0  0
  2 26  1  0  0  0  0
  3  5  1  0  0  0  0
  3  8  1  0  0  0  0
  3 12  1  0  0  0  0
  4 14  1  0  0  0  0
  4 19  1  0  0  0  0
  4 46  1  0  0  0  0
  5  6  1  0  0  0  0
  5 10  1  0  0  0  0
  5 27  1  0  0  0  0
  6  7  1  0  0  0  0
  6 28  1  0  0  0  0
  6 29  1  0  0  0  0
  7  9  1  0  0  0  0
  7 30  1  0  0  0  0
  7 31  1  0  0  0  0
  8  9  1  0  0  0  0
  8 32  1  0  0  0  0
  8 33  1  0  0  0  0
  9 36  1  0  0  0  0
  9 37  1  0  0  0  0
 10 11  1  0  0  0  0
 10 34  1  0  0  0  0
 10 35  1  0  0  0  0
 11 13  1  0  0  0  0
 11 38  1  0  0  0  0
 11 39  1  0  0  0  0
 12 40  1  0  0  0  0
 12 41  1  0  0  0  0
 12 42  1  0  0  0  0
 13 14  1  0  0  0  0
 13 15  2  0  0  0  0
 14 16  2  0  0  0  0
 15 17  1  0  0  0  0
 15 43  1  0  0  0  0
 16 18  1  0  0  0  0
 16 44  1  0  0  0  0
 17 18  2  0  0  0  0
 17 45  1  0  0  0  0
 18 47  1  0  0  0  0
 19 20  1  0  0  0  0
 20 21  2  0  0  0  0
 20 22  1  0  0  0  0
 21 23  1  0  0  0  0
 21 48  1  0  0  0  0
 22 24  2  0  0  0  0
 22 49  1  0  0  0  0
 23 25  2  0  0  0  0
 23 50  1  0  0  0  0
 24 25  1  0  0  0  0
 24 51  1  0  0  0  0
 26 52  1  0  0  0  0
 26 53  1  0  0  0  0
 26 54  1  0  0  0  0
M  END
> <DATABASE_ID>
DB01228

> <DATABASE_NAME>
drugbank

> <ORIGINAL_SOURCE>
PUBCHEM

> <ORIGINAL_SOURCE_URL>
https://pubchem.ncbi.nlm.nih.gov/rest/pug/compound/inchikey/PJWPNDMDCLXCOM-UHFFFAOYSA-N/SDF?record_type=3d

> <SMILES>
COC1=CC=C(C=C1)C(=O)NC1=CC=CC=C1CCC1CCCCN1C

> <INCHI_IDENTIFIER>
InChI=1S/C22H28N2O2/c1-24-16-6-5-8-19(24)13-10-17-7-3-4-9-21(17)23-22(25)18-11-14-20(26-2)15-12-18/h3-4,7,9,11-12,14-15,19H,5-6,8,10,13,16H2,1-2H3,(H,23,25)

> <INCHI_KEY>
PJWPNDMDCLXCOM-UHFFFAOYSA-N

> <FORMULA>
C22H28N2O2

> <MOLECULAR_WEIGHT>
352.4699

> <EXACT_MASS>
352.21507815

> <JCHEM_ACCEPTOR_COUNT>
3

> <JCHEM_AVERAGE_POLARIZABILITY>
41.04076399848722

> <JCHEM_BIOAVAILABILITY>
1

> <JCHEM_DONOR_COUNT>
1

> <JCHEM_FORMAL_CHARGE>
0

> <JCHEM_GHOSE_FILTER>
1

> <JCHEM_IUPAC>
4-methoxy-N-{2-[2-(1-methylpiperidin-2-yl)ethyl]phenyl}benzamide

> <ALOGPS_LOGP>
4.29

> <JCHEM_LOGP>
4.492219194666667

> <ALOGPS_LOGS>
-4.94

> <JCHEM_MDDR_LIKE_RULE>
1

> <JCHEM_NUMBER_OF_RINGS>
3

> <JCHEM_PHYSIOLOGICAL_CHARGE>
1

> <JCHEM_PKA_STRONGEST_ACIDIC>
12.370311685885802

> <JCHEM_PKA_STRONGEST_BASIC>
9.483811215211283

> <JCHEM_POLAR_SURFACE_AREA>
41.57

> <JCHEM_REFRACTIVITY>
107.76559999999998

> <JCHEM_ROTATABLE_BOND_COUNT>
6

> <JCHEM_RULE_OF_FIVE>
1

> <ALOGPS_SOLUBILITY>
4.01e-03 g/l

> <JCHEM_TRADITIONAL_IUPAC>
encainide

> <JCHEM_VEBER_RULE>
0

> <DRUGBANK_ID>
DB01228

> <SECONDARY_ACCESSION_NUMBERS>
APRD00613

> <DRUG_GROUPS>
approved; investigational; withdrawn

> <GENERIC_NAME>
Encainide

> <SYNONYMS>
(±)-2'-[2-(1-methyl-2-piperidyl)ethyl]-p-anisanilide; (±)-4-methoxy-N-(2-(2-(1-methyl-2-piperidinyl)ethyl)phenyl)benzamide; 4-methoxy-2'-[2-(1-methyl-2-piperidyl)ethyl]benzanilide; 4-Methoxy-N-{2-[2-(1-methyl-piperidin-2-yl)-ethyl]-phenyl}-benzamide; Encainida; Encainide; Encainidum

> <PRODUCTS>
Enkaid

> <SALTS>
Encainide hydrochloride

$$$$
