REMARK  Name = 446167
REMARK  6 active torsions:
REMARK  status: ('A' for Active; 'I' for Inactive)
REMARK    1  A    between atoms: C_2  and  C_3
REMARK    2  A    between atoms: C_2  and  C_9
REMARK    3  A    between atoms: C_3  and  P_4
REMARK    4  A    between atoms: P_4  and  O_7
REMARK    5  A    between atoms: C_9  and  C_11
REMARK    6  A    between atoms: C_11  and  O_12
REMARK                            x       y       z     vdW  Elec       q    Type
REMARK                         _______ _______ _______ _____ _____    ______ ____
ROOT
ATOM      1  O   UNL     1       0.273   1.090  -0.491  0.00  0.00    -0.295 OA
ATOM      2  C   UNL     1       0.343  -0.119  -0.277  0.00  0.00    +0.172 C 
ENDROOT
BRANCH   2   3
ATOM      3  C   UNL     1      -0.890  -0.949  -0.017  0.00  0.00    +0.152 C 
BRANCH   3   4
ATOM      4  P   UNL     1      -2.424  -0.001  -0.006  0.00  0.00    +0.227 P 
ATOM      5  O   UNL     1      -2.610   0.830  -1.229  0.00  0.00    -0.289 OA
ATOM      6  C   UNL     1      -3.717  -1.169   0.314  0.00  0.00    +0.097 C 
BRANCH   4   7
ATOM      7  O   UNL     1      -2.305   0.833   1.368  0.00  0.00    -0.342 OA
ATOM      8  H   UNL     1      -1.611   1.504   1.280  0.00  0.00    +0.218 HD
ENDBRANCH   4   7
ENDBRANCH   3   4
ENDBRANCH   2   3
BRANCH   2   9
ATOM      9  C   UNL     1       1.660  -0.865  -0.276  0.00  0.00    +0.174 C 
BRANCH   9  11
ATOM     10  O   UNL     1       2.798   1.130   0.465  0.00  0.00    -0.250 OA
ATOM     11  C   UNL     1       2.857  -0.041   0.116  0.00  0.00    +0.321 C 
BRANCH  11  12
ATOM     12  O   UNL     1       4.017  -0.740   0.035  0.00  0.00    -0.480 OA
ATOM     13  H   UNL     1       4.006  -1.636  -0.239  0.00  0.00    +0.295 HD
ENDBRANCH  11  12
ENDBRANCH   9  11
ENDBRANCH   2   9
TORSDOF 6
