10607
  -OEChem-10051719313D

 52 56  0     1  0  0  0  0  0999 V2000
   -1.0630    3.9737    0.2696 O   0  0  0  0  0  0  0  0  0  0  0  0
    2.2343    1.9453    2.4332 O   0  0  0  0  0  0  0  0  0  0  0  0
   -1.8988    2.9789   -1.6323 O   0  0  0  0  0  0  0  0  0  0  0  0
    3.8423   -2.6359   -1.5197 O   0  0  0  0  0  0  0  0  0  0  0  0
    5.1930   -1.6656    0.2226 O   0  0  0  0  0  0  0  0  0  0  0  0
   -1.6717   -2.0603    2.2287 O   0  0  0  0  0  0  0  0  0  0  0  0
   -4.2501   -0.8384   -1.6180 O   0  0  0  0  0  0  0  0  0  0  0  0
   -4.0317   -2.1981    0.7844 O   0  0  0  0  0  0  0  0  0  0  0  0
    0.5761    2.4168    0.7724 C   0  0  1  0  0  0  0  0  0  0  0  0
    0.2502    2.2964   -0.7005 C   0  0  1  0  0  0  0  0  0  0  0  0
    0.3115    0.8357   -1.1629 C   0  0  1  0  0  0  0  0  0  0  0  0
    2.0357    2.0739    1.0276 C   0  0  2  0  0  0  0  0  0  0  0  0
    1.6461    0.2163   -0.7248 C   0  0  0  0  0  0  0  0  0  0  0  0
    0.1321    3.8313    1.0608 C   0  0  0  0  0  0  0  0  0  0  0  0
    2.4402    0.7864    0.3205 C   0  0  0  0  0  0  0  0  0  0  0  0
   -1.0366    3.0769   -0.7747 C   0  0  0  0  0  0  0  0  0  0  0  0
   -0.8420    0.0300   -0.6452 C   0  0  0  0  0  0  0  0  0  0  0  0
    2.0822   -0.9528   -1.3793 C   0  0  0  0  0  0  0  0  0  0  0  0
    3.6639    0.1830    0.6679 C   0  0  0  0  0  0  0  0  0  0  0  0
    3.2799   -1.5147   -0.9920 C   0  0  0  0  0  0  0  0  0  0  0  0
    4.0486   -0.9622    0.0018 C   0  0  0  0  0  0  0  0  0  0  0  0
   -2.0229   -0.0318   -1.3773 C   0  0  0  0  0  0  0  0  0  0  0  0
   -0.7222   -0.6489    0.5629 C   0  0  0  0  0  0  0  0  0  0  0  0
   -1.7955   -1.3983    1.0444 C   0  0  0  0  0  0  0  0  0  0  0  0
   -3.0963   -0.7810   -0.8958 C   0  0  0  0  0  0  0  0  0  0  0  0
   -2.9828   -1.4645    0.3150 C   0  0  0  0  0  0  0  0  0  0  0  0
    5.0540   -2.7270   -0.7435 C   0  0  0  0  0  0  0  0  0  0  0  0
   -2.0486   -1.3533    3.4086 C   0  0  0  0  0  0  0  0  0  0  0  0
   -5.2361    0.1550   -1.3444 C   0  0  0  0  0  0  0  0  0  0  0  0
   -4.0918   -3.5669    0.3900 C   0  0  0  0  0  0  0  0  0  0  0  0
   -0.0712    1.7716    1.3799 H   0  0  0  0  0  0  0  0  0  0  0  0
    0.9801    2.8752   -1.2884 H   0  0  0  0  0  0  0  0  0  0  0  0
    0.2895    0.8287   -2.2619 H   0  0  0  0  0  0  0  0  0  0  0  0
    2.6868    2.8800    0.6688 H   0  0  0  0  0  0  0  0  0  0  0  0
   -0.1120    3.9819    2.1164 H   0  0  0  0  0  0  0  0  0  0  0  0
    0.8545    4.5912    0.7444 H   0  0  0  0  0  0  0  0  0  0  0  0
    1.4933   -1.4029   -2.1724 H   0  0  0  0  0  0  0  0  0  0  0  0
    4.2995    0.6062    1.4395 H   0  0  0  0  0  0  0  0  0  0  0  0
    1.8000    1.1261    2.7274 H   0  0  0  0  0  0  0  0  0  0  0  0
   -2.1135    0.4799   -2.3317 H   0  0  0  0  0  0  0  0  0  0  0  0
    0.1758   -0.6176    1.1713 H   0  0  0  0  0  0  0  0  0  0  0  0
    5.0607   -3.6868   -0.2142 H   0  0  0  0  0  0  0  0  0  0  0  0
    5.9113   -2.6952   -1.4257 H   0  0  0  0  0  0  0  0  0  0  0  0
   -1.4243   -0.4634    3.5378 H   0  0  0  0  0  0  0  0  0  0  0  0
   -1.8980   -2.0140    4.2667 H   0  0  0  0  0  0  0  0  0  0  0  0
   -3.1047   -1.0688    3.3667 H   0  0  0  0  0  0  0  0  0  0  0  0
   -6.0955   -0.0265   -1.9956 H   0  0  0  0  0  0  0  0  0  0  0  0
   -4.8419    1.1543   -1.5548 H   0  0  0  0  0  0  0  0  0  0  0  0
   -5.5668    0.0932   -0.3028 H   0  0  0  0  0  0  0  0  0  0  0  0
   -4.9806   -4.0149    0.8429 H   0  0  0  0  0  0  0  0  0  0  0  0
   -3.2088   -4.1088    0.7431 H   0  0  0  0  0  0  0  0  0  0  0  0
   -4.1738   -3.6512   -0.6982 H   0  0  0  0  0  0  0  0  0  0  0  0
  1 14  1  0  0  0  0
  1 16  1  0  0  0  0
  2 12  1  0  0  0  0
  2 39  1  0  0  0  0
  3 16  2  0  0  0  0
  4 20  1  0  0  0  0
  4 27  1  0  0  0  0
  5 21  1  0  0  0  0
  5 27  1  0  0  0  0
  6 24  1  0  0  0  0
  6 28  1  0  0  0  0
  7 25  1  0  0  0  0
  7 29  1  0  0  0  0
  8 26  1  0  0  0  0
  8 30  1  0  0  0  0
  9 10  1  0  0  0  0
  9 12  1  0  0  0  0
  9 14  1  0  0  0  0
  9 31  1  0  0  0  0
 10 11  1  0  0  0  0
 10 16  1  0  0  0  0
 10 32  1  0  0  0  0
 11 13  1  0  0  0  0
 11 17  1  0  0  0  0
 11 33  1  0  0  0  0
 12 15  1  0  0  0  0
 12 34  1  0  0  0  0
 13 15  1  0  0  0  0
 13 18  2  0  0  0  0
 14 35  1  0  0  0  0
 14 36  1  0  0  0  0
 15 19  2  0  0  0  0
 17 22  2  0  0  0  0
 17 23  1  0  0  0  0
 18 20  1  0  0  0  0
 18 37  1  0  0  0  0
 19 21  1  0  0  0  0
 19 38  1  0  0  0  0
 20 21  2  0  0  0  0
 22 25  1  0  0  0  0
 22 40  1  0  0  0  0
 23 24  2  0  0  0  0
 23 41  1  0  0  0  0
 24 26  1  0  0  0  0
 25 26  2  0  0  0  0
 27 42  1  0  0  0  0
 27 43  1  0  0  0  0
 28 44  1  0  0  0  0
 28 45  1  0  0  0  0
 28 46  1  0  0  0  0
 29 47  1  0  0  0  0
 29 48  1  0  0  0  0
 29 49  1  0  0  0  0
 30 50  1  0  0  0  0
 30 51  1  0  0  0  0
 30 52  1  0  0  0  0
M  END
> <DATABASE_ID>
DB01179

> <DATABASE_NAME>
drugbank

> <ORIGINAL_SOURCE>
PUBCHEM

> <ORIGINAL_SOURCE_URL>
https://pubchem.ncbi.nlm.nih.gov/rest/pug/compound/inchikey/YJGVMLPVUAXIQN-XVVDYKMHSA-N/SDF?record_type=3d

> <SMILES>
[H][C@]12COC(=O)[C@]1([H])[C@H](C1=CC(OC)=C(OC)C(OC)=C1)C1=CC3=C(OCO3)C=C1[C@@H]2O

> <INCHI_IDENTIFIER>
InChI=1S/C22H22O8/c1-25-16-4-10(5-17(26-2)21(16)27-3)18-11-6-14-15(30-9-29-14)7-12(11)20(23)13-8-28-22(24)19(13)18/h4-7,13,18-20,23H,8-9H2,1-3H3/t13-,18+,19-,20-/m0/s1

> <INCHI_KEY>
YJGVMLPVUAXIQN-XVVDYKMHSA-N

> <FORMULA>
C22H22O8

> <MOLECULAR_WEIGHT>
414.4053

> <EXACT_MASS>
414.13146768

> <JCHEM_ACCEPTOR_COUNT>
7

> <JCHEM_AVERAGE_POLARIZABILITY>
41.70556165338746

> <JCHEM_BIOAVAILABILITY>
1

> <JCHEM_DONOR_COUNT>
1

> <JCHEM_FORMAL_CHARGE>
0

> <JCHEM_GHOSE_FILTER>
1

> <JCHEM_IUPAC>
(10R,11R,15R,16R)-16-hydroxy-10-(3,4,5-trimethoxyphenyl)-4,6,13-trioxatetracyclo[7.7.0.0³,⁷.0¹¹,¹⁵]hexadeca-1,3(7),8-trien-12-one

> <ALOGPS_LOGP>
2.37

> <JCHEM_LOGP>
1.6227982693333332

> <ALOGPS_LOGS>
-3.56

> <JCHEM_MDDR_LIKE_RULE>
0

> <JCHEM_NUMBER_OF_RINGS>
5

> <JCHEM_PHYSIOLOGICAL_CHARGE>
0

> <JCHEM_PKA_STRONGEST_ACIDIC>
14.015751296514601

> <JCHEM_PKA_STRONGEST_BASIC>
-3.229310382904514

> <JCHEM_POLAR_SURFACE_AREA>
92.68000000000002

> <JCHEM_REFRACTIVITY>
103.905

> <JCHEM_ROTATABLE_BOND_COUNT>
4

> <JCHEM_RULE_OF_FIVE>
1

> <ALOGPS_SOLUBILITY>
1.14e-01 g/l

> <JCHEM_TRADITIONAL_IUPAC>
condylox

> <JCHEM_VEBER_RULE>
0

> <DRUGBANK_ID>
DB01179

> <SECONDARY_ACCESSION_NUMBERS>
APRD01189; DB08417

> <DRUG_GROUPS>
approved

> <GENERIC_NAME>
Podofilox

> <SYNONYMS>
(−)-podophyllotoxin; Podofilox; Podophyllinic acid lactone; Podophyllotoxin; PPT

> <PRODUCTS>
Condyline; Condylox; Condylox (podofilox)Topical Solution 0.5%; Podofilox; Wartec

> <INTERNATIONAL_BRANDS>
Podophyllotoxin 7

$$$$
