REMARK  Name = 151182
REMARK  6 active torsions:
REMARK  status: ('A' for Active; 'I' for Inactive)
REMARK    1  A    between atoms: C_2  and  C_13
REMARK    2  A    between atoms: C_8  and  O_11
REMARK    3  A    between atoms: C_13  and  C_14
REMARK    4  A    between atoms: C_14  and  N_15
REMARK    5  A    between atoms: N_15  and  C_17
REMARK    6  A    between atoms: N_15  and  C_20
REMARK                            x       y       z     vdW  Elec       q    Type
REMARK                         _______ _______ _______ _____ _____    ______ ____
ROOT
ATOM      1  N   UNL     1       0.620  -2.302  -0.261  0.00  0.00    -0.312 N 
ATOM      2  C   UNL     1       0.098  -0.290   0.517  0.00  0.00    -0.008 C 
ATOM      3  C   UNL     1       1.490  -0.306   0.223  0.00  0.00    +0.014 C 
ATOM      4  C   UNL     1       1.792  -1.580  -0.264  0.00  0.00    +0.048 C 
ATOM      5  C   UNL     1      -0.409  -1.531   0.209  0.00  0.00    +0.058 C 
ATOM      6  C   UNL     1       2.526   0.644   0.324  0.00  0.00    +0.038 C 
ATOM      7  C   UNL     1       3.083  -1.953  -0.655  0.00  0.00    +0.018 C 
ATOM      8  C   UNL     1       3.822   0.285  -0.064  0.00  0.00    +0.139 C 
ATOM      9  C   UNL     1       4.094  -0.994  -0.546  0.00  0.00    +0.038 C 
ATOM     10  H   UNL     1       0.534  -3.238  -0.555  0.00  0.00    +0.152 HD
ENDROOT
BRANCH   8  11
ATOM     11  O   UNL     1       4.829   1.199   0.032  0.00  0.00    -0.471 OA
ATOM     12  C   UNL     1       4.487   2.489   0.532  0.00  0.00    +0.252 C 
ENDBRANCH   8  11
BRANCH   2  13
ATOM     13  C   UNL     1      -0.673   0.849   1.055  0.00  0.00    +0.005 C 
BRANCH  13  14
ATOM     14  C   UNL     1      -2.165   0.522   1.255  0.00  0.00    -0.072 C 
BRANCH  14  15
ATOM     15  N   UNL     1      -2.804   0.115   0.009  0.00  0.00    +0.390 N 
ATOM     16  H   UNL     1      -2.314  -0.705  -0.349  0.00  0.00    -0.080 HD
BRANCH  15  17
ATOM     17  C   UNL     1      -2.713   1.182  -0.989  0.00  0.00    -0.058 C 
ATOM     18  C   UNL     1      -1.252   1.511  -1.280  0.00  0.00    -0.023 C 
ATOM     19  C   UNL     1      -3.463   2.412  -0.487  0.00  0.00    -0.023 C 
ENDBRANCH  15  17
BRANCH  15  20
ATOM     20  C   UNL     1      -4.204  -0.245   0.242  0.00  0.00    -0.058 C 
ATOM     21  C   UNL     1      -4.295  -1.402   1.233  0.00  0.00    -0.023 C 
ATOM     22  C   UNL     1      -4.863  -0.607  -1.085  0.00  0.00    -0.023 C 
ENDBRANCH  15  20
ENDBRANCH  14  15
ENDBRANCH  13  14
ENDBRANCH   2  13
TORSDOF 6
