REMARK  Name = 30819
REMARK  9 active torsions:
REMARK  status: ('A' for Active; 'I' for Inactive)
REMARK    1  A    between atoms: C_1  and  C_14
REMARK    2  A    between atoms: C_4  and  O_7
REMARK    3  A    between atoms: O_7  and  P_8
REMARK    4  A    between atoms: P_8  and  O_10
REMARK    5  A    between atoms: P_8  and  O_12
REMARK    6  A    between atoms: C_14  and  CA_15
REMARK    7  A    between atoms: CA_15  and  N_16
REMARK    8  A    between atoms: CA_15  and  C_21
REMARK    9  A    between atoms: C_21  and  O_22
REMARK                            x       y       z     vdW  Elec       q    Type
REMARK                         _______ _______ _______ _____ _____    ______ ____
ROOT
ATOM      1  C   UNL     1      -1.031   0.498   0.639  0.00  0.00    -0.024 C 
ATOM      2  C   UNL     1      -0.713  -0.785   1.050  0.00  0.00    -0.001 C 
ATOM      3  C   UNL     1      -0.076   1.339   0.093  0.00  0.00    -0.001 C 
ATOM      4  C   UNL     1       1.572  -0.407   0.362  0.00  0.00    +0.149 C 
ATOM      5  C   UNL     1       0.598  -1.241   0.911  0.00  0.00    +0.037 C 
ATOM      6  C   UNL     1       1.235   0.884  -0.047  0.00  0.00    +0.037 C 
ENDROOT
BRANCH   4   7
ATOM      7  O   UNL     1       2.851  -0.852   0.227  0.00  0.00    -0.403 OA
BRANCH   7   8
ATOM      8  P   UNL     1       4.077   0.006  -0.391  0.00  0.00    +0.528 P 
ATOM      9  O   UNL     1       3.889   0.463  -1.808  0.00  0.00    -0.216 OA
BRANCH   8  10
ATOM     10  O   UNL     1       4.327   1.177   0.697  0.00  0.00    -0.293 OA
ATOM     11  H   UNL     1       4.436   0.783   1.577  0.00  0.00    +0.223 HD
ENDBRANCH   8  10
BRANCH   8  12
ATOM     12  O   UNL     1       5.346  -0.973  -0.166  0.00  0.00    -0.293 OA
ATOM     13  H   UNL     1       5.400  -1.223   0.769  0.00  0.00    +0.223 HD
ENDBRANCH   8  12
ENDBRANCH   7   8
ENDBRANCH   4   7
BRANCH   1  14
ATOM     14  C   UNL     1      -2.452   0.992   0.790  0.00  0.00    +0.015 C 
BRANCH  14  15
ATOM     15  CA  UNL     1      -3.321   0.697  -0.442  0.00  0.00    +0.040 C 
BRANCH  15  16
ATOM     16  N   UNL     1      -4.483   1.582  -0.451  0.00  0.00    +0.389 N 
ATOM     17  H1  UNL     1      -4.171   2.553  -0.455  0.00  0.00    -0.088 HD
ATOM     18  H2  UNL     1      -5.048   1.410   0.381  0.00  0.00    -0.088 HD
ATOM     19  H3  UNL     1      -5.042   1.401  -1.284  0.00  0.00    -0.088 HD
ENDBRANCH  15  16
BRANCH  15  21
ATOM     20  OXT UNL     1      -4.904  -1.075   0.092  0.00  0.00    -0.253 OA
ATOM     21  C   UNL     1      -3.857  -0.724  -0.436  0.00  0.00    +0.293 C 
BRANCH  21  22
ATOM     22  O   UNL     1      -3.056  -1.581  -1.121  0.00  0.00    -0.482 OA
ATOM     23  H   UNL     1      -2.262  -1.271  -1.511  0.00  0.00    +0.295 HD
ENDBRANCH  21  22
ENDBRANCH  15  21
ENDBRANCH  14  15
ENDBRANCH   1  14
TORSDOF 9
