REMARK  Name = 4469994
REMARK  5 active torsions:
REMARK  status: ('A' for Active; 'I' for Inactive)
REMARK    1  A    between atoms: C_1  and  C_4
REMARK    2  A    between atoms: C_1  and  C_8
REMARK    3  A    between atoms: N_3  and  O_6
REMARK    4  A    between atoms: C_8  and  C_9
REMARK    5  A    between atoms: C_9  and  P_10
REMARK                            x       y       z     vdW  Elec       q    Type
REMARK                         _______ _______ _______ _____ _____    ______ ____
ROOT
ATOM      1  C   UNL     1      -1.141   0.570   0.869  0.00  0.00    +0.088 C 
ENDROOT
BRANCH   1   4
ATOM      2  O   UNL     1      -2.930   1.303  -0.587  0.00  0.00    -0.273 OA
ATOM      3  N   UNL     1      -2.996  -0.830   0.298  0.00  0.00    -0.197 N 
ATOM      4  C   UNL     1      -2.444   0.414   0.107  0.00  0.00    +0.244 C 
ATOM      5  H   UNL     1      -2.568  -1.511   0.866  0.00  0.00    +0.182 HD
BRANCH   3   6
ATOM      6  O   UNL     1      -4.207  -1.068  -0.365  0.00  0.00    -0.295 OA
ATOM      7  H   UNL     1      -4.512  -1.967  -0.168  0.00  0.00    +0.241 HD
ENDBRANCH   3   6
ENDBRANCH   1   4
BRANCH   1   8
ATOM      8  C   UNL     1       0.071   0.143   0.045  0.00  0.00    +0.023 C 
BRANCH   8   9
ATOM      9  C   UNL     1       1.379   0.342   0.798  0.00  0.00    +0.121 C 
BRANCH   9  10
ATOM     10  P   UNL     1       2.841  -0.144  -0.146  0.00  0.00    +0.395 P 
ATOM     11  O   UNL     1       2.616  -1.633  -0.440  0.00  0.00    -0.138 OA
ATOM     12  O   UNL     1       2.799   0.759  -1.386  0.00  0.00    -0.253 OA
ATOM     13  O   UNL     1       4.010   0.143   0.805  0.00  0.00    -0.138 OA
ENDBRANCH   9  10
ENDBRANCH   8   9
ENDBRANCH   1   8
TORSDOF 5
