REMARK  Name = 6613
REMARK  9 active torsions:
REMARK  status: ('A' for Active; 'I' for Inactive)
REMARK    1  A    between atoms: N_2  and  C_14
REMARK    2  A    between atoms: C_3  and  C_5
REMARK    3  A    between atoms: C_5  and  C_6
REMARK    4  A    between atoms: C_5  and  O_12
REMARK    5  A    between atoms: C_6  and  C_9
REMARK    6  A    between atoms: C_9  and  O_10
REMARK    7  A    between atoms: C_14  and  C_15
REMARK    8  A    between atoms: C_15  and  C_17
REMARK    9  A    between atoms: C_17  and  O_18
REMARK                            x       y       z     vdW  Elec       q    Type
REMARK                         _______ _______ _______ _____ _____    ______ ____
ROOT
ATOM      1  O   UNL     1      -0.485  -2.119  -1.075  0.00  0.00    -0.272 OA
ATOM      2  N   UNL     1       0.733  -1.223   0.685  0.00  0.00    -0.302 N 
ATOM      3  C   UNL     1      -0.427  -1.470  -0.032  0.00  0.00    +0.249 C 
ATOM      4  H   UNL     1       0.671  -0.690   1.511  0.00  0.00    +0.150 HD
ENDROOT
BRANCH   3   5
ATOM      5  C   UNL     1      -1.658  -0.820   0.594  0.00  0.00    +0.189 C 
BRANCH   5   6
ATOM      6  C   UNL     1      -1.981   0.602   0.045  0.00  0.00    +0.060 C 
ATOM      7  C   UNL     1      -3.244   1.133   0.765  0.00  0.00    +0.005 C 
ATOM      8  C   UNL     1      -2.294   0.554  -1.463  0.00  0.00    +0.005 C 
BRANCH   6   9
ATOM      9  C   UNL     1      -0.810   1.581   0.306  0.00  0.00    +0.140 C 
BRANCH   9  10
ATOM     10  O   UNL     1      -1.107   2.879  -0.196  0.00  0.00    -0.382 OA
ATOM     11  H   UNL     1      -0.360   3.473  -0.021  0.00  0.00    +0.210 HD
ENDBRANCH   9  10
ENDBRANCH   6   9
ENDBRANCH   5   6
BRANCH   5  12
ATOM     12  O   UNL     1      -2.753  -1.694   0.334  0.00  0.00    -0.376 OA
ATOM     13  H   UNL     1      -3.563  -1.321   0.715  0.00  0.00    +0.211 HD
ENDBRANCH   5  12
ENDBRANCH   3   5
BRANCH   2  14
ATOM     14  C   UNL     1       2.030  -1.712   0.277  0.00  0.00    +0.101 C 
BRANCH  14  15
ATOM     15  C   UNL     1       2.753  -0.725  -0.631  0.00  0.00    +0.131 C 
BRANCH  15  17
ATOM     16  O   UNL     1       3.151   0.791   1.236  0.00  0.00    -0.250 OA
ATOM     17  C   UNL     1       3.012   0.609   0.034  0.00  0.00    +0.316 C 
BRANCH  17  18
ATOM     18  O   UNL     1       3.081   1.613  -0.879  0.00  0.00    -0.480 OA
ATOM     19  H   UNL     1       2.967   1.426  -1.790  0.00  0.00    +0.295 HD
ENDBRANCH  17  18
ENDBRANCH  15  17
ENDBRANCH  14  15
ENDBRANCH   2  14
TORSDOF 9
