REMARK  Name = 13493
REMARK  10 active torsions:
REMARK  status: ('A' for Active; 'I' for Inactive)
REMARK    1  A    between atoms: N_1  and  C_13
REMARK    2  A    between atoms: C_3  and  C_21
REMARK    3  A    between atoms: C_8  and  N_12
REMARK    4  A    between atoms: C_13  and  C_14
REMARK    5  A    between atoms: C_14  and  N_15
REMARK    6  A    between atoms: N_15  and  C_17
REMARK    7  A    between atoms: N_15  and  C_19
REMARK    8  A    between atoms: C_21  and  C_22
REMARK    9  A    between atoms: C_27  and  O_28
REMARK   10  A    between atoms: O_28  and  C_29
REMARK                            x       y       z     vdW  Elec       q    Type
REMARK                         _______ _______ _______ _____ _____    ______ ____
ROOT
ATOM      1  N   UNL     1      -1.411  -0.244   0.615  0.00  0.00    -0.266 N 
ATOM      2  N   UNL     1       0.396   0.946   0.106  0.00  0.00    -0.390 NA
ATOM      3  C   UNL     1      -0.113  -0.285   0.414  0.00  0.00    +0.168 C 
ATOM      4  C   UNL     1      -1.760   1.074   0.429  0.00  0.00    +0.079 C 
ATOM      5  C   UNL     1      -0.643   1.841   0.109  0.00  0.00    +0.147 C 
ATOM      6  C   UNL     1      -3.017   1.697   0.516  0.00  0.00    -0.002 C 
ATOM      7  C   UNL     1      -0.701   3.214  -0.134  0.00  0.00    +0.053 C 
ATOM      8  C   UNL     1      -1.959   3.817  -0.043  0.00  0.00    +0.127 C 
ATOM      9  C   UNL     1      -3.098   3.075   0.276  0.00  0.00    +0.078 C 
ENDROOT
BRANCH   8  12
ATOM     10  O   UNL     1      -3.212   5.747  -0.199  0.00  0.00    -0.126 OA
ATOM     11  O   UNL     1      -1.051   5.872  -0.567  0.00  0.00    -0.126 OA
ATOM     12  N   UNL     1      -2.080   5.213  -0.281  0.00  0.00    +0.054 N 
ENDBRANCH   8  12
BRANCH   1  13
ATOM     13  C   UNL     1      -2.301  -1.327   0.957  0.00  0.00    +0.075 C 
BRANCH  13  14
ATOM     14  C   UNL     1      -2.874  -2.007  -0.283  0.00  0.00    -0.055 C 
BRANCH  14  15
ATOM     15  N   UNL     1      -3.745  -3.109   0.106  0.00  0.00    +0.388 N 
ATOM     16  H   UNL     1      -4.273  -2.821   0.931  0.00  0.00    -0.080 HD
BRANCH  15  17
ATOM     17  C   UNL     1      -4.692  -3.422  -0.966  0.00  0.00    -0.077 C 
ATOM     18  C   UNL     1      -3.969  -3.888  -2.218  0.00  0.00    -0.025 C 
ENDBRANCH  15  17
BRANCH  15  19
ATOM     19  C   UNL     1      -2.957  -4.294   0.449  0.00  0.00    -0.077 C 
ATOM     20  C   UNL     1      -3.849  -5.430   0.920  0.00  0.00    -0.025 C 
ENDBRANCH  15  19
ENDBRANCH  14  15
ENDBRANCH  13  14
ENDBRANCH   1  13
BRANCH   3  21
ATOM     21  C   UNL     1       0.680  -1.527   0.513  0.00  0.00    +0.101 C 
BRANCH  21  22
ATOM     22  C   UNL     1       2.166  -1.334   0.237  0.00  0.00    -0.014 C 
ATOM     23  C   UNL     1       3.037  -1.031   1.284  0.00  0.00    -0.001 C 
ATOM     24  C   UNL     1       2.655  -1.461  -1.063  0.00  0.00    -0.001 C 
ATOM     25  C   UNL     1       4.397  -0.854   1.030  0.00  0.00    +0.037 C 
ATOM     26  C   UNL     1       4.015  -1.285  -1.317  0.00  0.00    +0.037 C 
ATOM     27  C   UNL     1       4.886  -0.981  -0.270  0.00  0.00    +0.139 C 
BRANCH  27  28
ATOM     28  O   UNL     1       6.213  -0.810  -0.517  0.00  0.00    -0.475 OA
BRANCH  28  29
ATOM     29  C   UNL     1       6.922   0.088   0.336  0.00  0.00    +0.206 C 
ATOM     30  C   UNL     1       8.067   0.705  -0.439  0.00  0.00    +0.051 C 
ENDBRANCH  28  29
ENDBRANCH  27  28
ENDBRANCH  21  22
ENDBRANCH   3  21
TORSDOF 10
