REMARK  Name = 1615
REMARK  3 active torsions:
REMARK  status: ('A' for Active; 'I' for Inactive)
REMARK    1  A    between atoms: C_3  and  C_10
REMARK    2  A    between atoms: C_10  and  C_11
REMARK    3  A    between atoms: C_11  and  N_13
REMARK                            x       y       z     vdW  Elec       q    Type
REMARK                         _______ _______ _______ _____ _____    ______ ____
ROOT
ATOM      1  O   UNL     1       2.686  -1.601   0.294  0.00  0.00    -0.435 OA
ATOM      2  O   UNL     1       3.620   0.440  -0.585  0.00  0.00    -0.435 OA
ATOM      3  C   UNL     1      -0.329   0.476   0.537  0.00  0.00    -0.021 C 
ATOM      4  C   UNL     1       0.457  -0.673   0.655  0.00  0.00    +0.036 C 
ATOM      5  C   UNL     1       1.774  -0.591   0.252  0.00  0.00    +0.176 C 
ATOM      6  C   UNL     1       0.216   1.667   0.024  0.00  0.00    -0.001 C 
ATOM      7  C   UNL     1       2.308   0.574  -0.250  0.00  0.00    +0.176 C 
ATOM      8  C   UNL     1       1.553   1.722  -0.376  0.00  0.00    +0.040 C 
ATOM      9  C   UNL     1       3.853  -0.940  -0.238  0.00  0.00    +0.429 C 
ENDROOT
BRANCH   3  10
ATOM     10  C   UNL     1      -1.760   0.440   0.958  0.00  0.00    +0.005 C 
BRANCH  10  11
ATOM     11  C   UNL     1      -2.742   0.036  -0.166  0.00  0.00    -0.058 C 
ATOM     12  C   UNL     1      -2.457  -1.365  -0.709  0.00  0.00    -0.023 C 
BRANCH  11  13
ATOM     13  N   UNL     1      -4.120   0.065   0.334  0.00  0.00    +0.384 N 
ATOM     14  C   UNL     1      -5.057  -0.251  -0.731  0.00  0.00    -0.106 C 
ATOM     15  H   UNL     1      -4.326   0.996   0.696  0.00  0.00    -0.085 HD
ATOM     16  H   UNL     1      -4.216  -0.630   1.074  0.00  0.00    -0.085 HD
ENDBRANCH  11  13
ENDBRANCH  10  11
ENDBRANCH   3  10
TORSDOF 3
