REMARK  Name = 101989
REMARK  1 active torsions:
REMARK  status: ('A' for Active; 'I' for Inactive)
REMARK    1  A    between atoms: C_16  and  O_20
REMARK                            x       y       z     vdW  Elec       q    Type
REMARK                         _______ _______ _______ _____ _____    ______ ____
ROOT
ATOM      1  C   UNL     1       0.008  -0.476   0.262  0.00  0.00    +0.000 C 
ATOM      2  C   UNL     1      -1.448  -0.435  -0.335  0.00  0.00    +0.000 C 
ATOM      3  C   UNL     1       0.895   0.689  -0.295  0.00  0.00    +0.000 C 
ATOM      4  C   UNL     1       2.269   0.587   0.369  0.00  0.00    +0.000 C 
ATOM      5  C   UNL     1      -2.042   0.975  -0.013  0.00  0.00    +0.002 C 
ATOM      6  C   UNL     1       2.981  -0.742   0.028  0.00  0.00    +0.000 C 
ATOM      7  C   UNL     1       0.709  -1.861   0.166  0.00  0.00    +0.000 C 
ATOM      8  C   UNL     1       0.241   2.054  -0.048  0.00  0.00    +0.000 C 
ATOM      9  C   UNL     1      -1.189   2.115  -0.583  0.00  0.00    +0.000 C 
ATOM     10  C   UNL     1       2.166  -1.864   0.677  0.00  0.00    +0.000 C 
ATOM     11  C   UNL     1      -2.352  -1.496   0.352  0.00  0.00    +0.002 C 
ATOM     12  C   UNL     1      -3.516   1.113  -0.431  0.00  0.00    +0.029 C 
ATOM     13  C   UNL     1       3.333   1.660   0.152  0.00  0.00    +0.000 C 
ATOM     14  C   UNL     1      -1.426  -0.723  -1.858  0.00  0.00    +0.000 C 
ATOM     15  C   UNL     1      -3.835  -1.373  -0.020  0.00  0.00    +0.029 C 
ATOM     16  C   UNL     1      -4.388   0.033   0.210  0.00  0.00    +0.111 C 
ATOM     17  C   UNL     1       4.336  -0.426   0.607  0.00  0.00    +0.000 C 
ATOM     18  C   UNL     1       3.182  -1.020  -1.479  0.00  0.00    +0.000 C 
ATOM     19  C   UNL     1       4.544   0.901   0.626  0.00  0.00    +0.000 C 
ENDROOT
BRANCH  16  20
ATOM     20  O   UNL     1      -4.468   0.288   1.612  0.00  0.00    -0.384 OA
ATOM     21  H   UNL     1      -4.819   1.181   1.758  0.00  0.00    +0.210 HD
ENDBRANCH  16  20
TORSDOF 1
