REMARK  Name = 448406
REMARK  3 active torsions:
REMARK  status: ('A' for Active; 'I' for Inactive)
REMARK    1  A    between atoms: N_2  and  C_15
REMARK    2  A    between atoms: C_18  and  C_22
REMARK    3  A    between atoms: C_22  and  O_23
REMARK                            x       y       z     vdW  Elec       q    Type
REMARK                         _______ _______ _______ _____ _____    ______ ____
ROOT
ATOM      1  O   UNL     1      -2.646   2.704   0.312  0.00  0.00    -0.207 OA
ATOM      2  N   UNL     1      -0.127  -0.510  -0.508  0.00  0.00    -0.137 N 
ATOM      3  N   UNL     1      -1.096  -1.464  -0.509  0.00  0.00    -0.215 N 
ATOM      4  N   UNL     1      -0.657   0.752  -0.251  0.00  0.00    -0.143 NA
ATOM      5  N   UNL     1      -3.513  -1.217  -0.132  0.00  0.00    -0.309 NA
ATOM      6  N   UNL     1      -4.258   1.038   0.298  0.00  0.00    -0.251 NA
ATOM      7  N   UNL     1      -5.779  -0.704   0.261  0.00  0.00    -0.283 N 
ATOM      8  C   UNL     1      -2.287  -0.867  -0.254  0.00  0.00    +0.243 C 
ATOM      9  C   UNL     1      -1.930   0.552  -0.100  0.00  0.00    +0.241 C 
ATOM     10  C   UNL     1      -2.981   1.535   0.190  0.00  0.00    +0.239 C 
ATOM     11  C   UNL     1      -4.484  -0.252   0.144  0.00  0.00    +0.208 C 
ATOM     12  H   UNL     1      -0.956  -2.426  -0.667  0.00  0.00    +0.175 HD
ATOM     13  H   UNL     1      -5.978  -1.661   0.151  0.00  0.00    +0.156 HD
ATOM     14  H   UNL     1      -6.506  -0.069   0.455  0.00  0.00    +0.156 HD
ENDROOT
BRANCH   2  15
ATOM     15  C   UNL     1       1.210  -0.739  -0.205  0.00  0.00    +0.090 C 
ATOM     16  C   UNL     1       2.149   0.305  -0.263  0.00  0.00    +0.025 C 
ATOM     17  C   UNL     1       1.653  -2.021   0.164  0.00  0.00    +0.018 C 
ATOM     18  C   UNL     1       3.491   0.074   0.039  0.00  0.00    +0.077 C 
ATOM     19  C   UNL     1       2.995  -2.251   0.466  0.00  0.00    +0.002 C 
ATOM     20  C   UNL     1       3.914  -1.204   0.404  0.00  0.00    +0.007 C 
BRANCH  18  22
ATOM     21  O   UNL     1       4.186   2.333  -0.334  0.00  0.00    -0.245 OA
ATOM     22  C   UNL     1       4.449   1.166  -0.025  0.00  0.00    +0.338 C 
BRANCH  22  23
ATOM     23  O   UNL     1       5.710   0.772   0.302  0.00  0.00    -0.477 OA
ATOM     24  H   UNL     1       5.877  -0.121   0.532  0.00  0.00    +0.295 HD
ENDBRANCH  22  23
ENDBRANCH  18  22
ENDBRANCH   2  15
TORSDOF 3
