REMARK  Name = 444972
REMARK  4 active torsions:
REMARK  status: ('A' for Active; 'I' for Inactive)
REMARK    1  A    between atoms: C_1  and  C_4
REMARK    2  A    between atoms: C_2  and  C_8
REMARK    3  A    between atoms: C_4  and  O_5
REMARK    4  A    between atoms: C_8  and  O_9
REMARK                            x       y       z     vdW  Elec       q    Type
REMARK                         _______ _______ _______ _____ _____    ______ ____
ROOT
ATOM      1  C   UNL     1       0.558   1.226  -0.056  0.00  0.00    +0.088 C 
ATOM      2  C   UNL     1      -0.776   1.119  -0.030  0.00  0.00    +0.088 C 
ENDROOT
BRANCH   1   4
ATOM      3  O   UNL     1       1.857  -0.475  -1.081  0.00  0.00    -0.245 OA
ATOM      4  C   UNL     1       1.468   0.063  -0.054  0.00  0.00    +0.338 C 
BRANCH   4   5
ATOM      5  O   UNL     1       1.817  -0.333   1.190  0.00  0.00    -0.477 OA
ATOM      6  H   UNL     1       1.483   0.123   1.937  0.00  0.00    +0.295 HD
ENDBRANCH   4   5
ENDBRANCH   1   4
BRANCH   2   8
ATOM      7  O   UNL     1      -0.799  -1.291   0.008  0.00  0.00    -0.245 OA
ATOM      8  C   UNL     1      -1.389  -0.224   0.001  0.00  0.00    +0.338 C 
BRANCH   8   9
ATOM      9  O   UNL     1      -2.736  -0.086   0.021  0.00  0.00    -0.477 OA
ATOM     10  H   UNL     1      -3.119   0.769   0.015  0.00  0.00    +0.295 HD
ENDBRANCH   8   9
ENDBRANCH   2   8
TORSDOF 4
