62370
  -OEChem-10051719363D

 52 53  0     1  0  0  0  0  0999 V2000
   -4.9351   -1.4372   -0.0541 O   0  0  0  0  0  0  0  0  0  0  0  0
    0.8871   -0.5878   -1.0864 N   0  0  2  0  0  0  0  0  0  0  0  0
   -2.8130   -0.5110   -0.4423 N   0  0  0  0  0  0  0  0  0  0  0  0
   -0.3310   -0.3230   -0.3193 C   0  0  1  0  0  0  0  0  0  0  0  0
   -1.5448   -0.7441   -1.1510 C   0  0  0  0  0  0  0  0  0  0  0  0
    2.0682   -0.1937   -0.3201 C   0  0  0  0  0  0  0  0  0  0  0  0
   -0.2523   -1.0765    1.0079 C   0  0  0  0  0  0  0  0  0  0  0  0
    3.3521   -0.5634   -1.0639 C   0  0  0  0  0  0  0  0  0  0  0  0
    0.8476    0.1185   -2.3658 C   0  0  0  0  0  0  0  0  0  0  0  0
   -3.1521    0.8387   -0.0380 C   0  0  0  0  0  0  0  0  0  0  0  0
    4.5786   -0.1823   -0.2738 C   0  0  0  0  0  0  0  0  0  0  0  0
   -3.7108   -1.5598   -0.1429 C   0  0  0  0  0  0  0  0  0  0  0  0
   -3.0776   -2.9228    0.1224 C   0  0  0  0  0  0  0  0  0  0  0  0
   -3.9185    1.0007    1.0845 C   0  0  0  0  0  0  0  0  0  0  0  0
   -2.6864    1.8754   -0.8008 C   0  0  0  0  0  0  0  0  0  0  0  0
    5.1370    1.0752   -0.4474 C   0  0  0  0  0  0  0  0  0  0  0  0
    5.1278   -1.0953    0.6139 C   0  0  0  0  0  0  0  0  0  0  0  0
   -3.8956   -3.7768    1.0790 C   0  0  0  0  0  0  0  0  0  0  0  0
   -4.2447    2.2997    1.4741 C   0  0  0  0  0  0  0  0  0  0  0  0
   -3.0126    3.1745   -0.4109 C   0  0  0  0  0  0  0  0  0  0  0  0
    6.2714    1.4279    0.2835 C   0  0  0  0  0  0  0  0  0  0  0  0
    6.2622   -0.7425    1.3450 C   0  0  0  0  0  0  0  0  0  0  0  0
   -3.7918    3.3865    0.7264 C   0  0  0  0  0  0  0  0  0  0  0  0
    6.8340    0.5191    1.1798 C   0  0  0  0  0  0  0  0  0  0  0  0
   -0.3867    0.7463   -0.0825 H   0  0  0  0  0  0  0  0  0  0  0  0
   -1.6504   -0.2223   -2.1045 H   0  0  0  0  0  0  0  0  0  0  0  0
   -1.4634   -1.8025   -1.4230 H   0  0  0  0  0  0  0  0  0  0  0  0
    2.0542    0.8810   -0.0926 H   0  0  0  0  0  0  0  0  0  0  0  0
    2.1300   -0.7243    0.6345 H   0  0  0  0  0  0  0  0  0  0  0  0
    0.0429   -2.1232    0.8744 H   0  0  0  0  0  0  0  0  0  0  0  0
    0.4438   -0.6073    1.7115 H   0  0  0  0  0  0  0  0  0  0  0  0
   -1.2100   -1.0580    1.5377 H   0  0  0  0  0  0  0  0  0  0  0  0
    3.4470   -0.0628   -2.0322 H   0  0  0  0  0  0  0  0  0  0  0  0
    3.3735   -1.6404   -1.2784 H   0  0  0  0  0  0  0  0  0  0  0  0
    0.0714   -0.2684   -3.0318 H   0  0  0  0  0  0  0  0  0  0  0  0
    1.7448   -0.0344   -2.9696 H   0  0  0  0  0  0  0  0  0  0  0  0
    0.7042    1.1984   -2.2428 H   0  0  0  0  0  0  0  0  0  0  0  0
   -2.0793   -2.8243    0.5403 H   0  0  0  0  0  0  0  0  0  0  0  0
   -2.9922   -3.4417   -0.8390 H   0  0  0  0  0  0  0  0  0  0  0  0
   -4.2533    0.1802    1.7098 H   0  0  0  0  0  0  0  0  0  0  0  0
   -2.0978    1.7577   -1.7022 H   0  0  0  0  0  0  0  0  0  0  0  0
    4.7050    1.7914   -1.1405 H   0  0  0  0  0  0  0  0  0  0  0  0
    4.6887   -2.0794    0.7509 H   0  0  0  0  0  0  0  0  0  0  0  0
   -3.3945   -4.7325    1.2611 H   0  0  0  0  0  0  0  0  0  0  0  0
   -4.8894   -3.9873    0.6703 H   0  0  0  0  0  0  0  0  0  0  0  0
   -4.0284   -3.2677    2.0393 H   0  0  0  0  0  0  0  0  0  0  0  0
   -4.8437    2.4657    2.3648 H   0  0  0  0  0  0  0  0  0  0  0  0
   -2.6638    4.0212   -0.9951 H   0  0  0  0  0  0  0  0  0  0  0  0
    6.7161    2.4105    0.1556 H   0  0  0  0  0  0  0  0  0  0  0  0
    6.6999   -1.4497    2.0433 H   0  0  0  0  0  0  0  0  0  0  0  0
   -4.0448    4.3980    1.0305 H   0  0  0  0  0  0  0  0  0  0  0  0
    7.7171    0.7939    1.7493 H   0  0  0  0  0  0  0  0  0  0  0  0
  1 12  2  0  0  0  0
  2  4  1  0  0  0  0
  2  6  1  0  0  0  0
  2  9  1  0  0  0  0
  3  5  1  0  0  0  0
  3 10  1  0  0  0  0
  3 12  1  0  0  0  0
  4  5  1  0  0  0  0
  4  7  1  0  0  0  0
  4 25  1  0  0  0  0
  5 26  1  0  0  0  0
  5 27  1  0  0  0  0
  6  8  1  0  0  0  0
  6 28  1  0  0  0  0
  6 29  1  0  0  0  0
  7 30  1  0  0  0  0
  7 31  1  0  0  0  0
  7 32  1  0  0  0  0
  8 11  1  0  0  0  0
  8 33  1  0  0  0  0
  8 34  1  0  0  0  0
  9 35  1  0  0  0  0
  9 36  1  0  0  0  0
  9 37  1  0  0  0  0
 10 14  2  0  0  0  0
 10 15  1  0  0  0  0
 11 16  2  0  0  0  0
 11 17  1  0  0  0  0
 12 13  1  0  0  0  0
 13 18  1  0  0  0  0
 13 38  1  0  0  0  0
 13 39  1  0  0  0  0
 14 19  1  0  0  0  0
 14 40  1  0  0  0  0
 15 20  2  0  0  0  0
 15 41  1  0  0  0  0
 16 21  1  0  0  0  0
 16 42  1  0  0  0  0
 17 22  2  0  0  0  0
 17 43  1  0  0  0  0
 18 44  1  0  0  0  0
 18 45  1  0  0  0  0
 18 46  1  0  0  0  0
 19 23  2  0  0  0  0
 19 47  1  0  0  0  0
 20 23  1  0  0  0  0
 20 48  1  0  0  0  0
 21 24  2  0  0  0  0
 21 49  1  0  0  0  0
 22 24  1  0  0  0  0
 22 50  1  0  0  0  0
 23 51  1  0  0  0  0
 24 52  1  0  0  0  0
M  END
> <DATABASE_ID>
DB01502

> <DATABASE_NAME>
drugbank

> <ORIGINAL_SOURCE>
PUBCHEM

> <ORIGINAL_SOURCE_URL>
https://pubchem.ncbi.nlm.nih.gov/rest/pug/compound/inchikey/RXTHKWVSXOIHJS-UHFFFAOYSA-N/SDF?record_type=3d

> <SMILES>
CCC(=O)N(CC(C)N(C)CCC1=CC=CC=C1)C1=CC=CC=C1

> <INCHI_IDENTIFIER>
InChI=1S/C21H28N2O/c1-4-21(24)23(20-13-9-6-10-14-20)17-18(2)22(3)16-15-19-11-7-5-8-12-19/h5-14,18H,4,15-17H2,1-3H3

> <INCHI_KEY>
RXTHKWVSXOIHJS-UHFFFAOYSA-N

> <FORMULA>
C21H28N2O

> <MOLECULAR_WEIGHT>
324.4598

> <EXACT_MASS>
324.220163528

> <JCHEM_ACCEPTOR_COUNT>
2

> <JCHEM_AVERAGE_POLARIZABILITY>
38.34455972137762

> <JCHEM_BIOAVAILABILITY>
1

> <JCHEM_DONOR_COUNT>
0

> <JCHEM_FORMAL_CHARGE>
0

> <JCHEM_GHOSE_FILTER>
1

> <JCHEM_IUPAC>
N-{2-[methyl(2-phenylethyl)amino]propyl}-N-phenylpropanamide

> <ALOGPS_LOGP>
3.95

> <JCHEM_LOGP>
4.223911968333333

> <ALOGPS_LOGS>
-4.07

> <JCHEM_MDDR_LIKE_RULE>
0

> <JCHEM_NUMBER_OF_RINGS>
2

> <JCHEM_PHYSIOLOGICAL_CHARGE>
1

> <JCHEM_PKA_STRONGEST_BASIC>
8.741474410755792

> <JCHEM_POLAR_SURFACE_AREA>
23.550000000000004

> <JCHEM_REFRACTIVITY>
100.46930000000003

> <JCHEM_ROTATABLE_BOND_COUNT>
8

> <JCHEM_RULE_OF_FIVE>
1

> <ALOGPS_SOLUBILITY>
2.76e-02 g/l

> <JCHEM_TRADITIONAL_IUPAC>
diampromide

> <JCHEM_VEBER_RULE>
1

> <DRUGBANK_ID>
DB01502

> <DRUG_GROUPS>
experimental; illicit

> <GENERIC_NAME>
Diampromide

$$$$
