REMARK  Name = 444348
REMARK  6 active torsions:
REMARK  status: ('A' for Active; 'I' for Inactive)
REMARK    1  A    between atoms: O_1  and  P_2
REMARK    2  A    between atoms: O_1  and  C_8
REMARK    3  A    between atoms: P_2  and  O_4
REMARK    4  A    between atoms: P_2  and  O_6
REMARK    5  A    between atoms: C_8  and  C_11
REMARK    6  A    between atoms: C_11  and  O_12
REMARK                            x       y       z     vdW  Elec       q    Type
REMARK                         _______ _______ _______ _____ _____    ______ ____
ROOT
ATOM      1  O   UNL     1      -0.266  -0.525  -0.162  0.00  0.00    -0.264 OA
ENDROOT
BRANCH   1   2
ATOM      2  P   UNL     1      -1.803  -0.043  -0.011  0.00  0.00    +0.474 P 
ATOM      3  O   UNL     1      -2.147   1.221  -0.744  0.00  0.00    -0.227 OA
BRANCH   2   4
ATOM      4  O   UNL     1      -2.037   0.001   1.589  0.00  0.00    -0.303 OA
ATOM      5  H   UNL     1      -1.790  -0.854   1.975  0.00  0.00    +0.222 HD
ENDBRANCH   2   4
BRANCH   2   6
ATOM      6  O   UNL     1      -2.636  -1.349  -0.474  0.00  0.00    -0.303 OA
ATOM      7  H   UNL     1      -2.352  -2.115   0.048  0.00  0.00    +0.222 HD
ENDBRANCH   2   6
ENDBRANCH   1   2
BRANCH   1   8
ATOM      8  C   UNL     1       0.762   0.347   0.285  0.00  0.00    +0.224 C 
ATOM      9  C   UNL     1       0.646   1.647  -0.492  0.00  0.00    +0.045 C 
BRANCH   8  11
ATOM     10  O   UNL     1       2.244  -1.413  -0.498  0.00  0.00    -0.248 OA
ATOM     11  C   UNL     1       2.098  -0.323   0.039  0.00  0.00    +0.342 C 
BRANCH  11  12
ATOM     12  O   UNL     1       3.140   0.437   0.466  0.00  0.00    -0.479 OA
ATOM     13  H   UNL     1       2.980   1.266   0.872  0.00  0.00    +0.295 HD
ENDBRANCH  11  12
ENDBRANCH   8  11
ENDBRANCH   1   8
TORSDOF 6
