REMARK  Name = 5288320
REMARK  3 active torsions:
REMARK  status: ('A' for Active; 'I' for Inactive)
REMARK    1  A    between atoms: C_4  and  C_16
REMARK    2  A    between atoms: C_5  and  C_8
REMARK    3  A    between atoms: C_11  and  C_14
REMARK                            x       y       z     vdW  Elec       q    Type
REMARK                         _______ _______ _______ _____ _____    ______ ____
ROOT
ATOM      1  N   UNL     1       1.429  -1.898  -0.001  0.00  0.00    -0.200 N 
ATOM      2  N   UNL     1       0.465   0.063   0.000  0.00  0.00    -0.333 NA
ATOM      3  N   UNL     1       0.121  -2.198  -0.001  0.00  0.00    -0.113 NA
ATOM      4  C   UNL     1       1.625  -0.552  -0.001  0.00  0.00    +0.211 C 
ATOM      5  C   UNL     1      -0.419  -0.978  -0.001  0.00  0.00    +0.104 C 
ATOM      6  H   UNL     1       2.152  -2.565  -0.001  0.00  0.00    +0.178 HD
ENDROOT
BRANCH   5   8
ATOM      7  N   UNL     1      -4.601  -0.335   0.001  0.00  0.00    -0.233 NA
ATOM      8  C   UNL     1      -1.838  -0.759   0.000  0.00  0.00    +0.079 C 
ATOM      9  C   UNL     1      -2.345   0.535   0.000  0.00  0.00    +0.041 C 
ATOM     10  C   UNL     1      -2.710  -1.842   0.001  0.00  0.00    +0.032 C 
ATOM     11  C   UNL     1      -3.722   0.692   0.001  0.00  0.00    +0.150 C 
ATOM     12  C   UNL     1      -4.070  -1.579   0.001  0.00  0.00    +0.100 C 
BRANCH  11  14
ATOM     13  N   UNL     1      -4.806   3.046   0.000  0.00  0.00    -0.189 NA
ATOM     14  C   UNL     1      -4.318   1.988   0.000  0.00  0.00    +0.120 C 
ENDBRANCH  11  14
ENDBRANCH   5   8
BRANCH   4  16
ATOM     15  N   UNL     1       5.472   1.224   0.002  0.00  0.00    -0.242 NA
ATOM     16  C   UNL     1       2.932   0.051  -0.002  0.00  0.00    +0.049 C 
ATOM     17  C   UNL     1       3.063   1.437  -0.003  0.00  0.00    +0.025 C 
ATOM     18  C   UNL     1       4.072  -0.747   0.001  0.00  0.00    +0.025 C 
ATOM     19  C   UNL     1       4.343   1.968   0.000  0.00  0.00    +0.099 C 
ATOM     20  C   UNL     1       5.306  -0.117   0.003  0.00  0.00    +0.099 C 
ENDBRANCH   4  16
TORSDOF 3
