REMARK  Name = 5206
REMARK  4 active torsions:
REMARK  status: ('A' for Active; 'I' for Inactive)
REMARK    1  A    between atoms: C_1  and  C_5
REMARK    2  A    between atoms: C_1  and  C_9
REMARK    3  A    between atoms: C_1  and  O_10
REMARK    4  A    between atoms: O_10  and  C_12
REMARK                            x       y       z     vdW  Elec       q    Type
REMARK                         _______ _______ _______ _____ _____    ______ ____
ROOT
ATOM      1  C   UNL     1      -0.079   0.157  -0.489  0.00  0.00    +0.308 C 
ENDROOT
BRANCH   1   5
ATOM      2  F   UNL     1       1.285  -1.773  -0.389  0.00  0.00    -0.167 F 
ATOM      3  F   UNL     1       0.014  -1.347   1.328  0.00  0.00    -0.167 F 
ATOM      4  F   UNL     1      -0.871  -2.080  -0.527  0.00  0.00    -0.167 F 
ATOM      5  C   UNL     1       0.086  -1.274  -0.020  0.00  0.00    +0.431 C 
ENDBRANCH   1   5
BRANCH   1   9
ATOM      6  F   UNL     1      -2.437   0.088  -0.585  0.00  0.00    -0.167 F 
ATOM      7  F   UNL     1      -1.503   2.054  -0.432  0.00  0.00    -0.167 F 
ATOM      8  F   UNL     1      -1.530   0.717   1.292  0.00  0.00    -0.167 F 
ATOM      9  C   UNL     1      -1.395   0.764  -0.051  0.00  0.00    +0.431 C 
ENDBRANCH   1   9
BRANCH   1  10
ATOM     10  O   UNL     1       0.977   0.948   0.048  0.00  0.00    -0.309 OA
BRANCH  10  12
ATOM     11  F   UNL     1       3.203   1.278   0.176  0.00  0.00    -0.198 F 
ATOM     12  C   UNL     1       2.250   0.468  -0.353  0.00  0.00    +0.341 C 
ENDBRANCH  10  12
ENDBRANCH   1  10
TORSDOF 4
