REMARK  Name = 4235
REMARK  4 active torsions:
REMARK  status: ('A' for Active; 'I' for Inactive)
REMARK    1  A    between atoms: N_2  and  C_12
REMARK    2  A    between atoms: C_3  and  C_6
REMARK    3  A    between atoms: C_12  and  C_13
REMARK    4  A    between atoms: C_13  and  N_15
REMARK                            x       y       z     vdW  Elec       q    Type
REMARK                         _______ _______ _______ _____ _____    ______ ____
ROOT
ATOM      1  O   UNL     1       0.831  -1.449  -1.365  0.00  0.00    -0.270 OA
ATOM      2  N   UNL     1       0.225   0.586  -0.437  0.00  0.00    -0.303 N 
ATOM      3  C   UNL     1       1.115  -0.413  -0.770  0.00  0.00    +0.246 C 
ATOM      4  H   UNL     1       0.555   1.380   0.043  0.00  0.00    +0.150 HD
ENDROOT
BRANCH   3   6
ATOM      5 CL   UNL     1       6.744   0.491   0.985  0.00  0.00    -0.082 Cl
ATOM      6  C   UNL     1       2.518  -0.188  -0.333  0.00  0.00    +0.053 C 
ATOM      7  C   UNL     1       3.327  -1.281  -0.101  0.00  0.00    +0.005 C 
ATOM      8  C   UNL     1       2.966   1.107  -0.173  0.00  0.00    +0.005 C 
ATOM      9  C   UNL     1       4.643  -1.070   0.310  0.00  0.00    +0.012 C 
ATOM     10  C   UNL     1       4.282   1.318   0.237  0.00  0.00    +0.012 C 
ATOM     11  C   UNL     1       5.121   0.230   0.479  0.00  0.00    +0.058 C 
ENDBRANCH   3   6
BRANCH   2  12
ATOM     12  C   UNL     1      -1.191   0.500  -0.773  0.00  0.00    +0.067 C 
BRANCH  12  13
ATOM     13  C   UNL     1      -1.964  -0.176   0.352  0.00  0.00    -0.055 C 
BRANCH  13  15
ATOM     14  O   UNL     1      -6.125   0.343   0.523  0.00  0.00    -0.358 OA
ATOM     15  N   UNL     1      -3.384  -0.228   0.011  0.00  0.00    +0.391 N 
ATOM     16  C   UNL     1      -3.930   1.126  -0.153  0.00  0.00    -0.045 C 
ATOM     17  C   UNL     1      -4.141  -0.955   1.039  0.00  0.00    -0.045 C 
ATOM     18  C   UNL     1      -5.415   1.047  -0.497  0.00  0.00    +0.119 C 
ATOM     19  C   UNL     1      -5.621  -0.986   0.666  0.00  0.00    +0.119 C 
ATOM     20  H   UNL     1      -3.474  -0.726  -0.875  0.00  0.00    -0.079 HD
ENDBRANCH  13  15
ENDBRANCH  12  13
ENDBRANCH   2  12
TORSDOF 4
