REMARK  Name = 62065
REMARK  5 active torsions:
REMARK  status: ('A' for Active; 'I' for Inactive)
REMARK    1  A    between atoms: C_2  and  C_12
REMARK    2  A    between atoms: C_3  and  O_8
REMARK    3  A    between atoms: C_5  and  O_10
REMARK    4  A    between atoms: C_12  and  C_13
REMARK    5  A    between atoms: C_13  and  N_15
REMARK                            x       y       z     vdW  Elec       q    Type
REMARK                         _______ _______ _______ _____ _____    ______ ____
ROOT
ATOM      1 BR   UNL     1       3.730  -1.466   0.596  0.00  0.00    -0.046 Br
ATOM      2  C   UNL     1      -0.474   0.263  -0.465  0.00  0.00    +0.013 C 
ATOM      3  C   UNL     1      -0.314  -1.103  -0.287  0.00  0.00    +0.135 C 
ATOM      4  C   UNL     1       0.596   1.135  -0.333  0.00  0.00    +0.036 C 
ATOM      5  C   UNL     1       1.856   0.629  -0.016  0.00  0.00    +0.145 C 
ATOM      6  C   UNL     1       0.946  -1.609   0.029  0.00  0.00    +0.046 C 
ATOM      7  C   UNL     1       2.032  -0.743   0.165  0.00  0.00    +0.071 C 
ENDROOT
BRANCH   3   8
ATOM      8  O   UNL     1      -1.364  -1.962  -0.415  0.00  0.00    -0.472 OA
ATOM      9  C   UNL     1      -1.096  -3.347  -0.213  0.00  0.00    +0.252 C 
ENDBRANCH   3   8
BRANCH   5  10
ATOM     10  O   UNL     1       2.897   1.501   0.109  0.00  0.00    -0.471 OA
ATOM     11  C   UNL     1       2.611   2.882  -0.096  0.00  0.00    +0.252 C 
ENDBRANCH   5  10
BRANCH   2  12
ATOM     12  C   UNL     1      -1.831   0.830  -0.809  0.00  0.00    +0.008 C 
BRANCH  12  13
ATOM     13  C   UNL     1      -2.673   1.206   0.425  0.00  0.00    -0.061 C 
ATOM     14  C   UNL     1      -2.968   0.003   1.321  0.00  0.00    -0.024 C 
BRANCH  13  15
ATOM     15  N   UNL     1      -3.949   1.781  -0.011  0.00  0.00    +0.382 N 
ATOM     16  H   UNL     1      -3.771   2.586  -0.612  0.00  0.00    -0.089 HD
ATOM     17  H   UNL     1      -4.484   2.077   0.804  0.00  0.00    -0.089 HD
ATOM     18  H   UNL     1      -4.478   1.080  -0.530  0.00  0.00    -0.089 HD
ENDBRANCH  13  15
ENDBRANCH  12  13
ENDBRANCH   2  12
TORSDOF 5
