REMARK  Name = 6473
REMARK  4 active torsions:
REMARK  status: ('A' for Active; 'I' for Inactive)
REMARK    1  A    between atoms: C_6  and  C_12
REMARK    2  A    between atoms: C_6  and  C_14
REMARK    3  A    between atoms: C_14  and  C_15
REMARK    4  A    between atoms: C_15  and  C_16
REMARK                            x       y       z     vdW  Elec       q    Type
REMARK                         _______ _______ _______ _____ _____    ______ ____
ROOT
ATOM      1  O   UNL     1      -0.094  -1.163  -2.134  0.00  0.00    -0.274 OA
ATOM      2  O   UNL     1      -0.023   1.286   1.873  0.00  0.00    -0.274 OA
ATOM      3  O   UNL     1       3.410  -1.564   0.802  0.00  0.00    -0.252 OA
ATOM      4  N   UNL     1       1.703  -1.287  -0.712  0.00  0.00    -0.239 N 
ATOM      5  N   UNL     1       1.738  -0.064   1.289  0.00  0.00    -0.239 N 
ATOM      6  C   UNL     1       0.108   0.557  -0.437  0.00  0.00    +0.138 C 
ATOM      7  C   UNL     1       0.525  -0.714  -1.169  0.00  0.00    +0.237 C 
ATOM      8  C   UNL     1       0.563   0.622   1.018  0.00  0.00    +0.237 C 
ATOM      9  C   UNL     1       2.366  -0.998   0.474  0.00  0.00    +0.312 C 
ATOM     10  H   UNL     1       2.112  -1.971  -1.290  0.00  0.00    +0.159 HD
ATOM     11  H   UNL     1       2.172   0.131   2.150  0.00  0.00    +0.159 HD
ENDROOT
BRANCH   6  12
ATOM     12  C   UNL     1       0.771   1.737  -1.169  0.00  0.00    +0.017 C 
ATOM     13  C   UNL     1       0.441   3.049  -0.493  0.00  0.00    +0.001 C 
ENDBRANCH   6  12
BRANCH   6  14
ATOM     14  C   UNL     1      -1.418   0.711  -0.504  0.00  0.00    +0.017 C 
BRANCH  14  15
ATOM     15  C   UNL     1      -2.115  -0.458   0.180  0.00  0.00    +0.001 C 
BRANCH  15  16
ATOM     16  C   UNL     1      -3.633  -0.286   0.137  0.00  0.00    +0.000 C 
ATOM     17  C   UNL     1      -4.343  -1.428   0.845  0.00  0.00    +0.000 C 
ENDBRANCH  15  16
ENDBRANCH  14  15
ENDBRANCH   6  14
TORSDOF 4
