REMARK  Name = 62258
REMARK  3 active torsions:
REMARK  status: ('A' for Active; 'I' for Inactive)
REMARK    1  A    between atoms: C_2  and  C_3
REMARK    2  A    between atoms: C_2  and  C_9
REMARK    3  A    between atoms: C_9  and  N_11
REMARK                            x       y       z     vdW  Elec       q    Type
REMARK                         _______ _______ _______ _____ _____    ______ ____
ROOT
ATOM      1  O   UNL     1       1.468  -1.714   0.321  0.00  0.00    -0.294 OA
ATOM      2  C   UNL     1       1.081  -0.531   0.207  0.00  0.00    +0.153 C 
ENDROOT
BRANCH   2   3
ATOM      3  C   UNL     1      -0.339  -0.232   0.119  0.00  0.00    +0.033 C 
ATOM      4  C   UNL     1      -0.824   0.988   0.590  0.00  0.00    +0.003 C 
ATOM      5  C   UNL     1      -1.216  -1.164  -0.435  0.00  0.00    +0.003 C 
ATOM      6  C   UNL     1      -2.187   1.276   0.506  0.00  0.00    +0.000 C 
ATOM      7  C   UNL     1      -2.578  -0.876  -0.519  0.00  0.00    +0.000 C 
ATOM      8  C   UNL     1      -3.064   0.344  -0.048  0.00  0.00    +0.000 C 
ENDBRANCH   2   3
BRANCH   2   9
ATOM      9  C   UNL     1       2.133   0.598   0.143  0.00  0.00    -0.002 C 
ATOM     10  C   UNL     1       2.066   1.308  -1.203  0.00  0.00    -0.016 C 
BRANCH   9  11
ATOM     11  N   UNL     1       3.460   0.005   0.320  0.00  0.00    +0.386 N 
ATOM     12  H   UNL     1       3.503  -0.470   1.221  0.00  0.00    -0.089 HD
ATOM     13  H   UNL     1       4.167   0.739   0.289  0.00  0.00    -0.089 HD
ATOM     14  H   UNL     1       3.635  -0.667  -0.428  0.00  0.00    -0.089 HD
ENDBRANCH   9  11
ENDBRANCH   2   9
TORSDOF 3
