REMARK  Name = 447732
REMARK  3 active torsions:
REMARK  status: ('A' for Active; 'I' for Inactive)
REMARK    1  A    between atoms: C_3  and  C_19
REMARK    2  A    between atoms: C_8  and  C_13
REMARK    3  A    between atoms: N_18  and  C_21
REMARK                            x       y       z     vdW  Elec       q    Type
REMARK                         _______ _______ _______ _____ _____    ______ ____
ROOT
ATOM      1  C   UNL     1      -1.902  -0.768   0.062  0.00  0.00    +0.000 C 
ATOM      2  C   UNL     1      -2.252   0.581  -0.184  0.00  0.00    +0.000 C 
ATOM      3  C   UNL     1       0.446  -0.198  -0.219  0.00  0.00    +0.054 C 
ATOM      4  C   UNL     1      -0.548  -1.141   0.041  0.00  0.00    +0.005 C 
ATOM      5  C   UNL     1      -3.606   0.955  -0.163  0.00  0.00    +0.003 C 
ATOM      6  C   UNL     1      -1.238   1.517  -0.445  0.00  0.00    +0.000 C 
ATOM      7  C   UNL     1      -2.916  -1.704   0.323  0.00  0.00    +0.000 C 
ATOM      8  C   UNL     1      -4.600   0.011   0.098  0.00  0.00    +0.031 C 
ATOM      9  C   UNL     1       0.102   1.128  -0.462  0.00  0.00    +0.005 C 
ATOM     10  C   UNL     1      -4.256  -1.315   0.340  0.00  0.00    +0.003 C 
ENDROOT
BRANCH   8  13
ATOM     11  N   UNL     1      -7.014  -0.505   0.372  0.00  0.00    -0.343 N 
ATOM     12  N   UNL     1      -6.323   1.673  -0.119  0.00  0.00    -0.285 NA
ATOM     13  C   UNL     1      -5.998   0.414   0.115  0.00  0.00    +0.117 C 
ATOM     14  H   UNL     1      -7.953  -0.210   0.379  0.00  0.00    +0.144 HD
ATOM     15  H   UNL     1      -6.792  -1.448   0.546  0.00  0.00    +0.144 HD
ATOM     16  H   UNL     1      -7.268   1.948  -0.108  0.00  0.00    +0.188 HD
ENDBRANCH   8  13
BRANCH   3  19
ATOM     17  O   UNL     1       2.130  -1.769  -0.547  0.00  0.00    -0.270 OA
ATOM     18  N   UNL     1       2.773   0.398   0.080  0.00  0.00    -0.280 N 
ATOM     19  C   UNL     1       1.843  -0.601  -0.238  0.00  0.00    +0.249 C 
ATOM     20  H   UNL     1       2.394   1.279   0.306  0.00  0.00    +0.155 HD
BRANCH  18  21
ATOM     21  C   UNL     1       4.186   0.308   0.120  0.00  0.00    +0.051 C 
ATOM     22  C   UNL     1       4.795  -0.897  -0.185  0.00  0.00    +0.015 C 
ATOM     23  C   UNL     1       4.926   1.427   0.462  0.00  0.00    +0.015 C 
ATOM     24  C   UNL     1       6.187  -0.986  -0.147  0.00  0.00    +0.001 C 
ATOM     25  C   UNL     1       6.317   1.338   0.500  0.00  0.00    +0.001 C 
ATOM     26  C   UNL     1       6.948   0.132   0.196  0.00  0.00    +0.000 C 
ENDBRANCH  18  21
ENDBRANCH   3  19
TORSDOF 3
