REMARK  Name = 8064
REMARK  5 active torsions:
REMARK  status: ('A' for Active; 'I' for Inactive)
REMARK    1  A    between atoms: C_1  and  C_2
REMARK    2  A    between atoms: C_1  and  C_6
REMARK    3  A    between atoms: C_2  and  C_3
REMARK    4  A    between atoms: C_3  and  O_4
REMARK    5  A    between atoms: C_6  and  O_7
REMARK                            x       y       z     vdW  Elec       q    Type
REMARK                         _______ _______ _______ _____ _____    ______ ____
ROOT
ATOM      1  C   UNL     1      -0.655   0.390  -0.009  0.00  0.00    +0.034 C 
ENDROOT
BRANCH   1   2
ATOM      2  C   UNL     1       0.655  -0.389  -0.019  0.00  0.00    +0.034 C 
BRANCH   2   3
ATOM      3  C   UNL     1       1.861   0.539   0.005  0.00  0.00    +0.137 C 
BRANCH   3   4
ATOM      4  O   UNL     1       3.045  -0.246   0.009  0.00  0.00    -0.382 OA
ATOM      5  H   UNL     1       3.820   0.338   0.025  0.00  0.00    +0.210 HD
ENDBRANCH   3   4
ENDBRANCH   2   3
ENDBRANCH   1   2
BRANCH   1   6
ATOM      6  C   UNL     1      -1.861  -0.539   0.010  0.00  0.00    +0.137 C 
BRANCH   6   7
ATOM      7  O   UNL     1      -3.046   0.246   0.004  0.00  0.00    -0.382 OA
ATOM      8  H   UNL     1      -3.820  -0.338   0.016  0.00  0.00    +0.210 HD
ENDBRANCH   6   7
ENDBRANCH   1   6
TORSDOF 5
