REMARK  Name = 30487
REMARK  1 active torsions:
REMARK  status: ('A' for Active; 'I' for Inactive)
REMARK    1  A    between atoms: C_4  and  C_10
REMARK                            x       y       z     vdW  Elec       q    Type
REMARK                         _______ _______ _______ _____ _____    ______ ____
ROOT
ATOM      1  O   UNL     1       0.709  -1.594   0.355  0.00  0.00    -0.356 OA
ATOM      2  N   UNL     1       2.711   0.355  -0.228  0.00  0.00    +0.390 N 
ATOM      3  C   UNL     1       1.292   0.762  -0.063  0.00  0.00    -0.026 C 
ATOM      4  C   UNL     1       0.367  -0.438  -0.422  0.00  0.00    +0.119 C 
ATOM      5  C   UNL     1       2.991  -0.859   0.557  0.00  0.00    -0.045 C 
ATOM      6  C   UNL     1       2.060  -1.982   0.135  0.00  0.00    +0.120 C 
ATOM      7  C   UNL     1       0.950   1.974  -0.946  0.00  0.00    -0.020 C 
ATOM      8  C   UNL     1       3.654   1.407   0.160  0.00  0.00    -0.100 C 
ATOM      9  H   UNL     1       2.844   0.170  -1.222  0.00  0.00    -0.079 HD
ENDROOT
BRANCH   4  10
ATOM     10  C   UNL     1      -1.104  -0.177  -0.163  0.00  0.00    +0.003 C 
ATOM     11  C   UNL     1      -2.070  -0.803  -0.948  0.00  0.00    -0.002 C 
ATOM     12  C   UNL     1      -1.487   0.688   0.861  0.00  0.00    -0.002 C 
ATOM     13  C   UNL     1      -3.423  -0.564  -0.710  0.00  0.00    -0.000 C 
ATOM     14  C   UNL     1      -2.841   0.928   1.099  0.00  0.00    -0.000 C 
ATOM     15  C   UNL     1      -3.809   0.302   0.314  0.00  0.00    -0.000 C 
ENDBRANCH   4  10
TORSDOF 1
