REMARK  Name = 896
REMARK  4 active torsions:
REMARK  status: ('A' for Active; 'I' for Inactive)
REMARK    1  A    between atoms: C_2  and  C_13
REMARK    2  A    between atoms: C_8  and  O_11
REMARK    3  A    between atoms: C_13  and  C_14
REMARK    4  A    between atoms: C_14  and  N_16
REMARK                            x       y       z     vdW  Elec       q    Type
REMARK                         _______ _______ _______ _____ _____    ______ ____
ROOT
ATOM      1  N   UNL     1      -2.070  -2.371  -0.371  0.00  0.00    -0.312 N 
ATOM      2  C   UNL     1      -0.110  -1.794   0.495  0.00  0.00    -0.005 C 
ATOM      3  C   UNL     1      -0.859  -0.608   0.261  0.00  0.00    +0.014 C 
ATOM      4  C   UNL     1      -2.085  -0.997  -0.284  0.00  0.00    +0.048 C 
ATOM      5  C   UNL     1      -0.881  -2.862   0.097  0.00  0.00    +0.058 C 
ATOM      6  C   UNL     1      -0.611   0.765   0.459  0.00  0.00    +0.038 C 
ATOM      7  C   UNL     1      -3.079  -0.079  -0.641  0.00  0.00    +0.018 C 
ATOM      8  C   UNL     1      -1.596   1.695   0.107  0.00  0.00    +0.139 C 
ATOM      9  C   UNL     1      -2.810   1.277  -0.435  0.00  0.00    +0.038 C 
ATOM     10  H   UNL     1      -2.808  -2.921  -0.721  0.00  0.00    +0.152 HD
ENDROOT
BRANCH   8  11
ATOM     11  O   UNL     1      -1.364   3.025   0.297  0.00  0.00    -0.471 OA
ATOM     12  C   UNL     1      -0.102   3.388   0.854  0.00  0.00    +0.252 C 
ENDBRANCH   8  11
BRANCH   2  13
ATOM     13  C   UNL     1       1.250  -1.878   1.063  0.00  0.00    +0.049 C 
BRANCH  13  14
ATOM     14  C   UNL     1       2.374  -1.825   0.015  0.00  0.00    +0.094 C 
BRANCH  14  16
ATOM     15  O   UNL     1       3.727   0.674   0.611  0.00  0.00    -0.275 OA
ATOM     16  N   UNL     1       2.345  -0.610  -0.755  0.00  0.00    -0.304 N 
ATOM     17  C   UNL     1       3.027   0.542  -0.390  0.00  0.00    +0.223 C 
ATOM     18  C   UNL     1       2.846   1.658  -1.384  0.00  0.00    +0.095 C 
ATOM     19  H   UNL     1       1.813  -0.595  -1.583  0.00  0.00    +0.149 HD
ENDBRANCH  14  16
ENDBRANCH  13  14
ENDBRANCH   2  13
TORSDOF 4
