REMARK  Name = 3284
REMARK  3 active torsions:
REMARK  status: ('A' for Active; 'I' for Inactive)
REMARK    1  A    between atoms: C_1  and  C_7
REMARK    2  A    between atoms: C_1  and  O_9
REMARK    3  A    between atoms: O_9  and  C_12
REMARK                            x       y       z     vdW  Elec       q    Type
REMARK                         _______ _______ _______ _____ _____    ______ ____
ROOT
ATOM      1  C   UNL     1      -0.122  -0.554  -0.105  0.00  0.00    +0.191 C 
ATOM      2  C   UNL     1      -1.313  -0.970  -0.982  0.00  0.00    +0.053 C 
ATOM      3  C   UNL     1      -0.600  -0.079   1.276  0.00  0.00    +0.053 C 
ATOM      4  C   UNL     1      -2.378   0.125  -1.073  0.00  0.00    +0.005 C 
ATOM      5  C   UNL     1      -1.663   1.016   1.177  0.00  0.00    +0.005 C 
ATOM      6  C   UNL     1      -2.838   0.579   0.308  0.00  0.00    +0.000 C 
ENDROOT
BRANCH   1   7
ATOM      7  C   UNL     1       0.816  -1.681   0.037  0.00  0.00    -0.040 C 
ATOM      8  C   UNL     1       1.580  -2.600   0.154  0.00  0.00    -0.011 C 
ENDBRANCH   1   7
BRANCH   1   9
ATOM      9  O   UNL     1       0.552   0.522  -0.763  0.00  0.00    -0.430 OA
BRANCH   9  12
ATOM     10  O   UNL     1       2.096   0.598   0.943  0.00  0.00    -0.227 OA
ATOM     11  N   UNL     1       2.215   2.035  -0.848  0.00  0.00    -0.295 N 
ATOM     12  C   UNL     1       1.656   1.010  -0.125  0.00  0.00    +0.399 C 
ATOM     13  H   UNL     1       1.809   2.315  -1.700  0.00  0.00    +0.148 HD
ATOM     14  H   UNL     1       3.022   2.489  -0.515  0.00  0.00    +0.148 HD
ENDBRANCH   9  12
ENDBRANCH   1   9
TORSDOF 3
