REMARK  Name = 6090
REMARK  5 active torsions:
REMARK  status: ('A' for Active; 'I' for Inactive)
REMARK    1  A    between atoms: C_2  and  C_11
REMARK    2  A    between atoms: C_11  and  C_12
REMARK    3  A    between atoms: C_12  and  N_13
REMARK    4  A    between atoms: N_13  and  C_15
REMARK    5  A    between atoms: N_13  and  C_17
REMARK                            x       y       z     vdW  Elec       q    Type
REMARK                         _______ _______ _______ _____ _____    ______ ____
ROOT
ATOM      1  N   UNL     1      -2.416  -1.936   0.426  0.00  0.00    -0.312 N 
ATOM      2  C   UNL     1      -0.592  -0.696   0.670  0.00  0.00    -0.008 C 
ATOM      3  C   UNL     1      -1.639   0.142   0.194  0.00  0.00    +0.011 C 
ATOM      4  C   UNL     1      -2.772  -0.661   0.050  0.00  0.00    +0.048 C 
ATOM      5  C   UNL     1      -1.101  -1.967   0.803  0.00  0.00    +0.057 C 
ATOM      6  C   UNL     1      -1.732   1.511  -0.128  0.00  0.00    +0.001 C 
ATOM      7  C   UNL     1      -3.999  -0.162  -0.404  0.00  0.00    +0.015 C 
ATOM      8  C   UNL     1      -2.952   2.024  -0.583  0.00  0.00    +0.000 C 
ATOM      9  C   UNL     1      -4.067   1.199  -0.717  0.00  0.00    +0.001 C 
ATOM     10  H   UNL     1      -3.020  -2.713   0.424  0.00  0.00    +0.152 HD
ENDROOT
BRANCH   2  11
ATOM     11  C   UNL     1       0.795  -0.286   0.971  0.00  0.00    +0.005 C 
BRANCH  11  12
ATOM     12  C   UNL     1       1.734  -0.408  -0.243  0.00  0.00    -0.073 C 
BRANCH  12  13
ATOM     13  N   UNL     1       3.103  -0.026   0.087  0.00  0.00    +0.387 N 
ATOM     14  H   UNL     1       3.430  -0.629   0.842  0.00  0.00    -0.080 HD
BRANCH  13  15
ATOM     15  C   UNL     1       3.152   1.363   0.548  0.00  0.00    -0.077 C 
ATOM     16  C   UNL     1       4.561   1.756   0.957  0.00  0.00    -0.025 C 
ENDBRANCH  13  15
BRANCH  13  17
ATOM     17  C   UNL     1       3.981  -0.209  -1.069  0.00  0.00    -0.077 C 
ATOM     18  C   UNL     1       3.945  -1.645  -1.564  0.00  0.00    -0.025 C 
ENDBRANCH  13  17
ENDBRANCH  12  13
ENDBRANCH  11  12
ENDBRANCH   2  11
TORSDOF 5
