REMARK  Name = 446541
REMARK  8 active torsions:
REMARK  status: ('A' for Active; 'I' for Inactive)
REMARK    1  A    between atoms: C_4  and  C_16
REMARK    2  A    between atoms: C_7  and  O_12
REMARK    3  A    between atoms: C_8  and  O_14
REMARK    4  A    between atoms: C_16  and  C_17
REMARK    5  A    between atoms: C_18  and  C_20
REMARK    6  A    between atoms: C_20  and  C_21
REMARK    7  A    between atoms: C_21  and  C_23
REMARK    8  A    between atoms: C_23  and  O_24
REMARK                            x       y       z     vdW  Elec       q    Type
REMARK                         _______ _______ _______ _____ _____    ______ ____
ROOT
ATOM      1  O   UNL     1       3.472  -2.500  -0.179  0.00  0.00    -0.440 OA
ATOM      2  O   UNL     1       1.787  -3.267   1.204  0.00  0.00    -0.245 OA
ATOM      3  C   UNL     1       2.750  -0.350  -0.431  0.00  0.00    +0.029 A 
ATOM      4  C   UNL     1       0.537   0.922   0.608  0.00  0.00    +0.050 A 
ATOM      5  C   UNL     1       1.862  -1.019   0.387  0.00  0.00    +0.108 A 
ATOM      6  C   UNL     1       2.546   0.980  -0.748  0.00  0.00    +0.012 A 
ATOM      7  C   UNL     1       1.422   1.622  -0.218  0.00  0.00    +0.134 A 
ATOM      8  C   UNL     1       0.742  -0.414   0.926  0.00  0.00    +0.139 A 
ATOM      9  C   UNL     1       3.833  -1.261  -0.841  0.00  0.00    +0.235 C 
ATOM     10  C   UNL     1       2.317  -2.390   0.551  0.00  0.00    +0.344 C 
ATOM     11  C   UNL     1       3.504   1.707  -1.629  0.00  0.00    +0.034 C 
ENDROOT
BRANCH   7  12
ATOM     12  O   UNL     1       1.194   2.936  -0.512  0.00  0.00    -0.472 OA
ATOM     13  C   UNL     1       1.763   3.901   0.368  0.00  0.00    +0.252 C 
ENDBRANCH   7  12
BRANCH   8  14
ATOM     14  O   UNL     1      -0.114  -1.096   1.728  0.00  0.00    -0.506 OA
ATOM     15  H   UNL     1      -0.867  -0.666   2.083  0.00  0.00    +0.292 HD
ENDBRANCH   8  14
BRANCH   4  16
ATOM     16  C   UNL     1      -0.670   1.637   1.169  0.00  0.00    +0.058 C 
BRANCH  16  17
ATOM     17  C   UNL     1      -1.868   1.527   0.267  0.00  0.00    -0.030 C 
ATOM     18  C   UNL     1      -3.085   1.032   0.565  0.00  0.00    -0.047 C 
ATOM     19  C   UNL     1      -3.368   0.501   1.946  0.00  0.00    +0.026 C 
BRANCH  18  20
ATOM     20  C   UNL     1      -4.236   0.930  -0.410  0.00  0.00    +0.033 C 
BRANCH  20  21
ATOM     21  C   UNL     1      -4.649  -0.520  -0.668  0.00  0.00    +0.114 C 
BRANCH  21  23
ATOM     22  O   UNL     1      -2.604  -0.897  -1.934  0.00  0.00    -0.250 OA
ATOM     23  C   UNL     1      -3.515  -1.335  -1.246  0.00  0.00    +0.314 C 
BRANCH  23  24
ATOM     24  O   UNL     1      -3.621  -2.646  -0.904  0.00  0.00    -0.480 OA
ATOM     25  H   UNL     1      -4.338  -2.935  -0.374  0.00  0.00    +0.295 HD
ENDBRANCH  23  24
ENDBRANCH  21  23
ENDBRANCH  20  21
ENDBRANCH  18  20
ENDBRANCH  16  17
ENDBRANCH   4  16
TORSDOF 8
