REMARK  Name = 3019
REMARK  0 active torsions:
REMARK  status: ('A' for Active; 'I' for Inactive)
REMARK                            x       y       z     vdW  Elec       q    Type
REMARK                         _______ _______ _______ _____ _____    ______ ____
ROOT
ATOM      1 CL   UNL     1       4.302  -0.565  -0.001  0.00  0.00    -0.082 Cl
ATOM      2  S   UNL     1      -1.036  -1.462   0.001  0.00  0.00    +0.103 S 
ATOM      3  O   UNL     1      -0.942  -2.178  -1.259  0.00  0.00    -0.146 OA
ATOM      4  O   UNL     1      -0.943  -2.174   1.262  0.00  0.00    -0.146 OA
ATOM      5  N   UNL     1      -1.245   1.539   0.001  0.00  0.00    -0.299 N 
ATOM      6  N   UNL     1      -2.398  -0.570  -0.002  0.00  0.00    -0.117 NA
ATOM      7  C   UNL     1       0.317  -0.329   0.000  0.00  0.00    +0.143 C 
ATOM      8  C   UNL     1       0.061   1.041   0.001  0.00  0.00    +0.069 C 
ATOM      9  C   UNL     1      -2.356   0.727  -0.001  0.00  0.00    +0.131 C 
ATOM     10  C   UNL     1       1.615  -0.843   0.000  0.00  0.00    +0.033 C 
ATOM     11  C   UNL     1       1.157   1.913   0.001  0.00  0.00    +0.017 C 
ATOM     12  C   UNL     1       2.691   0.040   0.000  0.00  0.00    +0.059 C 
ATOM     13  C   UNL     1       2.463   1.416   0.000  0.00  0.00    +0.013 C 
ATOM     14  C   UNL     1      -3.688   1.445  -0.001  0.00  0.00    +0.071 C 
ATOM     15  H   UNL     1      -1.376   2.515   0.003  0.00  0.00    +0.153 HD
ENDROOT
TORSDOF 0
