REMARK  Name = 5560
REMARK  3 active torsions:
REMARK  status: ('A' for Active; 'I' for Inactive)
REMARK    1  A    between atoms: C_7  and  C_18
REMARK    2  A    between atoms: C_11  and  S_19
REMARK    3  A    between atoms: S_19  and  N_22
REMARK                            x       y       z     vdW  Elec       q    Type
REMARK                         _______ _______ _______ _____ _____    ______ ____
ROOT
ATOM      1 CL   UNL     1       2.754  -2.840  -0.004  0.00  0.00    -0.081 Cl
ATOM      2  S   UNL     1      -1.198   2.015   0.105  0.00  0.00    +0.063 S 
ATOM      3  O   UNL     1      -0.798   2.899  -0.972  0.00  0.00    -0.153 OA
ATOM      4  O   UNL     1      -1.273   2.472   1.479  0.00  0.00    -0.153 OA
ATOM      5  N   UNL     1      -2.670   1.264  -0.332  0.00  0.00    -0.160 NA
ATOM      6  N   UNL     1      -1.969  -0.985   0.269  0.00  0.00    -0.318 N 
ATOM      7  C   UNL     1      -2.990   0.034   0.426  0.00  0.00    +0.178 C 
ATOM      8  C   UNL     1      -0.108   0.627   0.102  0.00  0.00    +0.136 C 
ATOM      9  C   UNL     1      -0.618  -0.678   0.190  0.00  0.00    +0.065 C 
ATOM     10  C   UNL     1       1.261   0.886  -0.012  0.00  0.00    +0.042 C 
ATOM     11  C   UNL     1       2.158  -0.176  -0.042  0.00  0.00    +0.134 C 
ATOM     12  C   UNL     1       0.313  -1.728   0.144  0.00  0.00    +0.028 C 
ATOM     13  C   UNL     1       1.686  -1.483   0.035  0.00  0.00    +0.078 C 
ATOM     14  H   UNL     1      -2.620   1.022  -1.322  0.00  0.00    +0.151 HD
ATOM     15  H   UNL     1      -2.245  -1.928   0.215  0.00  0.00    +0.148 HD
ENDROOT
BRANCH   7  18
ATOM     16 CL   UNL     1      -4.802  -1.928   0.888  0.00  0.00    -0.094 Cl
ATOM     17 CL   UNL     1      -4.221  -0.931  -1.786  0.00  0.00    -0.094 Cl
ATOM     18  C   UNL     1      -4.328  -0.505  -0.065  0.00  0.00    +0.193 C 
ENDBRANCH   7  18
BRANCH  11  19
ATOM     19  S   UNL     1       3.866   0.190  -0.182  0.00  0.00    +0.058 S 
ATOM     20  O   UNL     1       4.484  -0.983  -0.793  0.00  0.00    -0.153 OA
ATOM     21  O   UNL     1       3.927   1.488  -0.846  0.00  0.00    -0.153 OA
BRANCH  19  22
ATOM     22  N   UNL     1       4.528   0.363   1.396  0.00  0.00    -0.203 NA
ATOM     23  H   UNL     1       5.523   0.576   1.326  0.00  0.00    +0.144 HD
ATOM     24  H   UNL     1       4.402  -0.507   1.914  0.00  0.00    +0.144 HD
ENDBRANCH  19  22
ENDBRANCH  11  19
TORSDOF 3
