REMARK  Name = 3158
REMARK  3 active torsions:
REMARK  status: ('A' for Active; 'I' for Inactive)
REMARK    1  A    between atoms: C_6  and  C_17
REMARK    2  A    between atoms: C_17  and  C_18
REMARK    3  A    between atoms: C_18  and  N_19
REMARK                            x       y       z     vdW  Elec       q    Type
REMARK                         _______ _______ _______ _____ _____    ______ ____
ROOT
ATOM      1  O   UNL     1      -2.662  -0.832   1.202  0.00  0.00    -0.471 OA
ATOM      2  C   UNL     1      -0.285   0.365  -0.332  0.00  0.00    -0.002 C 
ATOM      3  C   UNL     1      -0.025  -1.093  -0.364  0.00  0.00    -0.001 C 
ATOM      4  C   UNL     1      -1.651   0.954  -0.219  0.00  0.00    +0.034 C 
ATOM      5  C   UNL     1      -0.573  -1.896   0.650  0.00  0.00    +0.021 C 
ATOM      6  C   UNL     1       0.797   1.166  -0.289  0.00  0.00    -0.028 C 
ATOM      7  C   UNL     1      -1.406  -1.256   1.725  0.00  0.00    +0.232 C 
ATOM      8  C   UNL     1      -2.705   0.343   0.492  0.00  0.00    +0.139 C 
ATOM      9  C   UNL     1       0.732  -1.687  -1.384  0.00  0.00    -0.000 C 
ATOM     10  C   UNL     1      -0.352  -3.279   0.635  0.00  0.00    -0.001 C 
ATOM     11  C   UNL     1      -1.940   2.140  -0.928  0.00  0.00    +0.003 C 
ATOM     12  C   UNL     1      -3.988   0.919   0.483  0.00  0.00    +0.037 C 
ATOM     13  C   UNL     1       0.949  -3.065  -1.388  0.00  0.00    -0.000 C 
ATOM     14  C   UNL     1       0.409  -3.859  -0.380  0.00  0.00    -0.000 C 
ATOM     15  C   UNL     1      -3.214   2.712  -0.915  0.00  0.00    +0.000 C 
ATOM     16  C   UNL     1      -4.239   2.101  -0.208  0.00  0.00    +0.003 C 
ENDROOT
BRANCH   6  17
ATOM     17  C   UNL     1       2.204   0.660  -0.272  0.00  0.00    +0.003 C 
BRANCH  17  18
ATOM     18  C   UNL     1       3.118   1.609   0.502  0.00  0.00    -0.073 C 
BRANCH  18  19
ATOM     19  N   UNL     1       4.481   1.091   0.526  0.00  0.00    +0.384 N 
ATOM     20  C   UNL     1       5.355   1.975   1.298  0.00  0.00    -0.101 C 
ATOM     21  C   UNL     1       4.995   0.932  -0.836  0.00  0.00    -0.101 C 
ATOM     22  H   UNL     1       4.467   0.176   0.976  0.00  0.00    -0.080 HD
ENDBRANCH  18  19
ENDBRANCH  17  18
ENDBRANCH   6  17
TORSDOF 3
