REMARK  Name = 5029
REMARK  8 active torsions:
REMARK  status: ('A' for Active; 'I' for Inactive)
REMARK    1  A    between atoms: C_1  and  C_3
REMARK    2  A    between atoms: C_1  and  S_15
REMARK    3  A    between atoms: C_5  and  O_9
REMARK    4  A    between atoms: O_9  and  C_10
REMARK    5  A    between atoms: C_10  and  C_11
REMARK    6  A    between atoms: C_11  and  C_12
REMARK    7  A    between atoms: C_12  and  O_13
REMARK    8  A    between atoms: S_15  and  C_19
REMARK                            x       y       z     vdW  Elec       q    Type
REMARK                         _______ _______ _______ _____ _____    ______ ____
ROOT
ATOM      1  C   UNL     1       0.689  -0.633   0.566  0.00  0.00    +0.140 C 
ENDROOT
BRANCH   1   3
ATOM      2  N   UNL     1      -0.822  -2.429   1.112  0.00  0.00    -0.247 NA
ATOM      3  C   UNL     1      -0.686  -1.233   0.504  0.00  0.00    +0.072 C 
ATOM      4  C   UNL     1      -1.705  -0.561  -0.143  0.00  0.00    +0.027 C 
ATOM      5  C   UNL     1      -2.959  -1.162  -0.169  0.00  0.00    +0.137 C 
ATOM      6  C   UNL     1      -1.480   0.759  -0.798  0.00  0.00    +0.035 C 
ATOM      7  C   UNL     1      -3.146  -2.395   0.445  0.00  0.00    +0.057 C 
ATOM      8  C   UNL     1      -2.055  -2.982   1.067  0.00  0.00    +0.102 C 
BRANCH   5   9
ATOM      9  O   UNL     1      -4.011  -0.560  -0.790  0.00  0.00    -0.476 OA
BRANCH   9  10
ATOM     10  C   UNL     1      -5.149  -0.254   0.013  0.00  0.00    +0.208 C 
BRANCH  10  11
ATOM     11  C   UNL     1      -5.846   0.966  -0.568  0.00  0.00    +0.079 C 
BRANCH  11  12
ATOM     12  C   UNL     1      -7.067   1.366   0.246  0.00  0.00    +0.146 C 
BRANCH  12  13
ATOM     13  O   UNL     1      -7.670   2.519  -0.325  0.00  0.00    -0.351 OA
ATOM     14  C   UNL     1      -8.830   2.912   0.396  0.00  0.00    +0.174 C 
ENDBRANCH  12  13
ENDBRANCH  11  12
ENDBRANCH  10  11
ENDBRANCH   9  10
ENDBRANCH   5   9
ENDBRANCH   1   3
BRANCH   1  15
ATOM     15  S   UNL     1       1.708  -1.142  -0.849  0.00  0.00    +0.085 S 
ATOM     16  O   UNL     1       1.947  -2.632  -0.711  0.00  0.00    -0.252 OA
BRANCH  15  19
ATOM     17  N   UNL     1       4.471  -0.719  -0.834  0.00  0.00    -0.307 N 
ATOM     18  N   UNL     1       3.280   0.860   0.182  0.00  0.00    -0.307 N 
ATOM     19  C   UNL     1       3.228  -0.278  -0.474  0.00  0.00    +0.226 C 
ATOM     20  C   UNL     1       5.387   0.195  -0.380  0.00  0.00    +0.060 C 
ATOM     21  C   UNL     1       4.619   1.171   0.250  0.00  0.00    +0.060 C 
ATOM     22  C   UNL     1       6.778   0.250  -0.465  0.00  0.00    +0.016 C 
ATOM     23  C   UNL     1       5.261   2.275   0.836  0.00  0.00    +0.016 C 
ATOM     24  C   UNL     1       7.401   1.356   0.125  0.00  0.00    +0.001 C 
ATOM     25  C   UNL     1       6.658   2.351   0.764  0.00  0.00    +0.001 C 
ATOM     26  H   UNL     1       4.672  -1.545  -1.330  0.00  0.00    +0.149 HD
ATOM     27  H   UNL     1       2.526   1.378   0.545  0.00  0.00    +0.149 HD
ENDBRANCH  15  19
ENDBRANCH   1  15
TORSDOF 8
