REMARK  Name = 5287792
REMARK  2 active torsions:
REMARK  status: ('A' for Active; 'I' for Inactive)
REMARK    1  A    between atoms: N_2  and  C_16
REMARK    2  A    between atoms: C_4  and  O_22
REMARK                            x       y       z     vdW  Elec       q    Type
REMARK                         _______ _______ _______ _____ _____    ______ ____
ROOT
ATOM      1  O   UNL     1       2.420   2.502   0.798  0.00  0.00    -0.288 OA
ATOM      2  N   UNL     1      -1.779   0.783   0.054  0.00  0.00    -0.264 N 
ATOM      3  N   UNL     1       0.117  -0.743  -0.103  0.00  0.00    -0.392 NA
ATOM      4  C   UNL     1       0.385   1.696  -0.207  0.00  0.00    +0.204 C 
ATOM      5  C   UNL     1      -0.511   2.711   0.495  0.00  0.00    +0.065 C 
ATOM      6  C   UNL     1      -1.931   2.240   0.153  0.00  0.00    +0.101 C 
ATOM      7  C   UNL     1      -0.440   0.425  -0.077  0.00  0.00    +0.195 C 
ATOM      8  C   UNL     1       1.786   1.571   0.322  0.00  0.00    +0.207 C 
ATOM      9  C   UNL     1       2.382   0.233   0.145  0.00  0.00    +0.063 C 
ATOM     10  C   UNL     1       1.523  -0.847  -0.115  0.00  0.00    +0.117 C 
ATOM     11  C   UNL     1       3.768   0.063   0.206  0.00  0.00    +0.001 C 
ATOM     12  C   UNL     1       2.092  -2.109  -0.322  0.00  0.00    +0.085 C 
ATOM     13  C   UNL     1       4.312  -1.202  -0.005  0.00  0.00    -0.026 C 
ATOM     14  C   UNL     1       3.477  -2.285  -0.272  0.00  0.00    -0.023 C 
ATOM     15  C   UNL     1       5.790  -1.397   0.052  0.00  0.00    +0.031 C 
ENDROOT
BRANCH   2  16
ATOM     16  C   UNL     1      -2.862  -0.061   0.065  0.00  0.00    +0.053 C 
ATOM     17  C   UNL     1      -2.757  -1.384   0.554  0.00  0.00    +0.015 C 
ATOM     18  C   UNL     1      -4.125   0.358  -0.411  0.00  0.00    +0.015 C 
ATOM     19  C   UNL     1      -3.858  -2.241   0.566  0.00  0.00    +0.001 C 
ATOM     20  C   UNL     1      -5.225  -0.499  -0.399  0.00  0.00    +0.001 C 
ATOM     21  C   UNL     1      -5.092  -1.799   0.089  0.00  0.00    +0.000 C 
ENDBRANCH   2  16
BRANCH   4  22
ATOM     22  O   UNL     1       0.529   1.987  -1.588  0.00  0.00    -0.372 OA
ATOM     23  H   UNL     1      -0.348   2.081  -1.992  0.00  0.00    +0.211 HD
ENDBRANCH   4  22
TORSDOF 2
