REMARK  Name = 1548972
REMARK  11 active torsions:
REMARK  status: ('A' for Active; 'I' for Inactive)
REMARK    1  A    between atoms: N_1  and  C_17
REMARK    2  A    between atoms: C_2  and  C_20
REMARK    3  A    between atoms: C_4  and  C_11
REMARK    4  A    between atoms: C_21  and  C_22
REMARK    5  A    between atoms: C_22  and  O_23
REMARK    6  A    between atoms: C_22  and  C_25
REMARK    7  A    between atoms: C_25  and  C_26
REMARK    8  A    between atoms: C_26  and  O_27
REMARK    9  A    between atoms: C_26  and  C_29
REMARK   10  A    between atoms: C_29  and  C_31
REMARK   11  A    between atoms: C_31  and  O_32
REMARK                            x       y       z     vdW  Elec       q    Type
REMARK                         _______ _______ _______ _____ _____    ______ ____
ROOT
ATOM      1  N   UNL     1      -2.515   1.315   0.234  0.00  0.00    -0.329 N 
ATOM      2  C   UNL     1      -1.380   0.579   0.354  0.00  0.00    +0.060 A 
ATOM      3  C   UNL     1      -3.560   0.489  -0.113  0.00  0.00    +0.060 A 
ATOM      4  C   UNL     1      -1.657  -0.727   0.091  0.00  0.00    +0.017 A 
ATOM      5  C   UNL     1      -3.045  -0.806  -0.209  0.00  0.00    +0.017 A 
ATOM      6  C   UNL     1      -4.907   0.785  -0.346  0.00  0.00    +0.017 C 
ATOM      7  C   UNL     1      -3.917  -1.858  -0.556  0.00  0.00    +0.001 C 
ATOM      8  C   UNL     1      -5.753  -0.274  -0.689  0.00  0.00    +0.001 C 
ATOM      9  C   UNL     1      -5.267  -1.576  -0.792  0.00  0.00    +0.000 C 
ENDROOT
BRANCH   4  11
ATOM     10  F   UNL     1       2.137  -4.796   0.237  0.00  0.00    -0.204 F 
ATOM     11  C   UNL     1      -0.677  -1.778   0.129  0.00  0.00    +0.002 C 
ATOM     12  C   UNL     1       0.040  -2.102  -1.022  0.00  0.00    +0.002 C 
ATOM     13  C   UNL     1      -0.445  -2.471   1.316  0.00  0.00    +0.002 C 
ATOM     14  C   UNL     1       0.991  -3.122  -0.985  0.00  0.00    +0.030 C 
ATOM     15  C   UNL     1       0.505  -3.491   1.353  0.00  0.00    +0.030 C 
ATOM     16  C   UNL     1       1.224  -3.817   0.202  0.00  0.00    +0.140 C 
ENDBRANCH   4  11
BRANCH   1  17
ATOM     17  C   UNL     1      -2.644   2.747   0.432  0.00  0.00    +0.086 C 
ATOM     18  C   UNL     1      -3.576   3.081   1.599  0.00  0.00    +0.024 C 
ATOM     19  C   UNL     1      -3.067   3.466  -0.851  0.00  0.00    +0.024 C 
ENDBRANCH   1  17
BRANCH   2  20
ATOM     20  C   UNL     1      -0.170   1.256   0.711  0.00  0.00    +0.015 C 
ATOM     21  C   UNL     1       0.665   1.819  -0.178  0.00  0.00    +0.004 C 
BRANCH  21  22
ATOM     22  C   UNL     1       1.923   2.543   0.219  0.00  0.00    +0.135 C 
BRANCH  22  23
ATOM     23  O   UNL     1       1.779   3.900  -0.195  0.00  0.00    -0.380 OA
ATOM     24  H   UNL     1       2.576   4.398   0.047  0.00  0.00    +0.211 HD
ENDBRANCH  22  23
BRANCH  22  25
ATOM     25  C   UNL     1       3.149   1.910  -0.461  0.00  0.00    +0.064 C 
BRANCH  25  26
ATOM     26  C   UNL     1       3.370   0.440  -0.074  0.00  0.00    +0.124 C 
BRANCH  26  27
ATOM     27  O   UNL     1       3.461   0.335   1.344  0.00  0.00    -0.384 OA
ATOM     28  H   UNL     1       2.669   0.722   1.749  0.00  0.00    +0.210 HD
ENDBRANCH  26  27
BRANCH  26  29
ATOM     29  C   UNL     1       4.616  -0.170  -0.720  0.00  0.00    +0.139 C 
BRANCH  29  31
ATOM     30  O   UNL     1       6.262   0.765   0.784  0.00  0.00    -0.250 OA
ATOM     31  C   UNL     1       5.889   0.563  -0.364  0.00  0.00    +0.316 C 
BRANCH  31  32
ATOM     32  O   UNL     1       6.569   0.998  -1.454  0.00  0.00    -0.480 OA
ATOM     33  H   UNL     1       6.241   0.818  -2.313  0.00  0.00    +0.295 HD
ENDBRANCH  31  32
ENDBRANCH  29  31
ENDBRANCH  26  29
ENDBRANCH  25  26
ENDBRANCH  22  25
ENDBRANCH  21  22
ENDBRANCH   2  20
TORSDOF 11
