REMARK  Name = 5310966
REMARK  0 active torsions:
REMARK  status: ('A' for Active; 'I' for Inactive)
REMARK                            x       y       z     vdW  Elec       q    Type
REMARK                         _______ _______ _______ _____ _____    ______ ____
ROOT
ATOM      1  N   UNL     1      -2.792   0.000   1.577  0.00  0.00    +0.384 N 
ATOM      2  N   UNL     1       2.747  -1.391   0.101  0.00  0.00    -0.241 NA
ATOM      3  N   UNL     1       2.747   1.391   0.100  0.00  0.00    -0.241 NA
ATOM      4  C   UNL     1      -2.183  -1.188  -0.565  0.00  0.00    +0.001 C 
ATOM      5  C   UNL     1      -2.183   1.188  -0.565  0.00  0.00    +0.001 C 
ATOM      6  C   UNL     1      -2.750   0.000  -1.363  0.00  0.00    +0.004 C 
ATOM      7  C   UNL     1      -0.765  -0.699  -0.403  0.00  0.00    -0.027 C 
ATOM      8  C   UNL     1      -0.765   0.700  -0.403  0.00  0.00    -0.027 C 
ATOM      9  C   UNL     1      -2.914  -1.240   0.792  0.00  0.00    -0.077 C 
ATOM     10  C   UNL     1      -2.914   1.240   0.793  0.00  0.00    -0.077 C 
ATOM     11  C   UNL     1       0.406  -1.407  -0.230  0.00  0.00    +0.016 C 
ATOM     12  C   UNL     1       0.406   1.407  -0.230  0.00  0.00    +0.016 C 
ATOM     13  C   UNL     1       1.601  -0.710  -0.063  0.00  0.00    +0.099 C 
ATOM     14  C   UNL     1       1.601   0.710  -0.063  0.00  0.00    +0.099 C 
ATOM     15  C   UNL     1       3.880  -0.685   0.261  0.00  0.00    +0.119 C 
ATOM     16  C   UNL     1       3.880   0.685   0.261  0.00  0.00    +0.119 C 
ATOM     17  H   UNL     1      -1.879   0.000   2.031  0.00  0.00    -0.084 HD
ATOM     18  H   UNL     1      -3.570   0.000   2.237  0.00  0.00    -0.084 HD
ENDROOT
TORSDOF 0
