REMARK  Name = 2083
REMARK  8 active torsions:
REMARK  status: ('A' for Active; 'I' for Inactive)
REMARK    1  A    between atoms: C_1  and  C_2
REMARK    2  A    between atoms: C_1  and  O_13
REMARK    3  A    between atoms: C_1  and  C_15
REMARK    4  A    between atoms: C_5  and  C_10
REMARK    5  A    between atoms: C_6  and  O_8
REMARK    6  A    between atoms: C_10  and  O_11
REMARK    7  A    between atoms: C_15  and  N_16
REMARK    8  A    between atoms: N_16  and  C_19
REMARK                            x       y       z     vdW  Elec       q    Type
REMARK                         _______ _______ _______ _____ _____    ______ ____
ROOT
ATOM      1  C   UNL     1       0.760   1.844  -0.174  0.00  0.00    +0.112 C 
ENDROOT
BRANCH   1   2
ATOM      2  C   UNL     1      -0.474   1.063   0.219  0.00  0.00    +0.002 C 
ATOM      3  C   UNL     1      -1.038   0.186  -0.692  0.00  0.00    -0.001 C 
ATOM      4  C   UNL     1      -1.014   1.242   1.481  0.00  0.00    +0.001 C 
ATOM      5  C   UNL     1      -2.176  -0.534  -0.329  0.00  0.00    +0.040 C 
ATOM      6  C   UNL     1      -2.733  -0.366   0.939  0.00  0.00    +0.132 C 
ATOM      7  C   UNL     1      -2.152   0.522   1.844  0.00  0.00    +0.036 C 
BRANCH   6   8
ATOM      8  O   UNL     1      -3.845  -1.061   1.308  0.00  0.00    -0.506 OA
ATOM      9  H   UNL     1      -4.244  -1.660   0.709  0.00  0.00    +0.292 HD
ENDBRANCH   6   8
BRANCH   5  10
ATOM     10  C   UNL     1      -2.785  -1.480  -1.310  0.00  0.00    +0.167 C 
BRANCH  10  11
ATOM     11  O   UNL     1      -3.742  -0.746  -2.064  0.00  0.00    -0.377 OA
ATOM     12  H   UNL     1      -4.160  -1.331  -2.715  0.00  0.00    +0.211 HD
ENDBRANCH  10  11
ENDBRANCH   5  10
ENDBRANCH   1   2
BRANCH   1  13
ATOM     13  O   UNL     1       0.416   2.707  -1.257  0.00  0.00    -0.382 OA
ATOM     14  H   UNL     1       1.197   3.217  -1.524  0.00  0.00    +0.211 HD
ENDBRANCH   1  13
BRANCH   1  15
ATOM     15  C   UNL     1       1.909   0.913  -0.580  0.00  0.00    -0.047 C 
BRANCH  15  16
ATOM     16  N   UNL     1       2.273   0.032   0.517  0.00  0.00    +0.388 N 
ATOM     17  H   UNL     1       2.564   0.595   1.316  0.00  0.00    -0.084 HD
ATOM     18  H   UNL     1       1.464  -0.538   0.763  0.00  0.00    -0.084 HD
BRANCH  16  19
ATOM     19  C   UNL     1       3.374  -0.854   0.124  0.00  0.00    -0.046 C 
ATOM     20  C   UNL     1       3.713  -1.767   1.307  0.00  0.00    -0.022 C 
ATOM     21  C   UNL     1       2.921  -1.693  -1.076  0.00  0.00    -0.022 C 
ATOM     22  C   UNL     1       4.595  -0.008  -0.256  0.00  0.00    -0.022 C 
ENDBRANCH  16  19
ENDBRANCH  15  16
ENDBRANCH   1  15
TORSDOF 8
