REMARK  Name = 39468
REMARK  7 active torsions:
REMARK  status: ('A' for Active; 'I' for Inactive)
REMARK    1  A    between atoms: O_1  and  C_8
REMARK    2  A    between atoms: O_1  and  C_13
REMARK    3  A    between atoms: C_13  and  C_14
REMARK    4  A    between atoms: C_14  and  O_15
REMARK    5  A    between atoms: C_14  and  C_17
REMARK    6  A    between atoms: C_17  and  N_18
REMARK    7  A    between atoms: N_18  and  C_21
REMARK                            x       y       z     vdW  Elec       q    Type
REMARK                         _______ _______ _______ _____ _____    ______ ____
ROOT
ATOM      1  O   UNL     1       0.257   1.451   0.423  0.00  0.00    -0.473 OA
ENDROOT
BRANCH   1   8
ATOM      2  O   UNL     1      -4.850  -1.577  -0.425  0.00  0.00    -0.291 OA
ATOM      3  C   UNL     1      -0.817  -1.188   0.534  0.00  0.00    +0.030 C 
ATOM      4  C   UNL     1      -1.660   0.011   0.194  0.00  0.00    +0.015 C 
ATOM      5  C   UNL     1      -1.663  -2.299   1.141  0.00  0.00    +0.013 C 
ATOM      6  C   UNL     1      -2.817  -2.659   0.220  0.00  0.00    +0.069 C 
ATOM      7  C   UNL     1      -3.022  -0.116  -0.120  0.00  0.00    +0.034 C 
ATOM      8  C   UNL     1      -1.068   1.280   0.145  0.00  0.00    +0.135 C 
ATOM      9  C   UNL     1      -3.668  -1.454  -0.115  0.00  0.00    +0.173 C 
ATOM     10  C   UNL     1      -3.781   1.012  -0.452  0.00  0.00    +0.003 C 
ATOM     11  C   UNL     1      -1.825   2.404  -0.187  0.00  0.00    +0.037 C 
ATOM     12  C   UNL     1      -3.180   2.271  -0.482  0.00  0.00    +0.003 C 
ENDBRANCH   1   8
BRANCH   1  13
ATOM     13  C   UNL     1       1.067   2.006  -0.609  0.00  0.00    +0.232 C 
BRANCH  13  14
ATOM     14  C   UNL     1       2.501   2.131  -0.097  0.00  0.00    +0.133 C 
BRANCH  14  15
ATOM     15  O   UNL     1       2.511   3.019   1.025  0.00  0.00    -0.383 OA
ATOM     16  H   UNL     1       3.417   3.107   1.360  0.00  0.00    +0.210 HD
ENDBRANCH  14  15
BRANCH  14  17
ATOM     17  C   UNL     1       3.104   0.796   0.345  0.00  0.00    -0.048 C 
BRANCH  17  18
ATOM     18  N   UNL     1       3.192  -0.156  -0.753  0.00  0.00    +0.388 N 
ATOM     19  H   UNL     1       2.256  -0.334  -1.117  0.00  0.00    -0.084 HD
ATOM     20  H   UNL     1       3.787   0.241  -1.481  0.00  0.00    -0.084 HD
BRANCH  18  21
ATOM     21  C   UNL     1       3.778  -1.413  -0.308  0.00  0.00    -0.046 C 
ATOM     22  C   UNL     1       3.855  -2.367  -1.505  0.00  0.00    -0.022 C 
ATOM     23  C   UNL     1       5.184  -1.131   0.231  0.00  0.00    -0.022 C 
ATOM     24  C   UNL     1       2.902  -2.020   0.794  0.00  0.00    -0.022 C 
ENDBRANCH  18  21
ENDBRANCH  17  18
ENDBRANCH  14  17
ENDBRANCH  13  14
ENDBRANCH   1  13
TORSDOF 7
