REMARK  Name = 688561
REMARK  7 active torsions:
REMARK  status: ('A' for Active; 'I' for Inactive)
REMARK    1  A    between atoms: C_3  and  C_15
REMARK    2  A    between atoms: C_7  and  O_13
REMARK    3  A    between atoms: C_15  and  O_16
REMARK    4  A    between atoms: C_15  and  C_18
REMARK    5  A    between atoms: C_18  and  N_19
REMARK    6  A    between atoms: C_18  and  C_25
REMARK    7  A    between atoms: N_19  and  C_22
REMARK                            x       y       z     vdW  Elec       q    Type
REMARK                         _______ _______ _______ _____ _____    ______ ____
ROOT
ATOM      1  O   UNL     1       4.014  -2.863  -0.579  0.00  0.00    -0.270 OA
ATOM      2  N   UNL     1       3.401  -0.668  -0.248  0.00  0.00    -0.278 N 
ATOM      3  C   UNL     1       0.106   0.809   0.554  0.00  0.00    +0.004 C 
ATOM      4  C   UNL     1       1.093  -0.138   0.266  0.00  0.00    +0.015 C 
ATOM      5  C   UNL     1       0.437   2.165   0.615  0.00  0.00    +0.001 C 
ATOM      6  C   UNL     1       2.408   0.285   0.042  0.00  0.00    +0.084 C 
ATOM      7  C   UNL     1       2.740   1.639   0.103  0.00  0.00    +0.147 C 
ATOM      8  C   UNL     1       0.787  -1.565   0.193  0.00  0.00    +0.006 C 
ATOM      9  C   UNL     1       1.750   2.579   0.390  0.00  0.00    +0.038 C 
ATOM     10  C   UNL     1       1.747  -2.454  -0.083  0.00  0.00    +0.058 C 
ATOM     11  C   UNL     1       3.152  -2.025  -0.325  0.00  0.00    +0.250 C 
ATOM     12  H   UNL     1       4.321  -0.353  -0.403  0.00  0.00    +0.155 HD
ENDROOT
BRANCH   7  13
ATOM     13  O   UNL     1       4.017   2.062  -0.112  0.00  0.00    -0.504 OA
ATOM     14  H   UNL     1       4.690   1.440  -0.306  0.00  0.00    +0.292 HD
ENDBRANCH   7  13
BRANCH   3  15
ATOM     15  C   UNL     1      -1.317   0.427   0.805  0.00  0.00    +0.113 C 
BRANCH  15  16
ATOM     16  O   UNL     1      -1.915   1.274   1.797  0.00  0.00    -0.382 OA
ATOM     17  H   UNL     1      -2.835   1.005   1.941  0.00  0.00    +0.211 HD
ENDBRANCH  15  16
BRANCH  15  18
ATOM     18  C   UNL     1      -2.189   0.417  -0.486  0.00  0.00    -0.030 C 
BRANCH  18  19
ATOM     19  N   UNL     1      -3.550  -0.043  -0.176  0.00  0.00    +0.388 N 
ATOM     20  H   UNL     1      -4.086  -0.113  -1.041  0.00  0.00    -0.084 HD
ATOM     21  H   UNL     1      -3.988   0.627   0.456  0.00  0.00    -0.084 HD
BRANCH  19  22
ATOM     22  C   UNL     1      -3.513  -1.343   0.469  0.00  0.00    -0.062 C 
ATOM     23  C   UNL     1      -2.857  -2.371  -0.449  0.00  0.00    -0.023 C 
ATOM     24  C   UNL     1      -4.930  -1.766   0.841  0.00  0.00    -0.023 C 
ENDBRANCH  19  22
ENDBRANCH  18  19
BRANCH  18  25
ATOM     25  C   UNL     1      -2.259   1.792  -1.180  0.00  0.00    -0.019 C 
ATOM     26  C   UNL     1      -3.122   1.787  -2.438  0.00  0.00    -0.002 C 
ENDBRANCH  18  25
ENDBRANCH  15  18
ENDBRANCH   3  15
TORSDOF 7
