REMARK  Name = 447086
REMARK  0 active torsions:
REMARK  status: ('A' for Active; 'I' for Inactive)
REMARK                            x       y       z     vdW  Elec       q    Type
REMARK                         _______ _______ _______ _____ _____    ______ ____
ROOT
ATOM      1 BR   UNL     1      -3.586   0.824   0.001  0.00  0.00    +0.004 Br
ATOM      2 CL   UNL     1       0.186  -3.021   0.001  0.00  0.00    -0.085 Cl
ATOM      3  N   UNL     1      -1.414  -0.965   0.000  0.00  0.00    -0.286 N 
ATOM      4  N   UNL     1      -0.886   1.364   0.000  0.00  0.00    -0.328 NA
ATOM      5  N   UNL     1       2.220  -0.427   0.000  0.00  0.00    -0.234 NA
ATOM      6  N   UNL     1       1.488   1.761   0.000  0.00  0.00    -0.182 NA
ATOM      7  C   UNL     1       0.857  -0.409  -0.001  0.00  0.00    +0.162 C 
ATOM      8  C   UNL     1       0.436   0.997   0.000  0.00  0.00    +0.103 C 
ATOM      9  C   UNL     1      -0.095  -1.340   0.000  0.00  0.00    +0.204 C 
ATOM     10  C   UNL     1      -1.738   0.376   0.000  0.00  0.00    +0.227 C 
ATOM     11  C   UNL     1       2.532   0.841   0.001  0.00  0.00    +0.262 C 
ATOM     12  H   UNL     1      -2.124  -1.647   0.000  0.00  0.00    +0.151 HD
ENDROOT
TORSDOF 0
