REMARK  Name = 62436
REMARK  2 active torsions:
REMARK  status: ('A' for Active; 'I' for Inactive)
REMARK    1  A    between atoms: C_1  and  N_7
REMARK    2  A    between atoms: C_1  and  C_13
REMARK                            x       y       z     vdW  Elec       q    Type
REMARK                         _______ _______ _______ _____ _____    ______ ____
ROOT
ATOM      1  C   UNL     1      -0.520  -0.458   0.030  0.00  0.00    -0.022 C 
ATOM      2  C   UNL     1      -1.161  -1.105   1.291  0.00  0.00    -0.015 C 
ATOM      3  C   UNL     1      -1.091  -1.179  -1.224  0.00  0.00    -0.015 C 
ATOM      4  C   UNL     1      -2.691  -1.162   1.253  0.00  0.00    -0.002 C 
ATOM      5  C   UNL     1      -2.620  -1.250  -1.261  0.00  0.00    -0.002 C 
ATOM      6  C   UNL     1      -3.190  -1.876   0.004  0.00  0.00    -0.000 C 
ENDROOT
BRANCH   1   7
ATOM      7  N   UNL     1      -0.946   0.934   0.008  0.00  0.00    +0.392 N 
ATOM      8  C   UNL     1      -0.474   1.644  -1.180  0.00  0.00    -0.077 C 
ATOM      9  C   UNL     1      -0.421   1.697   1.140  0.00  0.00    -0.077 C 
ATOM     10  C   UNL     1      -0.687   3.104  -0.811  0.00  0.00    -0.025 C 
ATOM     11  C   UNL     1      -0.649   3.140   0.714  0.00  0.00    -0.025 C 
ATOM     12  H   UNL     1      -1.965   0.880   0.033  0.00  0.00    -0.079 HD
ENDBRANCH   1   7
BRANCH   1  13
ATOM     13  C   UNL     1       1.021  -0.523   0.017  0.00  0.00    -0.040 C 
ATOM     14  C   UNL     1       1.722  -0.515   1.219  0.00  0.00    -0.006 C 
ATOM     15  C   UNL     1       1.699  -0.589  -1.196  0.00  0.00    -0.006 C 
ATOM     16  C   UNL     1       3.115  -0.574   1.208  0.00  0.00    -0.000 C 
ATOM     17  C   UNL     1       3.093  -0.648  -1.207  0.00  0.00    -0.000 C 
ATOM     18  C   UNL     1       3.801  -0.640  -0.005  0.00  0.00    -0.000 C 
ENDBRANCH   1  13
TORSDOF 2
