REMARK  Name = 4068592
REMARK  3 active torsions:
REMARK  status: ('A' for Active; 'I' for Inactive)
REMARK    1  A    between atoms: C_1  and  S_2
REMARK    2  A    between atoms: C_1  and  C_6
REMARK    3  A    between atoms: C_6  and  N_7
REMARK                            x       y       z     vdW  Elec       q    Type
REMARK                         _______ _______ _______ _____ _____    ______ ____
ROOT
ATOM      1  C   UNL     1       0.561  -0.657   0.040  0.00  0.00    +0.134 C 
ENDROOT
BRANCH   1   2
ATOM      2  S   UNL     1      -1.066   0.026  -0.004  0.00  0.00    +0.020 S 
ATOM      3  O   UNL     1      -1.087   0.758  -1.269  0.00  0.00    -0.070 OA
ATOM      4  O   UNL     1      -1.926  -1.155   0.039  0.00  0.00    -0.070 OA
ATOM      5  O   UNL     1      -1.109   0.864   1.194  0.00  0.00    -0.070 OA
ENDBRANCH   1   2
BRANCH   1   6
ATOM      6  C   UNL     1       1.644   0.401   0.004  0.00  0.00    -0.060 C 
BRANCH   6   7
ATOM      7  N   UNL     1       2.983  -0.237  -0.005  0.00  0.00    +0.382 N 
ATOM      8  H   UNL     1       3.703   0.485  -0.029  0.00  0.00    -0.089 HD
ATOM      9  H   UNL     1       3.070  -0.832  -0.828  0.00  0.00    -0.089 HD
ATOM     10  H   UNL     1       3.095  -0.802   0.837  0.00  0.00    -0.089 HD
ENDBRANCH   6   7
ENDBRANCH   1   6
TORSDOF 3
