REMARK  Name = 62370
REMARK  8 active torsions:
REMARK  status: ('A' for Active; 'I' for Inactive)
REMARK    1  A    between atoms: C_1  and  N_3
REMARK    2  A    between atoms: C_1  and  C_14
REMARK    3  A    between atoms: N_3  and  C_6
REMARK    4  A    between atoms: C_6  and  C_7
REMARK    5  A    between atoms: C_7  and  C_8
REMARK    6  A    between atoms: C_14  and  N_16
REMARK    7  A    between atoms: N_16  and  C_18
REMARK    8  A    between atoms: C_17  and  C_24
REMARK                            x       y       z     vdW  Elec       q    Type
REMARK                         _______ _______ _______ _____ _____    ______ ____
ROOT
ATOM      1  C   UNL     1      -0.331  -0.323  -0.319  0.00  0.00    -0.038 C 
ATOM      2  C   UNL     1      -0.252  -1.077   1.008  0.00  0.00    -0.021 C 
ENDROOT
BRANCH   1   3
ATOM      3  N   UNL     1       0.887  -0.588  -1.086  0.00  0.00    +0.388 N 
ATOM      4  C   UNL     1       0.848   0.118  -2.366  0.00  0.00    -0.100 C 
ATOM      5  H   UNL     1       0.942  -1.589  -1.272  0.00  0.00    -0.080 HD
BRANCH   3   6
ATOM      6  C   UNL     1       2.068  -0.194  -0.320  0.00  0.00    -0.073 C 
BRANCH   6   7
ATOM      7  C   UNL     1       3.352  -0.563  -1.064  0.00  0.00    +0.004 C 
BRANCH   7   8
ATOM      8  C   UNL     1       4.579  -0.182  -0.274  0.00  0.00    -0.024 C 
ATOM      9  C   UNL     1       5.137   1.075  -0.447  0.00  0.00    -0.004 C 
ATOM     10  C   UNL     1       5.128  -1.095   0.614  0.00  0.00    -0.004 C 
ATOM     11  C   UNL     1       6.271   1.428   0.283  0.00  0.00    -0.000 C 
ATOM     12  C   UNL     1       6.262  -0.743   1.345  0.00  0.00    -0.000 C 
ATOM     13  C   UNL     1       6.834   0.519   1.180  0.00  0.00    -0.000 C 
ENDBRANCH   7   8
ENDBRANCH   6   7
ENDBRANCH   3   6
ENDBRANCH   1   3
BRANCH   1  14
ATOM     14  C   UNL     1      -1.545  -0.744  -1.151  0.00  0.00    +0.077 C 
BRANCH  14  16
ATOM     15  O   UNL     1      -4.935  -1.437  -0.054  0.00  0.00    -0.275 OA
ATOM     16  N   UNL     1      -2.813  -0.511  -0.442  0.00  0.00    -0.261 N 
ATOM     17  C   UNL     1      -3.711  -1.560  -0.143  0.00  0.00    +0.229 C 
BRANCH  16  18
ATOM     18  C   UNL     1      -3.152   0.839  -0.038  0.00  0.00    +0.054 C 
ATOM     19  C   UNL     1      -3.918   1.001   1.085  0.00  0.00    +0.015 C 
ATOM     20  C   UNL     1      -2.686   1.875  -0.801  0.00  0.00    +0.015 C 
ATOM     21  C   UNL     1      -4.245   2.300   1.474  0.00  0.00    +0.001 C 
ATOM     22  C   UNL     1      -3.013   3.175  -0.411  0.00  0.00    +0.001 C 
ATOM     23  C   UNL     1      -3.792   3.386   0.726  0.00  0.00    +0.000 C 
ENDBRANCH  16  18
BRANCH  17  24
ATOM     24  C   UNL     1      -3.078  -2.923   0.122  0.00  0.00    +0.086 C 
ATOM     25  C   UNL     1      -3.896  -3.777   1.079  0.00  0.00    +0.010 C 
ENDBRANCH  17  24
ENDBRANCH  14  16
ENDBRANCH   1  14
TORSDOF 8
