REMARK  Name = 941651
REMARK  5 active torsions:
REMARK  status: ('A' for Active; 'I' for Inactive)
REMARK    1  A    between atoms: C_2  and  C_22
REMARK    2  A    between atoms: C_9  and  S_16
REMARK    3  A    between atoms: S_16  and  N_19
REMARK    4  A    between atoms: C_22  and  C_23
REMARK    5  A    between atoms: C_23  and  N_24
REMARK                            x       y       z     vdW  Elec       q    Type
REMARK                         _______ _______ _______ _____ _____    ______ ____
ROOT
ATOM      1  S   UNL     1       4.009   0.544   1.664  0.00  0.00    -0.087 S 
ATOM      2  C   UNL     1       0.941  -1.732  -0.278  0.00  0.00    -0.028 C 
ATOM      3  C   UNL     1       1.974  -0.872  -0.202  0.00  0.00    -0.003 C 
ATOM      4  C   UNL     1       1.700   0.566   0.066  0.00  0.00    +0.007 C 
ATOM      5  C   UNL     1       3.363  -1.402  -0.254  0.00  0.00    +0.006 C 
ATOM      6  C   UNL     1       2.577   1.293   0.893  0.00  0.00    +0.030 C 
ATOM      7  C   UNL     1       0.613   1.237  -0.521  0.00  0.00    +0.020 C 
ATOM      8  C   UNL     1       4.357  -0.814   0.550  0.00  0.00    +0.029 C 
ATOM      9  C   UNL     1       0.383   2.589  -0.265  0.00  0.00    +0.122 C 
ATOM     10  C   UNL     1       2.333   2.651   1.150  0.00  0.00    +0.008 C 
ATOM     11  C   UNL     1       3.726  -2.448  -1.121  0.00  0.00    +0.000 C 
ATOM     12  C   UNL     1       1.239   3.294   0.574  0.00  0.00    +0.020 C 
ATOM     13  C   UNL     1       5.672  -1.301   0.506  0.00  0.00    +0.006 C 
ATOM     14  C   UNL     1       5.038  -2.921  -1.162  0.00  0.00    +0.000 C 
ATOM     15  C   UNL     1       6.009  -2.351  -0.346  0.00  0.00    +0.001 C 
ENDROOT
BRANCH   9  16
ATOM     16  S   UNL     1      -0.983   3.396  -0.995  0.00  0.00    +0.063 S 
ATOM     17  O   UNL     1      -0.679   4.820  -1.079  0.00  0.00    -0.153 OA
ATOM     18  O   UNL     1      -1.330   2.686  -2.221  0.00  0.00    -0.153 OA
BRANCH  16  19
ATOM     19  N   UNL     1      -2.250   3.164   0.161  0.00  0.00    -0.153 NA
ATOM     20  C   UNL     1      -2.634   1.767   0.488  0.00  0.00    +0.115 C 
ATOM     21  C   UNL     1      -2.250   4.036   1.363  0.00  0.00    +0.115 C 
ENDBRANCH  16  19
ENDBRANCH   9  16
BRANCH   2  22
ATOM     22  C   UNL     1      -0.494  -1.313  -0.235  0.00  0.00    +0.003 C 
BRANCH  22  23
ATOM     23  C   UNL     1      -1.363  -2.396   0.402  0.00  0.00    -0.073 C 
BRANCH  23  24
ATOM     24  N   UNL     1      -2.757  -1.962   0.454  0.00  0.00    +0.384 N 
ATOM     25  N   UNL     1      -5.572  -2.260  -0.138  0.00  0.00    +0.383 N 
ATOM     26  C   UNL     1      -3.281  -1.729  -0.898  0.00  0.00    -0.101 C 
ATOM     27  C   UNL     1      -3.584  -2.948   1.160  0.00  0.00    -0.101 C 
ATOM     28  C   UNL     1      -4.744  -1.276  -0.846  0.00  0.00    -0.101 C 
ATOM     29  C   UNL     1      -5.047  -2.494   1.214  0.00  0.00    -0.101 C 
ATOM     30  C   UNL     1      -6.966  -1.824  -0.085  0.00  0.00    -0.101 C 
ATOM     31  H   UNL     1      -2.794  -1.083   0.969  0.00  0.00    -0.080 HD
ATOM     32  H   UNL     1      -5.536  -3.140  -0.653  0.00  0.00    -0.080 HD
ENDBRANCH  23  24
ENDBRANCH  22  23
ENDBRANCH   2  22
TORSDOF 5
