REMARK  Name = 17754065
REMARK  13 active torsions:
REMARK  status: ('A' for Active; 'I' for Inactive)
REMARK    1  A    between atoms: CE_1  and  N_2
REMARK    2  A    between atoms: CE_1  and  CD_14
REMARK    3  A    between atoms: N_2  and  CA_5
REMARK    4  A    between atoms: CA_5  and  C_7
REMARK    5  A    between atoms: CA_5  and  C_11
REMARK    6  A    between atoms: C_7  and  O_8
REMARK    7  A    between atoms: C_11  and  O_12
REMARK    8  A    between atoms: CD_14  and  CG_15
REMARK    9  A    between atoms: CG_15  and  CB_16
REMARK   10  A    between atoms: CB_16  and  CA_17
REMARK   11  A    between atoms: CA_17  and  N_18
REMARK   12  A    between atoms: CA_17  and  C_23
REMARK   13  A    between atoms: C_23  and  O_24
REMARK                            x       y       z     vdW  Elec       q    Type
REMARK                         _______ _______ _______ _____ _____    ______ ____
ROOT
ATOM      1  CE  UNL     1      -0.623  -0.030  -0.072  0.00  0.00    -0.080 C 
ENDROOT
BRANCH   1   2
ATOM      2  N   UNL     1      -1.900  -0.443   0.498  0.00  0.00    +0.399 N 
ATOM      3  H1  UNL     1      -2.048   0.051   1.379  0.00  0.00    -0.083 HD
ATOM      4  H2  UNL     1      -1.877  -1.451   0.655  0.00  0.00    -0.083 HD
BRANCH   2   5
ATOM      5  CA  UNL     1      -2.997  -0.138  -0.409  0.00  0.00    +0.140 C 
BRANCH   5   7
ATOM      6  O   UNL     1      -3.169   2.005   0.748  0.00  0.00    -0.252 OA
ATOM      7  C   UNL     1      -3.318   1.333  -0.263  0.00  0.00    +0.304 C 
BRANCH   7   8
ATOM      8  O   UNL     1      -3.852   1.830  -1.410  0.00  0.00    -0.481 OA
ATOM      9  H   UNL     1      -3.947   1.277  -2.161  0.00  0.00    +0.295 HD
ENDBRANCH   7   8
ENDBRANCH   5   7
BRANCH   5  11
ATOM     10  OXT UNL     1      -5.241  -0.755   0.319  0.00  0.00    -0.252 OA
ATOM     11  C   UNL     1      -4.126  -1.087  -0.061  0.00  0.00    +0.304 C 
BRANCH  11  12
ATOM     12  O   UNL     1      -3.760  -2.389  -0.208  0.00  0.00    -0.481 OA
ATOM     13  H   UNL     1      -2.896  -2.603  -0.501  0.00  0.00    +0.295 HD
ENDBRANCH  11  12
ENDBRANCH   5  11
ENDBRANCH   2   5
ENDBRANCH   1   2
BRANCH   1  14
ATOM     14  CD  UNL     1       0.517  -0.346   0.895  0.00  0.00    -0.023 C 
BRANCH  14  15
ATOM     15  CG  UNL     1       1.866   0.089   0.316  0.00  0.00    -0.004 C 
BRANCH  15  16
ATOM     16  CB  UNL     1       3.057  -0.224   1.231  0.00  0.00    -0.011 C 
BRANCH  16  17
ATOM     17  CA  UNL     1       4.414   0.264   0.708  0.00  0.00    +0.036 C 
BRANCH  17  18
ATOM     18  N   UNL     1       4.422   1.715   0.520  0.00  0.00    +0.389 N 
ATOM     19  H1  UNL     1       4.163   2.173   1.394  0.00  0.00    -0.088 HD
ATOM     20  H2  UNL     1       3.754   1.968  -0.208  0.00  0.00    -0.088 HD
ATOM     21  H3  UNL     1       5.357   2.017   0.242  0.00  0.00    -0.088 HD
ENDBRANCH  17  18
BRANCH  17  23
ATOM     22  OXT UNL     1       4.980   0.271  -1.639  0.00  0.00    -0.253 OA
ATOM     23  C   UNL     1       4.804  -0.372  -0.611  0.00  0.00    +0.293 C 
BRANCH  23  24
ATOM     24  O   UNL     1       4.926  -1.722  -0.561  0.00  0.00    -0.482 OA
ATOM     25  H   UNL     1       4.783  -2.176   0.246  0.00  0.00    +0.295 HD
ENDBRANCH  23  24
ENDBRANCH  17  23
ENDBRANCH  16  17
ENDBRANCH  15  16
ENDBRANCH  14  15
ENDBRANCH   1  14
TORSDOF 13
