REMARK  Name = 448238
REMARK  8 active torsions:
REMARK  status: ('A' for Active; 'I' for Inactive)
REMARK    1  A    between atoms: C_4  and  C_11
REMARK    2  A    between atoms: C_5  and  C_20
REMARK    3  A    between atoms: C_22  and  N_26
REMARK    4  A    between atoms: N_26  and  C_28
REMARK    5  A    between atoms: C_28  and  C_29
REMARK    6  A    between atoms: C_29  and  O_30
REMARK    7  A    between atoms: C_29  and  C_32
REMARK    8  A    between atoms: C_32  and  O_33
REMARK                            x       y       z     vdW  Elec       q    Type
REMARK                         _______ _______ _______ _____ _____    ______ ____
ROOT
ATOM      1  O   UNL     1       3.929  -1.371   1.905  0.00  0.00    -0.270 OA
ATOM      2  O   UNL     1       0.342  -4.173   1.411  0.00  0.00    -0.270 OA
ATOM      3  N   UNL     1       2.284  -3.011   1.936  0.00  0.00    -0.248 N 
ATOM      4  C   UNL     1       1.981  -1.270   0.491  0.00  0.00    +0.059 C 
ATOM      5  C   UNL     1       0.928  -2.097   0.346  0.00  0.00    +0.058 C 
ATOM      6  C   UNL     1       2.874  -1.852   1.526  0.00  0.00    +0.252 C 
ATOM      7  C   UNL     1       1.112  -3.238   1.278  0.00  0.00    +0.252 C 
ATOM      8  H   UNL     1       2.658  -3.609   2.623  0.00  0.00    +0.158 HD
ENDROOT
BRANCH   4  11
ATOM      9  F   UNL     1       0.282   3.750   2.284  0.00  0.00    -0.204 F 
ATOM     10  N   UNL     1       3.112   1.338  -1.714  0.00  0.00    -0.284 N 
ATOM     11  C   UNL     1       2.288  -0.054  -0.194  0.00  0.00    +0.021 C 
ATOM     12  C   UNL     1       1.912   1.271   0.166  0.00  0.00    +0.017 C 
ATOM     13  C   UNL     1       2.442   2.125  -0.804  0.00  0.00    +0.052 C 
ATOM     14  C   UNL     1       3.025   0.020  -1.353  0.00  0.00    +0.066 C 
ATOM     15  C   UNL     1       1.170   1.827   1.227  0.00  0.00    +0.031 C 
ATOM     16  C   UNL     1       2.267   3.513  -0.765  0.00  0.00    +0.017 C 
ATOM     17  C   UNL     1       3.813   1.818  -2.885  0.00  0.00    +0.117 C 
ATOM     18  C   UNL     1       0.986   3.213   1.278  0.00  0.00    +0.140 C 
ATOM     19  C   UNL     1       1.527   4.041   0.296  0.00  0.00    +0.031 C 
ENDBRANCH   4  11
BRANCH   5  20
ATOM     20  C   UNL     1      -0.219  -1.954  -0.552  0.00  0.00    +0.006 C 
ATOM     21  C   UNL     1      -1.368  -1.276  -0.128  0.00  0.00    +0.014 C 
ATOM     22  C   UNL     1      -2.461  -1.139  -0.984  0.00  0.00    +0.045 C 
ATOM     23  C   UNL     1      -0.177  -2.492  -1.843  0.00  0.00    +0.000 C 
ATOM     24  C   UNL     1      -2.412  -1.678  -2.269  0.00  0.00    +0.014 C 
ATOM     25  C   UNL     1      -1.270  -2.355  -2.699  0.00  0.00    +0.001 C 
BRANCH  22  26
ATOM     26  N   UNL     1      -3.616  -0.456  -0.550  0.00  0.00    -0.331 N 
ATOM     27  H   UNL     1      -4.374  -0.371  -1.172  0.00  0.00    +0.147 HD
BRANCH  26  28
ATOM     28  C   UNL     1      -3.733   0.121   0.754  0.00  0.00    +0.119 C 
BRANCH  28  29
ATOM     29  C   UNL     1      -5.101   0.776   0.949  0.00  0.00    +0.159 C 
BRANCH  29  30
ATOM     30  O   UNL     1      -6.128  -0.208   0.824  0.00  0.00    -0.380 OA
ATOM     31  H   UNL     1      -5.964  -0.929   1.453  0.00  0.00    +0.211 HD
ENDBRANCH  29  30
BRANCH  29  32
ATOM     32  C   UNL     1      -5.383   1.894  -0.049  0.00  0.00    +0.168 C 
BRANCH  32  33
ATOM     33  O   UNL     1      -4.406   2.917   0.117  0.00  0.00    -0.379 OA
ATOM     34  H   UNL     1      -4.577   3.634  -0.514  0.00  0.00    +0.211 HD
ENDBRANCH  32  33
ENDBRANCH  29  32
ENDBRANCH  28  29
ENDBRANCH  26  28
ENDBRANCH  22  26
ENDBRANCH   5  20
TORSDOF 8
