REMARK  Name = 91562
REMARK  8 active torsions:
REMARK  status: ('A' for Active; 'I' for Inactive)
REMARK    1  A    between atoms: CA_5  and  N_11
REMARK    2  A    between atoms: CA_7  and  C_18
REMARK    3  A    between atoms: C_8  and  C_21
REMARK    4  A    between atoms: C_12  and  C_14
REMARK    5  A    between atoms: C_14  and  C_16
REMARK    6  A    between atoms: C_18  and  O_19
REMARK    7  A    between atoms: C_21  and  O_22
REMARK    8  A    between atoms: O_22  and  C_24
REMARK                            x       y       z     vdW  Elec       q    Type
REMARK                         _______ _______ _______ _____ _____    ______ ____
ROOT
ATOM      1  S   UNL     1       0.092   2.269   0.032  0.00  0.00    -0.114 S 
ATOM      2  O   UNL     1       1.681  -2.048   0.704  0.00  0.00    -0.273 OA
ATOM      3  N   UNL     1       0.080  -0.318   0.628  0.00  0.00    -0.242 N 
ATOM      4  C   UNL     1       0.407   0.958   1.236  0.00  0.00    +0.155 C 
ATOM      5  CA  UNL     1       1.859   0.438   1.320  0.00  0.00    +0.178 C 
ATOM      6  C   UNL     1       1.263  -0.926   0.867  0.00  0.00    +0.251 C 
ATOM      7  CA  UNL     1      -1.117  -0.594   0.050  0.00  0.00    +0.127 C 
ATOM      8  C   UNL     1      -1.994   0.389  -0.265  0.00  0.00    +0.030 C 
ATOM      9  C   UNL     1      -1.685   1.875  -0.098  0.00  0.00    +0.086 C 
ENDROOT
BRANCH   5  11
ATOM     10  O   UNL     1       4.485  -0.629   0.762  0.00  0.00    -0.274 OA
ATOM     11  N   UNL     1       2.852   0.979   0.392  0.00  0.00    -0.295 N 
ATOM     12  C   UNL     1       4.101   0.389   0.190  0.00  0.00    +0.238 C 
ATOM     13  H   UNL     1       2.630   1.795  -0.111  0.00  0.00    +0.150 HD
BRANCH  12  14
ATOM     14  C   UNL     1       4.934   1.150  -0.821  0.00  0.00    +0.190 C 
BRANCH  14  16
ATOM     15  N   UNL     1       7.262   0.015  -1.262  0.00  0.00    -0.195 NA
ATOM     16  C   UNL     1       6.233   0.514  -1.066  0.00  0.00    +0.083 C 
ENDBRANCH  14  16
ENDBRANCH  12  14
ENDBRANCH   5  11
BRANCH   7  18
ATOM     17  OXT UNL     1      -1.066  -2.537  -1.319  0.00  0.00    -0.244 OA
ATOM     18  C   UNL     1      -1.390  -2.002  -0.279  0.00  0.00    +0.352 C 
BRANCH  18  19
ATOM     19  O   UNL     1      -2.047  -2.580   0.746  0.00  0.00    -0.476 OA
ATOM     20  H   UNL     1      -2.253  -2.081   1.512  0.00  0.00    +0.295 HD
ENDBRANCH  18  19
ENDBRANCH   7  18
BRANCH   8  21
ATOM     21  C   UNL     1      -3.374   0.157  -0.832  0.00  0.00    +0.233 C 
BRANCH  21  22
ATOM     22  O   UNL     1      -4.337   0.706   0.042  0.00  0.00    -0.444 OA
BRANCH  22  24
ATOM     23  O   UNL     1      -6.040   0.026  -1.363  0.00  0.00    -0.250 OA
ATOM     24  C   UNL     1      -5.648   0.573  -0.342  0.00  0.00    +0.318 C 
ATOM     25  C   UNL     1      -6.552   1.198   0.677  0.00  0.00    +0.121 C 
ENDBRANCH  22  24
ENDBRANCH  21  22
ENDBRANCH   8  21
TORSDOF 8
