REMARK  Name = 128600
REMARK  3 active torsions:
REMARK  status: ('A' for Active; 'I' for Inactive)
REMARK    1  A    between atoms: C_3  and  C_15
REMARK    2  A    between atoms: C_11  and  O_23
REMARK    3  A    between atoms: C_20  and  O_21
REMARK                            x       y       z     vdW  Elec       q    Type
REMARK                         _______ _______ _______ _____ _____    ______ ____
ROOT
ATOM      1  O   UNL     1       0.659   0.878  -0.007  0.00  0.00    -0.454 OA
ATOM      2  O   UNL     1       2.514  -2.744   0.013  0.00  0.00    -0.287 OA
ATOM      3  C   UNL     1      -0.067  -0.300  -0.003  0.00  0.00    +0.144 A 
ATOM      4  C   UNL     1       0.461  -1.540  -0.003  0.00  0.00    +0.052 A 
ATOM      5  C   UNL     1       2.714  -0.403   0.001  0.00  0.00    +0.076 A 
ATOM      6  C   UNL     1       2.026   0.806  -0.005  0.00  0.00    +0.148 A 
ATOM      7  C   UNL     1       1.948  -1.659   0.004  0.00  0.00    +0.198 A 
ATOM      8  C   UNL     1       4.112  -0.418   0.005  0.00  0.00    +0.043 C 
ATOM      9  C   UNL     1      -0.296  -2.837  -0.022  0.00  0.00    +0.038 C 
ATOM     10  C   UNL     1       2.729   2.011  -0.007  0.00  0.00    +0.041 C 
ATOM     11  C   UNL     1       4.814   0.788   0.002  0.00  0.00    +0.134 C 
ATOM     12  C   UNL     1       4.123   2.001  -0.003  0.00  0.00    +0.040 C 
ENDROOT
BRANCH   3  15
ATOM     13 BR   UNL     1      -4.480   0.452  -2.868  0.00  0.00    -0.046 Br
ATOM     14 BR   UNL     1      -4.471   0.451   2.876  0.00  0.00    -0.046 Br
ATOM     15  C   UNL     1      -1.516  -0.054  -0.001  0.00  0.00    +0.036 C 
ATOM     16  C   UNL     1      -2.202   0.063   1.208  0.00  0.00    +0.013 C 
ATOM     17  C   UNL     1      -2.206   0.065  -1.208  0.00  0.00    +0.013 C 
ATOM     18  C   UNL     1      -3.580   0.299  -1.206  0.00  0.00    +0.069 C 
ATOM     19  C   UNL     1      -3.577   0.298   1.210  0.00  0.00    +0.069 C 
ATOM     20  C   UNL     1      -4.266   0.416   0.003  0.00  0.00    +0.146 C 
BRANCH  20  21
ATOM     21  O   UNL     1      -5.612   0.646   0.006  0.00  0.00    -0.505 OA
ATOM     22  H   UNL     1      -6.075   0.726  -0.805  0.00  0.00    +0.292 HD
ENDBRANCH  20  21
ENDBRANCH   3  15
BRANCH  11  23
ATOM     23  O   UNL     1       6.175   0.782   0.005  0.00  0.00    -0.506 OA
ATOM     24  H   UNL     1       6.640  -0.031   0.009  0.00  0.00    +0.292 HD
ENDBRANCH  11  23
TORSDOF 3
