REMARK  Name = 3840
REMARK  3 active torsions:
REMARK  status: ('A' for Active; 'I' for Inactive)
REMARK    1  A    between atoms: C_3  and  C_10
REMARK    2  A    between atoms: C_6  and  O_8
REMARK    3  A    between atoms: C_10  and  O_11
REMARK                            x       y       z     vdW  Elec       q    Type
REMARK                         _______ _______ _______ _____ _____    ______ ____
ROOT
ATOM      1  O   UNL     1      -0.838   1.096   0.201  0.00  0.00    -0.449 OA
ATOM      2  O   UNL     1       2.087  -1.684  -0.140  0.00  0.00    -0.283 OA
ATOM      3  C   UNL     1      -1.147  -0.256   0.187  0.00  0.00    +0.156 C 
ATOM      4  C   UNL     1      -0.220  -1.218   0.077  0.00  0.00    +0.081 C 
ATOM      5  C   UNL     1       1.207  -0.838  -0.035  0.00  0.00    +0.235 C 
ATOM      6  C   UNL     1       1.508   0.612  -0.017  0.00  0.00    +0.211 C 
ATOM      7  C   UNL     1       0.482   1.462   0.099  0.00  0.00    +0.219 C 
ENDROOT
BRANCH   6   8
ATOM      8  O   UNL     1       2.810   1.040  -0.117  0.00  0.00    -0.501 OA
ATOM      9  H   UNL     1       3.504   0.415  -0.197  0.00  0.00    +0.292 HD
ENDBRANCH   6   8
BRANCH   3  10
ATOM     10  C   UNL     1      -2.608  -0.547   0.309  0.00  0.00    +0.202 C 
BRANCH  10  11
ATOM     11  O   UNL     1      -3.282   0.333  -0.563  0.00  0.00    -0.375 OA
ATOM     12  H   UNL     1      -4.237   0.172  -0.511  0.00  0.00    +0.211 HD
ENDBRANCH  10  11
ENDBRANCH   3  10
TORSDOF 3
