REMARK  Name = 3406
REMARK  0 active torsions:
REMARK  status: ('A' for Active; 'I' for Inactive)
REMARK                            x       y       z     vdW  Elec       q    Type
REMARK                         _______ _______ _______ _____ _____    ______ ____
ROOT
ATOM      1  N   UNL     1       1.324   0.684   0.000  0.00  0.00    -0.235 N 
ATOM      2  N   UNL     1       1.441  -0.654   0.000  0.00  0.00    -0.180 NA
ATOM      3  C   UNL     1      -0.749  -0.004   0.000  0.00  0.00    +0.015 C 
ATOM      4  C   UNL     1       0.033   1.125   0.000  0.00  0.00    +0.077 C 
ATOM      5  C   UNL     1      -2.219  -0.081   0.000  0.00  0.00    +0.034 C 
ATOM      6  C   UNL     1       0.171  -1.070   0.000  0.00  0.00    +0.115 C 
ATOM      7  H   UNL     1       2.099   1.292  -0.001  0.00  0.00    +0.174 HD
ENDROOT
TORSDOF 0
