REMARK  Name = 5284604
REMARK  2 active torsions:
REMARK  status: ('A' for Active; 'I' for Inactive)
REMARK    1  A    between atoms: C_5  and  O_22
REMARK    2  A    between atoms: C_19  and  O_24
REMARK                            x       y       z     vdW  Elec       q    Type
REMARK                         _______ _______ _______ _____ _____    ______ ____
ROOT
ATOM      1  O   UNL     1      -1.979  -0.633   1.264  0.00  0.00    -0.469 OA
ATOM      2  O   UNL     1      -2.386  -2.778  -0.334  0.00  0.00    -0.292 OA
ATOM      3  N   UNL     1       2.986   0.677   0.456  0.00  0.00    +0.389 N 
ATOM      4  C   UNL     1       0.356  -0.540   0.642  0.00  0.00    +0.084 C 
ATOM      5  C   UNL     1       1.399  -1.011  -0.381  0.00  0.00    +0.079 C 
ATOM      6  C   UNL     1       2.246   0.251  -0.760  0.00  0.00    -0.028 C 
ATOM      7  C   UNL     1      -0.821  -1.475   0.966  0.00  0.00    +0.228 C 
ATOM      8  C   UNL     1       1.071  -0.024   1.913  0.00  0.00    -0.013 C 
ATOM      9  C   UNL     1      -0.453   0.568   0.061  0.00  0.00    +0.016 C 
ATOM     10  C   UNL     1       0.748  -1.723  -1.581  0.00  0.00    +0.033 C 
ATOM     11  C   UNL     1       1.374   1.379  -1.418  0.00  0.00    +0.008 C 
ATOM     12  C   UNL     1       2.132   1.044   1.591  0.00  0.00    -0.077 C 
ATOM     13  C   UNL     1      -0.011   1.517  -0.842  0.00  0.00    -0.025 C 
ATOM     14  C   UNL     1      -0.131  -2.882  -1.114  0.00  0.00    +0.071 C 
ATOM     15  C   UNL     1      -1.225  -2.392  -0.193  0.00  0.00    +0.191 C 
ATOM     16  C   UNL     1      -1.756   0.495   0.509  0.00  0.00    +0.168 C 
ATOM     17  C   UNL     1       4.000   1.693   0.198  0.00  0.00    -0.100 C 
ATOM     18  C   UNL     1      -0.932   2.489  -1.230  0.00  0.00    -0.001 C 
ATOM     19  C   UNL     1      -2.677   1.452   0.150  0.00  0.00    +0.167 C 
ATOM     20  C   UNL     1      -2.250   2.465  -0.722  0.00  0.00    +0.039 C 
ATOM     21  H   UNL     1       3.479  -0.170   0.740  0.00  0.00    -0.080 HD
ENDROOT
BRANCH   5  22
ATOM     22  O   UNL     1       2.264  -1.980   0.236  0.00  0.00    -0.388 OA
ATOM     23  H   UNL     1       2.702  -1.580   1.003  0.00  0.00    +0.210 HD
ENDBRANCH   5  22
BRANCH  19  24
ATOM     24  O   UNL     1      -3.958   1.409   0.590  0.00  0.00    -0.503 OA
ATOM     25  H   UNL     1      -4.230   0.727   1.172  0.00  0.00    +0.292 HD
ENDBRANCH  19  24
TORSDOF 2
