REMARK  Name = 5232324
REMARK  5 active torsions:
REMARK  status: ('A' for Active; 'I' for Inactive)
REMARK    1  A    between atoms: O_1  and  P_2
REMARK    2  A    between atoms: O_1  and  C_7
REMARK    3  A    between atoms: P_2  and  O_5
REMARK    4  A    between atoms: C_7  and  C_8
REMARK    5  A    between atoms: C_8  and  N_9
REMARK                            x       y       z     vdW  Elec       q    Type
REMARK                         _______ _______ _______ _____ _____    ______ ____
ROOT
ATOM      1  O   UNL     1      -0.210  -0.211  -0.339  0.00  0.00    -0.274 OA
ENDROOT
BRANCH   1   2
ATOM      2  P   UNL     1       1.374  -0.148   0.054  0.00  0.00    +0.503 P 
ATOM      3  O   UNL     1       2.089  -1.265  -0.675  0.00  0.00    -0.225 OA
ATOM      4  O   UNL     1       1.526   0.009   1.552  0.00  0.00    -0.116 OA
BRANCH   2   5
ATOM      5  O   UNL     1       1.777   1.264  -0.661  0.00  0.00    -0.301 OA
ATOM      6  H   UNL     1       1.684   1.178  -1.623  0.00  0.00    +0.222 HD
ENDBRANCH   2   5
ENDBRANCH   1   2
BRANCH   1   7
ATOM      7  C   UNL     1      -1.104   0.741   0.221  0.00  0.00    +0.130 C 
BRANCH   7   8
ATOM      8  C   UNL     1      -2.508   0.481  -0.289  0.00  0.00    -0.053 C 
BRANCH   8   9
ATOM      9  N   UNL     1      -2.942  -0.872   0.139  0.00  0.00    +0.382 N 
ATOM     10  H   UNL     1      -3.887  -1.050  -0.203  0.00  0.00    -0.089 HD
ATOM     11  H   UNL     1      -2.934  -0.926   1.157  0.00  0.00    -0.089 HD
ATOM     12  H   UNL     1      -2.305  -1.571  -0.244  0.00  0.00    -0.089 HD
ENDBRANCH   8   9
ENDBRANCH   7   8
ENDBRANCH   1   7
TORSDOF 5
