REMARK  Name = 447195
REMARK  5 active torsions:
REMARK  status: ('A' for Active; 'I' for Inactive)
REMARK    1  A    between atoms: CA_1  and  N_2
REMARK    2  A    between atoms: CA_1  and  C_7
REMARK    3  A    between atoms: CA_1  and  C_10
REMARK    4  A    between atoms: C_7  and  O_8
REMARK    5  A    between atoms: C_10  and  C_14
REMARK                            x       y       z     vdW  Elec       q    Type
REMARK                         _______ _______ _______ _____ _____    ______ ____
ROOT
ATOM      1  CA  UNL     1      -1.617   0.880  -0.188  0.00  0.00    +0.040 C 
ENDROOT
BRANCH   1   2
ATOM      2  N   UNL     1      -2.891   1.359   0.347  0.00  0.00    +0.389 N 
ATOM      3  H1  UNL     1      -2.820   2.355   0.551  0.00  0.00    -0.088 HD
ATOM      4  H2  UNL     1      -3.113   0.851   1.203  0.00  0.00    -0.088 HD
ATOM      5  H3  UNL     1      -3.628   1.204  -0.341  0.00  0.00    -0.088 HD
ENDBRANCH   1   2
BRANCH   1   7
ATOM      6  OXT UNL     1      -2.520  -1.357   0.177  0.00  0.00    -0.253 OA
ATOM      7  C   UNL     1      -1.802  -0.603  -0.465  0.00  0.00    +0.293 C 
BRANCH   7   8
ATOM      8  O   UNL     1      -1.070  -1.018  -1.534  0.00  0.00    -0.482 OA
ATOM      9  H   UNL     1      -0.532  -0.407  -1.998  0.00  0.00    +0.295 HD
ENDBRANCH   7   8
ENDBRANCH   1   7
BRANCH   1  10
ATOM     10  C   UNL     1      -0.483   1.162   0.807  0.00  0.00    +0.023 C 
BRANCH  10  14
ATOM     11  O   UNL     1       2.900   0.534  -0.707  0.00  0.00    -0.381 OA
ATOM     12  O   UNL     1       0.847  -1.543   1.189  0.00  0.00    -0.267 OA
ATOM     13  N   UNL     1       2.623  -0.698  -0.073  0.00  0.00    -0.144 N 
ATOM     14  C   UNL     1       0.839   0.675   0.311  0.00  0.00    +0.072 C 
ATOM     15  C   UNL     1       1.396  -0.661   0.552  0.00  0.00    +0.276 C 
ATOM     16  C   UNL     1       1.778   1.271  -0.416  0.00  0.00    +0.207 C 
ATOM     17  H   UNL     1       3.225  -1.477  -0.078  0.00  0.00    +0.196 HD
ENDBRANCH  10  14
ENDBRANCH   1  10
TORSDOF 5
