REMARK  Name = 31721
REMARK  4 active torsions:
REMARK  status: ('A' for Active; 'I' for Inactive)
REMARK    1  A    between atoms: C_1  and  C_9
REMARK    2  A    between atoms: C_6  and  O_7
REMARK    3  A    between atoms: C_9  and  C_10
REMARK    4  A    between atoms: C_10  and  N_12
REMARK                            x       y       z     vdW  Elec       q    Type
REMARK                         _______ _______ _______ _____ _____    ______ ____
ROOT
ATOM      1  C   UNL     1       0.562   0.095  -0.519  0.00  0.00    -0.024 C 
ATOM      2  C   UNL     1       0.027  -1.183  -0.545  0.00  0.00    -0.001 C 
ATOM      3  C   UNL     1      -0.225   1.199  -0.232  0.00  0.00    -0.001 C 
ATOM      4  C   UNL     1      -1.330  -1.362  -0.279  0.00  0.00    +0.037 C 
ATOM      5  C   UNL     1      -1.583   1.020   0.035  0.00  0.00    +0.037 C 
ATOM      6  C   UNL     1      -2.135  -0.261   0.011  0.00  0.00    +0.139 C 
ENDROOT
BRANCH   6   7
ATOM      7  O   UNL     1      -3.460  -0.436   0.271  0.00  0.00    -0.471 OA
ATOM      8  C   UNL     1      -4.225   0.733   0.560  0.00  0.00    +0.252 C 
ENDBRANCH   6   7
BRANCH   1   9
ATOM      9  C   UNL     1       2.031   0.289  -0.807  0.00  0.00    +0.005 C 
BRANCH   9  10
ATOM     10  C   UNL     1       2.920   0.219   0.448  0.00  0.00    -0.061 C 
ATOM     11  C   UNL     1       3.228  -1.219   0.868  0.00  0.00    -0.024 C 
BRANCH  10  12
ATOM     12  N   UNL     1       4.189   0.906   0.189  0.00  0.00    +0.382 N 
ATOM     13  H   UNL     1       4.003   1.868  -0.093  0.00  0.00    -0.089 HD
ATOM     14  H   UNL     1       4.690   0.424  -0.557  0.00  0.00    -0.089 HD
ATOM     15  H   UNL     1       4.756   0.903   1.037  0.00  0.00    -0.089 HD
ENDBRANCH  10  12
ENDBRANCH   9  10
ENDBRANCH   1   9
TORSDOF 4
