REMARK  Name = 9427
REMARK  5 active torsions:
REMARK  status: ('A' for Active; 'I' for Inactive)
REMARK    1  A    between atoms: C2*_2  and  O2*_16
REMARK    2  A    between atoms: C3*_3  and  O3*_18
REMARK    3  A    between atoms: C1*_4  and  N_9
REMARK    4  A    between atoms: C4*_5  and  C5*_20
REMARK    5  A    between atoms: C5*_20  and  O5*_21
REMARK                            x       y       z     vdW  Elec       q    Type
REMARK                         _______ _______ _______ _____ _____    ______ ____
ROOT
ATOM      1  O4* UNL     1      -1.468  -0.501   1.057  0.00  0.00    -0.333 OA
ATOM      2  C2* UNL     1      -1.615   0.923  -0.832  0.00  0.00    +0.187 C 
ATOM      3  C3* UNL     1      -2.993   0.373  -0.531  0.00  0.00    +0.171 C 
ATOM      4  C1* UNL     1      -0.885   0.678   0.478  0.00  0.00    +0.229 C 
ATOM      5  C4* UNL     1      -2.671  -0.839   0.333  0.00  0.00    +0.175 C 
ENDROOT
BRANCH   4   9
ATOM      6  F   UNL     1       2.656  -2.380  -0.473  0.00  0.00    -0.198 F 
ATOM      7  O   UNL     1       1.134   2.687   0.648  0.00  0.00    -0.252 OA
ATOM      8  O   UNL     1       4.470  -0.364  -0.279  0.00  0.00    -0.267 OA
ATOM      9  N   UNL     1       0.521   0.459   0.290  0.00  0.00    -0.214 N 
ATOM     10  N   UNL     1       2.794   1.168   0.188  0.00  0.00    -0.234 N 
ATOM     11  C   UNL     1       1.451   1.523   0.395  0.00  0.00    +0.316 C 
ATOM     12  C   UNL     1       0.961  -0.827   0.000  0.00  0.00    +0.106 C 
ATOM     13  C   UNL     1       2.243  -1.130  -0.192  0.00  0.00    +0.208 C 
ATOM     14  C   UNL     1       3.286  -0.097  -0.104  0.00  0.00    +0.282 C 
ATOM     15  H   UNL     1       3.456   1.893   0.256  0.00  0.00    +0.159 HD
ENDBRANCH   4   9
BRANCH   2  16
ATOM     16  O2* UNL     1      -1.648   2.289  -1.188  0.00  0.00    -0.378 OA
ATOM     17  H2* UNL     1      -2.123   2.393  -2.027  0.00  0.00    +0.211 HD
ENDBRANCH   2  16
BRANCH   3  18
ATOM     18  O3* UNL     1      -3.732   1.298   0.266  0.00  0.00    -0.379 OA
ATOM     19  H3* UNL     1      -3.949   2.080  -0.264  0.00  0.00    +0.211 HD
ENDBRANCH   3  18
BRANCH   5  20
ATOM     20  C5* UNL     1      -2.401  -2.100  -0.476  0.00  0.00    +0.169 C 
BRANCH  20  21
ATOM     21  O5* UNL     1      -2.104  -3.158   0.419  0.00  0.00    -0.379 OA
ATOM     22  H5* UNL     1      -1.929  -3.968  -0.085  0.00  0.00    +0.211 HD
ENDBRANCH  20  21
ENDBRANCH   5  20
TORSDOF 5
