REMARK  Name = 4631
REMARK  10 active torsions:
REMARK  status: ('A' for Active; 'I' for Inactive)
REMARK    1  A    between atoms: O_1  and  C_2
REMARK    2  A    between atoms: O_1  and  C_12
REMARK    3  A    between atoms: C_3  and  O_8
REMARK    4  A    between atoms: O_8  and  C_9
REMARK    5  A    between atoms: C_9  and  C_10
REMARK    6  A    between atoms: C_12  and  C_13
REMARK    7  A    between atoms: C_13  and  O_14
REMARK    8  A    between atoms: C_13  and  C_16
REMARK    9  A    between atoms: C_16  and  N_17
REMARK   10  A    between atoms: N_17  and  C_20
REMARK                            x       y       z     vdW  Elec       q    Type
REMARK                         _______ _______ _______ _____ _____    ______ ____
ROOT
ATOM      1  O   UNL     1      -0.153  -0.735  -1.337  0.00  0.00    -0.470 OA
ENDROOT
BRANCH   1   2
ATOM      2  C   UNL     1       0.726  -1.287  -0.445  0.00  0.00    +0.172 C 
ATOM      3  C   UNL     1       1.631  -0.481   0.239  0.00  0.00    +0.173 C 
ATOM      4  C   UNL     1       0.703  -2.662  -0.231  0.00  0.00    +0.040 C 
ATOM      5  C   UNL     1       2.522  -1.056   1.146  0.00  0.00    +0.040 C 
ATOM      6  C   UNL     1       1.593  -3.236   0.676  0.00  0.00    +0.003 C 
ATOM      7  C   UNL     1       2.503  -2.434   1.364  0.00  0.00    +0.003 C 
BRANCH   3   8
ATOM      8  O   UNL     1       1.658   0.865   0.035  0.00  0.00    -0.468 OA
BRANCH   8   9
ATOM      9  C   UNL     1       2.914   1.521   0.200  0.00  0.00    +0.232 C 
BRANCH   9  10
ATOM     10  C   UNL     1       2.982   2.673  -0.746  0.00  0.00    +0.021 C 
ATOM     11  C   UNL     1       3.140   3.945  -0.365  0.00  0.00    -0.001 C 
ENDBRANCH   9  10
ENDBRANCH   8   9
ENDBRANCH   3   8
ENDBRANCH   1   2
BRANCH   1  12
ATOM     12  C   UNL     1      -1.405  -1.396  -1.495  0.00  0.00    +0.232 C 
BRANCH  12  13
ATOM     13  C   UNL     1      -2.469  -0.360  -1.849  0.00  0.00    +0.133 C 
BRANCH  13  14
ATOM     14  O   UNL     1      -2.078   0.301  -3.056  0.00  0.00    -0.383 OA
ATOM     15  H   UNL     1      -2.746   0.963  -3.293  0.00  0.00    +0.210 HD
ENDBRANCH  13  14
BRANCH  13  16
ATOM     16  C   UNL     1      -2.665   0.702  -0.764  0.00  0.00    -0.048 C 
BRANCH  16  17
ATOM     17  N   UNL     1      -3.029   0.115   0.518  0.00  0.00    +0.387 N 
ATOM     18  H   UNL     1      -2.308  -0.551   0.797  0.00  0.00    -0.084 HD
ATOM     19  H   UNL     1      -3.929  -0.355   0.417  0.00  0.00    -0.084 HD
BRANCH  17  20
ATOM     20  C   UNL     1      -3.154   1.141   1.544  0.00  0.00    -0.062 C 
ATOM     21  C   UNL     1      -1.833   1.889   1.708  0.00  0.00    -0.023 C 
ATOM     22  C   UNL     1      -3.584   0.496   2.858  0.00  0.00    -0.023 C 
ENDBRANCH  17  20
ENDBRANCH  16  17
ENDBRANCH  13  16
ENDBRANCH  12  13
ENDBRANCH   1  12
TORSDOF 10
