REMARK  Name = 12023
REMARK  0 active torsions:
REMARK  status: ('A' for Active; 'I' for Inactive)
REMARK                            x       y       z     vdW  Elec       q    Type
REMARK                         _______ _______ _______ _____ _____    ______ ____
ROOT
ATOM      1  N   UNL     1       1.367   0.702   0.000  0.00  0.00    -0.311 N 
ATOM      2  C   UNL     1      -0.740  -0.002   0.000  0.00  0.00    -0.006 C 
ATOM      3  C   UNL     1       0.062   1.119   0.000  0.00  0.00    +0.058 C 
ATOM      4  C   UNL     1       0.114  -1.132   0.000  0.00  0.00    +0.013 C 
ATOM      5  C   UNL     1      -2.215  -0.019   0.000  0.00  0.00    +0.032 C 
ATOM      6  C   UNL     1       1.411  -0.668   0.000  0.00  0.00    +0.062 C 
ATOM      7  H   UNL     1       2.153   1.295   0.000  0.00  0.00    +0.152 HD
ENDROOT
TORSDOF 0
