REMARK  Name = 441080
REMARK  3 active torsions:
REMARK  status: ('A' for Active; 'I' for Inactive)
REMARK    1  A    between atoms: C_9  and  O_22
REMARK    2  A    between atoms: C_12  and  C_26
REMARK    3  A    between atoms: C_13  and  O_24
REMARK                            x       y       z     vdW  Elec       q    Type
REMARK                         _______ _______ _______ _____ _____    ______ ____
ROOT
ATOM      1  N   UNL     1      -1.395   1.041  -0.857  0.00  0.00    +0.408 N 
ATOM      2  N   UNL     1       1.756   1.643   0.095  0.00  0.00    -0.309 N 
ATOM      3  C   UNL     1       0.862  -0.584  -0.010  0.00  0.00    +0.057 C 
ATOM      4  C   UNL     1      -1.463  -1.280   0.058  0.00  0.00    +0.009 C 
ATOM      5  C   UNL     1      -1.150  -0.388  -1.187  0.00  0.00    -0.052 C 
ATOM      6  C   UNL     1      -0.785   1.358   0.475  0.00  0.00    -0.036 C 
ATOM      7  C   UNL     1      -2.415  -0.469   0.985  0.00  0.00    -0.001 C 
ATOM      8  C   UNL     1       0.661   0.823   0.639  0.00  0.00    +0.060 C 
ATOM      9  C   UNL     1      -0.063  -1.608   0.671  0.00  0.00    +0.114 C 
ATOM     10  C   UNL     1       0.331  -0.568  -1.447  0.00  0.00    -0.013 C 
ATOM     11  C   UNL     1      -1.650   0.718   1.597  0.00  0.00    -0.019 C 
ATOM     12  C   UNL     1      -3.544   0.198   0.148  0.00  0.00    +0.007 C 
ATOM     13  C   UNL     1      -2.875   1.219  -0.825  0.00  0.00    +0.059 C 
ATOM     14  C   UNL     1       2.355  -0.620  -0.012  0.00  0.00    -0.006 C 
ATOM     15  C   UNL     1       2.821   0.716  -0.006  0.00  0.00    +0.044 C 
ATOM     16  C   UNL     1       3.226  -1.692  -0.085  0.00  0.00    -0.003 C 
ATOM     17  C   UNL     1       2.010   2.997   0.537  0.00  0.00    +0.112 C 
ATOM     18  C   UNL     1       4.181   0.975  -0.090  0.00  0.00    +0.014 C 
ATOM     19  C   UNL     1       4.594  -1.425  -0.153  0.00  0.00    -0.000 C 
ATOM     20  C   UNL     1       5.067  -0.104  -0.159  0.00  0.00    +0.001 C 
ATOM     21  H   UNL     1      -0.976   1.669  -1.543  0.00  0.00    -0.076 HD
ENDROOT
BRANCH   9  22
ATOM     22  O   UNL     1       0.264  -2.938   0.275  0.00  0.00    -0.384 OA
ATOM     23  H   UNL     1       1.131  -3.180   0.637  0.00  0.00    +0.210 HD
ENDBRANCH   9  22
BRANCH  13  24
ATOM     24  O   UNL     1      -3.246   2.551  -0.459  0.00  0.00    -0.405 OA
ATOM     25  H   UNL     1      -2.827   3.182  -1.066  0.00  0.00    +0.208 HD
ENDBRANCH  13  24
BRANCH  12  26
ATOM     26  C   UNL     1      -4.419  -0.820  -0.583  0.00  0.00    +0.000 C 
ATOM     27  C   UNL     1      -5.122  -1.743   0.392  0.00  0.00    +0.000 C 
ENDBRANCH  12  26
TORSDOF 3
