REMARK  Name = 54120
REMARK  7 active torsions:
REMARK  status: ('A' for Active; 'I' for Inactive)
REMARK    1  A    between atoms: C_1  and  C_5
REMARK    2  A    between atoms: C_1  and  S_12
REMARK    3  A    between atoms: N_4  and  C_7
REMARK    4  A    between atoms: C_7  and  C_9
REMARK    5  A    between atoms: C_9  and  O_10
REMARK    6  A    between atoms: S_12  and  C_14
REMARK    7  A    between atoms: C_14  and  C_16
REMARK                            x       y       z     vdW  Elec       q    Type
REMARK                         _______ _______ _______ _____ _____    ______ ____
ROOT
ATOM      1  C   UNL     1      -0.659  -2.145  -0.094  0.00  0.00    +0.131 C 
ATOM      2  C   UNL     1      -1.352  -3.240   0.706  0.00  0.00    +0.022 C 
ENDROOT
BRANCH   1   5
ATOM      3  O   UNL     1      -0.937  -0.362   1.516  0.00  0.00    -0.274 OA
ATOM      4  N   UNL     1      -1.639  -0.008  -0.668  0.00  0.00    -0.294 N 
ATOM      5  C   UNL     1      -1.088  -0.758   0.361  0.00  0.00    +0.233 C 
ATOM      6  H   UNL     1      -1.717  -0.416  -1.560  0.00  0.00    +0.150 HD
BRANCH   4   7
ATOM      7  C   UNL     1      -2.103   1.347  -0.482  0.00  0.00    +0.200 C 
BRANCH   7   9
ATOM      8  O   UNL     1      -4.141   2.477   0.119  0.00  0.00    -0.248 OA
ATOM      9  C   UNL     1      -3.553   1.421  -0.079  0.00  0.00    +0.334 C 
BRANCH   9  10
ATOM     10  O   UNL     1      -4.142   0.209   0.045  0.00  0.00    -0.479 OA
ATOM     11  H   UNL     1      -3.649  -0.570  -0.117  0.00  0.00    +0.295 HD
ENDBRANCH   9  10
ENDBRANCH   7   9
ENDBRANCH   4   7
ENDBRANCH   1   5
BRANCH   1  12
ATOM     12  S   UNL     1       1.146  -2.272   0.124  0.00  0.00    -0.064 S 
BRANCH  12  14
ATOM     13  O   UNL     1       1.381  -0.887  -2.092  0.00  0.00    -0.279 OA
ATOM     14  C   UNL     1       1.681  -0.935  -0.904  0.00  0.00    +0.228 C 
BRANCH  14  16
ATOM     15  S   UNL     1       2.933   1.460  -1.105  0.00  0.00    -0.083 S 
ATOM     16  C   UNL     1       2.441   0.108  -0.210  0.00  0.00    +0.074 C 
ATOM     17  C   UNL     1       2.811   0.133   1.092  0.00  0.00    +0.011 C 
ATOM     18  C   UNL     1       3.541   1.321   1.387  0.00  0.00    +0.008 C 
ATOM     19  C   UNL     1       3.679   2.131   0.282  0.00  0.00    +0.036 C 
ENDBRANCH  14  16
ENDBRANCH  12  14
ENDBRANCH   1  12
TORSDOF 7
