REMARK  Name = 62867
REMARK  9 active torsions:
REMARK  status: ('A' for Active; 'I' for Inactive)
REMARK    1  A    between atoms: N_2  and  C_21
REMARK    2  A    between atoms: C_8  and  S_15
REMARK    3  A    between atoms: S_15  and  N_18
REMARK    4  A    between atoms: C_21  and  C_22
REMARK    5  A    between atoms: C_22  and  C_23
REMARK    6  A    between atoms: C_23  and  N_24
REMARK    7  A    between atoms: C_25  and  C_31
REMARK    8  A    between atoms: C_31  and  C_32
REMARK    9  A    between atoms: C_32  and  O_33
REMARK                            x       y       z     vdW  Elec       q    Type
REMARK                         _______ _______ _______ _____ _____    ______ ____
ROOT
ATOM      1  S   UNL     1       4.645   0.815  -1.328  0.00  0.00    -0.084 S 
ATOM      2  N   UNL     1       2.174  -0.800  -0.355  0.00  0.00    -0.286 N 
ATOM      3  C   UNL     1       1.968   0.591  -0.533  0.00  0.00    +0.059 C 
ATOM      4  C   UNL     1       3.433  -1.417  -0.145  0.00  0.00    +0.058 C 
ATOM      5  C   UNL     1       3.018   1.434  -0.948  0.00  0.00    +0.043 C 
ATOM      6  C   UNL     1       4.629  -0.773  -0.521  0.00  0.00    +0.043 C 
ATOM      7  C   UNL     1       0.722   1.202  -0.271  0.00  0.00    +0.035 C 
ATOM      8  C   UNL     1       0.522   2.575  -0.434  0.00  0.00    +0.123 C 
ATOM      9  C   UNL     1       3.554  -2.678   0.479  0.00  0.00    +0.015 C 
ATOM     10  C   UNL     1       2.810   2.814  -1.115  0.00  0.00    +0.009 C 
ATOM     11  C   UNL     1       1.566   3.382  -0.859  0.00  0.00    +0.021 C 
ATOM     12  C   UNL     1       5.876  -1.386  -0.304  0.00  0.00    +0.008 C 
ATOM     13  C   UNL     1       4.796  -3.280   0.698  0.00  0.00    +0.001 C 
ATOM     14  C   UNL     1       5.958  -2.635   0.303  0.00  0.00    +0.001 C 
ENDROOT
BRANCH   8  15
ATOM     15  S   UNL     1      -1.046   3.275  -0.111  0.00  0.00    +0.063 S 
ATOM     16  O   UNL     1      -1.171   4.496  -0.899  0.00  0.00    -0.153 OA
ATOM     17  O   UNL     1      -2.052   2.232  -0.279  0.00  0.00    -0.153 OA
BRANCH  15  18
ATOM     18  N   UNL     1      -0.958   3.699   1.564  0.00  0.00    -0.153 NA
ATOM     19  C   UNL     1      -0.221   4.939   1.920  0.00  0.00    +0.115 C 
ATOM     20  C   UNL     1      -0.709   2.606   2.538  0.00  0.00    +0.115 C 
ENDBRANCH  15  18
ENDBRANCH   8  15
BRANCH   2  21
ATOM     21  C   UNL     1       0.984  -1.661  -0.315  0.00  0.00    +0.093 C 
BRANCH  21  22
ATOM     22  C   UNL     1       0.473  -1.810   1.118  0.00  0.00    -0.001 C 
BRANCH  22  23
ATOM     23  C   UNL     1      -0.736  -2.737   1.270  0.00  0.00    -0.076 C 
BRANCH  23  24
ATOM     24  N   UNL     1      -1.869  -2.296   0.457  0.00  0.00    +0.387 N 
ATOM     25  C   UNL     1      -4.712  -1.880  -0.124  0.00  0.00    -0.002 C 
ATOM     26  C   UNL     1      -3.895  -2.999  -0.777  0.00  0.00    -0.023 C 
ATOM     27  C   UNL     1      -3.782  -0.736   0.294  0.00  0.00    -0.023 C 
ATOM     28  C   UNL     1      -2.733  -3.435   0.119  0.00  0.00    -0.077 C 
ATOM     29  C   UNL     1      -2.624  -1.246   1.154  0.00  0.00    -0.077 C 
ATOM     30  H   UNL     1      -1.513  -1.902  -0.413  0.00  0.00    -0.080 HD
BRANCH  25  31
ATOM     31  C   UNL     1      -5.807  -1.381  -1.063  0.00  0.00    +0.032 C 
BRANCH  31  32
ATOM     32  C   UNL     1      -6.910  -0.665  -0.303  0.00  0.00    +0.137 C 
BRANCH  32  33
ATOM     33  O   UNL     1      -7.899  -0.244  -1.232  0.00  0.00    -0.382 OA
ATOM     34  H   UNL     1      -8.611   0.215  -0.760  0.00  0.00    +0.210 HD
ENDBRANCH  32  33
ENDBRANCH  31  32
ENDBRANCH  25  31
ENDBRANCH  23  24
ENDBRANCH  22  23
ENDBRANCH  21  22
ENDBRANCH   2  21
TORSDOF 9
