REMARK  Name = 136297
REMARK  2 active torsions:
REMARK  status: ('A' for Active; 'I' for Inactive)
REMARK    1  A    between atoms: C_8  and  O_20
REMARK    2  A    between atoms: C_19  and  O_22
REMARK                            x       y       z     vdW  Elec       q    Type
REMARK                         _______ _______ _______ _____ _____    ______ ____
ROOT
ATOM      1  C   UNL     1       1.893   0.698   0.386  0.00  0.00    +0.002 C 
ATOM      2  C   UNL     1       0.557   0.808  -0.354  0.00  0.00    +0.001 C 
ATOM      3  C   UNL     1       2.687  -0.563  -0.009  0.00  0.00    +0.025 C 
ATOM      4  C   UNL     1      -0.318  -0.448   0.003  0.00  0.00    +0.003 C 
ATOM      5  C   UNL     1      -1.737  -0.384  -0.677  0.00  0.00    +0.015 C 
ATOM      6  C   UNL     1       1.860  -1.790   0.394  0.00  0.00    +0.002 C 
ATOM      7  C   UNL     1       0.459  -1.769  -0.245  0.00  0.00    +0.000 C 
ATOM      8  C   UNL     1       3.956  -0.334   0.834  0.00  0.00    +0.110 C 
ATOM      9  C   UNL     1       2.917   1.821   0.245  0.00  0.00    +0.003 C 
ATOM     10  C   UNL     1      -0.172   2.120  -0.015  0.00  0.00    +0.004 C 
ATOM     11  C   UNL     1       4.245   1.171   0.675  0.00  0.00    +0.029 C 
ATOM     12  C   UNL     1      -2.345   0.961  -0.254  0.00  0.00    -0.047 C 
ATOM     13  C   UNL     1      -1.564   2.190  -0.642  0.00  0.00    +0.022 C 
ATOM     14  C   UNL     1      -2.669  -1.563  -0.255  0.00  0.00    +0.007 C 
ATOM     15  C   UNL     1       3.050  -0.656  -1.513  0.00  0.00    +0.002 C 
ATOM     16  C   UNL     1      -1.636  -0.466  -2.221  0.00  0.00    +0.004 C 
ATOM     17  C   UNL     1      -3.299  -1.370   1.121  0.00  0.00    +0.034 C 
ATOM     18  C   UNL     1      -3.438   1.069   0.524  0.00  0.00    -0.006 C 
ATOM     19  C   UNL     1      -4.145  -0.096   1.144  0.00  0.00    +0.132 C 
ENDROOT
BRANCH   8  20
ATOM     20  O   UNL     1       5.066  -1.107   0.420  0.00  0.00    -0.384 OA
ATOM     21  H   UNL     1       4.862  -2.049   0.528  0.00  0.00    +0.210 HD
ENDBRANCH   8  20
BRANCH  19  22
ATOM     22  O   UNL     1      -5.367  -0.294   0.441  0.00  0.00    -0.380 OA
ATOM     23  H   UNL     1      -5.844  -1.046   0.827  0.00  0.00    +0.211 HD
ENDBRANCH  19  22
TORSDOF 2
