REMARK  Name = 8367
REMARK  4 active torsions:
REMARK  status: ('A' for Active; 'I' for Inactive)
REMARK    1  A    between atoms: C_2  and  C_11
REMARK    2  A    between atoms: C_11  and  C_12
REMARK    3  A    between atoms: C_12  and  N_13
REMARK    4  A    between atoms: C_12  and  C_17
REMARK                            x       y       z     vdW  Elec       q    Type
REMARK                         _______ _______ _______ _____ _____    ______ ____
ROOT
ATOM      1  N   UNL     1       1.167  -2.020   0.196  0.00  0.00    -0.312 N 
ATOM      2  C   UNL     1      -0.237  -0.388   0.735  0.00  0.00    -0.008 C 
ATOM      3  C   UNL     1       0.979   0.201   0.289  0.00  0.00    +0.011 C 
ATOM      4  C   UNL     1       1.843  -0.844  -0.044  0.00  0.00    +0.048 C 
ATOM      5  C   UNL     1      -0.091  -1.754   0.666  0.00  0.00    +0.057 C 
ATOM      6  C   UNL     1       1.428   1.528   0.136  0.00  0.00    +0.001 C 
ATOM      7  C   UNL     1       3.139  -0.629  -0.524  0.00  0.00    +0.015 C 
ATOM      8  C   UNL     1       2.723   1.758  -0.344  0.00  0.00    +0.000 C 
ATOM      9  C   UNL     1       3.563   0.695  -0.668  0.00  0.00    +0.001 C 
ATOM     10  H   UNL     1       1.535  -2.921   0.049  0.00  0.00    +0.152 HD
ENDROOT
BRANCH   2  11
ATOM     11  C   UNL     1      -1.446   0.328   1.193  0.00  0.00    +0.006 C 
BRANCH  11  12
ATOM     12  C   UNL     1      -2.471   0.657   0.072  0.00  0.00    -0.061 C 
BRANCH  12  13
ATOM     13  N   UNL     1      -3.595   1.412   0.636  0.00  0.00    +0.382 N 
ATOM     14  H   UNL     1      -3.244   2.253   1.094  0.00  0.00    -0.089 HD
ATOM     15  H   UNL     1      -4.086   0.834   1.318  0.00  0.00    -0.089 HD
ATOM     16  H   UNL     1      -4.237   1.675  -0.112  0.00  0.00    -0.089 HD
ENDBRANCH  12  13
BRANCH  12  17
ATOM     17  C   UNL     1      -2.993  -0.616  -0.622  0.00  0.00    -0.022 C 
ATOM     18  C   UNL     1      -4.009  -0.329  -1.722  0.00  0.00    -0.002 C 
ENDBRANCH  12  17
ENDBRANCH  11  12
ENDBRANCH   2  11
TORSDOF 4
