REMARK  Name = 61306
REMARK  9 active torsions:
REMARK  status: ('A' for Active; 'I' for Inactive)
REMARK    1  A    between atoms: N_1  and  C_19
REMARK    2  A    between atoms: C_2  and  C_8
REMARK    3  A    between atoms: C_2  and  C_15
REMARK    4  A    between atoms: C_15  and  O_16
REMARK    5  A    between atoms: O_16  and  C_17
REMARK    6  A    between atoms: C_19  and  C_20
REMARK    7  A    between atoms: C_20  and  O_21
REMARK    8  A    between atoms: O_21  and  C_22
REMARK    9  A    between atoms: C_22  and  C_24
REMARK                            x       y       z     vdW  Elec       q    Type
REMARK                         _______ _______ _______ _____ _____    ______ ____
ROOT
ATOM      1  N   UNL     1       0.479   0.270   0.604  0.00  0.00    +0.389 N 
ATOM      2  C   UNL     1      -2.496   0.440   0.444  0.00  0.00    +0.104 C 
ATOM      3  C   UNL     1      -1.693   0.351   1.770  0.00  0.00    -0.008 C 
ATOM      4  C   UNL     1      -1.536   1.052  -0.612  0.00  0.00    -0.008 C 
ATOM      5  C   UNL     1      -0.365  -0.393   1.603  0.00  0.00    -0.076 C 
ATOM      6  C   UNL     1      -0.187   0.325  -0.702  0.00  0.00    -0.076 C 
ATOM      7  H   UNL     1       0.639   1.229   0.915  0.00  0.00    -0.080 HD
ENDROOT
BRANCH   2   8
ATOM      8  C   UNL     1      -3.151  -0.896   0.065  0.00  0.00    -0.013 C 
ATOM      9  C   UNL     1      -4.051  -1.504   0.940  0.00  0.00    -0.004 C 
ATOM     10  C   UNL     1      -2.847  -1.501  -1.155  0.00  0.00    -0.004 C 
ATOM     11  C   UNL     1      -4.647  -2.718   0.595  0.00  0.00    -0.000 C 
ATOM     12  C   UNL     1      -3.443  -2.714  -1.500  0.00  0.00    -0.000 C 
ATOM     13  C   UNL     1      -4.343  -3.322  -0.624  0.00  0.00    -0.000 C 
ENDBRANCH   2   8
BRANCH   2  15
ATOM     14  O   UNL     1      -3.811   2.047   1.689  0.00  0.00    -0.250 OA
ATOM     15  C   UNL     1      -3.605   1.452   0.641  0.00  0.00    +0.320 C 
BRANCH  15  16
ATOM     16  O   UNL     1      -4.315   1.581  -0.516  0.00  0.00    -0.448 OA
BRANCH  16  17
ATOM     17  C   UNL     1      -5.401   2.511  -0.471  0.00  0.00    +0.209 C 
ATOM     18  C   UNL     1      -6.083   2.539  -1.822  0.00  0.00    +0.051 C 
ENDBRANCH  16  17
ENDBRANCH  15  16
ENDBRANCH   2  15
BRANCH   1  19
ATOM     19  C   UNL     1       1.773  -0.404   0.493  0.00  0.00    -0.045 C 
BRANCH  19  20
ATOM     20  C   UNL     1       2.837   0.557  -0.012  0.00  0.00    +0.120 C 
BRANCH  20  21
ATOM     21  O   UNL     1       4.077  -0.134  -0.087  0.00  0.00    -0.353 OA
BRANCH  21  22
ATOM     22  C   UNL     1       5.114   0.707  -0.575  0.00  0.00    +0.171 C 
BRANCH  22  24
ATOM     23  O   UNL     1       6.770  -0.520   0.689  0.00  0.00    -0.354 OA
ATOM     24  C   UNL     1       6.406  -0.085  -0.632  0.00  0.00    +0.145 C 
ATOM     25  C   UNL     1       7.586   0.718  -1.153  0.00  0.00    +0.035 C 
ATOM     26  C   UNL     1       8.746  -0.005  -0.516  0.00  0.00    +0.035 C 
ATOM     27  C   UNL     1       8.187  -0.354   0.847  0.00  0.00    +0.142 C 
ENDBRANCH  22  24
ENDBRANCH  21  22
ENDBRANCH  20  21
ENDBRANCH  19  20
ENDBRANCH   1  19
TORSDOF 9
