REMARK  Name = 6533629
REMARK  6 active torsions:
REMARK  status: ('A' for Active; 'I' for Inactive)
REMARK    1  A    between atoms: N_2  and  CA_9
REMARK    2  A    between atoms: C_3  and  C_19
REMARK    3  A    between atoms: CA_11  and  C_15
REMARK    4  A    between atoms: C_15  and  O_16
REMARK    5  A    between atoms: N_18  and  O_28
REMARK    6  A    between atoms: C_19  and  C_23
REMARK                            x       y       z     vdW  Elec       q    Type
REMARK                         _______ _______ _______ _____ _____    ______ ____
ROOT
ATOM      1  O   UNK A   0       1.180   1.303   2.055  0.00  0.00    -0.268 OA
ATOM      2  N   MET A   1       0.222   1.269  -0.087  0.00  0.00    -0.291 N 
ATOM      3  C   UNK A   0       1.226   1.110   0.851  0.00  0.00    +0.269 C 
ATOM      4  H   MET A   1       0.420   1.069  -1.030  0.00  0.00    +0.150 HD
ENDROOT
BRANCH   2   9
ATOM      5  SD  MET A   1      -1.774   0.920  -2.404  0.00  0.00    -0.114 S 
ATOM      6  O   MET A   1      -1.841   0.205   2.216  0.00  0.00    -0.273 OA
ATOM      7  N   MET A   1      -2.722   0.455   0.048  0.00  0.00    -0.242 N 
ATOM      8  CE  MET A   1      -2.254   1.557  -0.776  0.00  0.00    +0.155 C 
ATOM      9  CA  MET A   1      -1.124   1.721   0.265  0.00  0.00    +0.179 C 
ATOM     10  C   MET A   1      -1.926   0.686   1.111  0.00  0.00    +0.251 C 
ATOM     11  CA  MET A   1      -3.682  -0.409  -0.350  0.00  0.00    +0.127 C 
ATOM     12  CG  MET A   1      -3.440   0.262  -2.783  0.00  0.00    +0.087 C 
ATOM     13  CB  MET A   1      -4.061  -0.502  -1.637  0.00  0.00    +0.007 C 
BRANCH  11  15
ATOM     14  OXT MET A   1      -4.687  -2.443   0.358  0.00  0.00    -0.244 OA
ATOM     15  C   MET A   1      -4.293  -1.321   0.619  0.00  0.00    +0.352 C 
BRANCH  15  16
ATOM     16  O   MET A   1      -4.347  -0.726   1.829  0.00  0.00    -0.476 OA
ATOM     17  H   MET A   1      -4.019   0.144   1.939  0.00  0.00    +0.295 HD
ENDBRANCH  15  16
ENDBRANCH  11  15
ENDBRANCH   2   9
BRANCH   3  19
ATOM     18  N   UNK A   0       3.400   1.498  -0.174  0.00  0.00    -0.076 NA
ATOM     19  C   UNK A   0       2.525   0.637   0.250  0.00  0.00    +0.198 C 
BRANCH  19  23
ATOM     20  S   UNK A   0       2.688  -3.292   0.209  0.00  0.00    -0.060 S 
ATOM     21  N   UNK A   0       4.020  -1.171  -0.432  0.00  0.00    -0.383 NA
ATOM     22  N   UNK A   0       5.097  -3.220  -0.916  0.00  0.00    -0.328 N 
ATOM     23  C   UNK A   0       2.829  -0.792   0.120  0.00  0.00    +0.148 C 
ATOM     24  C   UNK A   0       1.972  -1.768   0.530  0.00  0.00    +0.127 C 
ATOM     25  C   UNK A   0       4.058  -2.486  -0.437  0.00  0.00    +0.204 C 
ATOM     26  H   UNK A   0       5.058  -4.203  -0.889  0.00  0.00    +0.145 HD
ATOM     27  H   UNK A   0       5.888  -2.769  -1.290  0.00  0.00    +0.145 HD
ENDBRANCH  19  23
BRANCH  18  28
ATOM     28  O   UNK A   0       2.963   2.817   0.011  0.00  0.00    -0.373 OA
ATOM     29  C   UNK A   0       3.972   3.688  -0.475  0.00  0.00    +0.288 C 
ENDBRANCH  18  28
ENDBRANCH   3  19
TORSDOF 6
