REMARK  Name = 2879
REMARK  1 active torsions:
REMARK  status: ('A' for Active; 'I' for Inactive)
REMARK    1  A    between atoms: C_6  and  O_8
REMARK                            x       y       z     vdW  Elec       q    Type
REMARK                         _______ _______ _______ _____ _____    ______ ____
ROOT
ATOM      1  C   UNL     1       1.379   0.000   0.000  0.00  0.00    -0.022 C 
ATOM      2  C   UNL     1       0.681  -1.208   0.000  0.00  0.00    -0.001 C 
ATOM      3  C   UNL     1       0.681   1.208   0.000  0.00  0.00    -0.001 C 
ATOM      4  C   UNL     1      -0.714  -1.208   0.000  0.00  0.00    +0.036 C 
ATOM      5  C   UNL     1      -0.714   1.208   0.000  0.00  0.00    +0.036 C 
ATOM      6  C   UNL     1      -1.411   0.000   0.000  0.00  0.00    +0.134 C 
ATOM      7  C   UNL     1       2.870   0.000   0.000  0.00  0.00    +0.031 C 
ENDROOT
BRANCH   6   8
ATOM      8  O   UNL     1      -2.772   0.000   0.000  0.00  0.00    -0.506 OA
ATOM      9  H   UNL     1      -3.240  -0.812   0.000  0.00  0.00    +0.292 HD
ENDBRANCH   6   8
TORSDOF 1
