REMARK  Name = 448488
REMARK  0 active torsions:
REMARK  status: ('A' for Active; 'I' for Inactive)
REMARK                            x       y       z     vdW  Elec       q    Type
REMARK                         _______ _______ _______ _____ _____    ______ ____
ROOT
ATOM      1  O   UNL     1      -1.436  -2.567  -0.001  0.00  0.00    -0.209 OA
ATOM      2  N   UNL     1      -0.738   1.379   0.000  0.00  0.00    -0.275 N 
ATOM      3  N   UNL     1      -2.280  -0.436   0.000  0.00  0.00    -0.302 NA
ATOM      4  N   UNL     1      -2.993   1.796   0.000  0.00  0.00    -0.320 N 
ATOM      5  C   UNL     1       0.369   0.528   0.000  0.00  0.00    +0.059 C 
ATOM      6  C   UNL     1       0.158  -0.857   0.000  0.00  0.00    +0.108 C 
ATOM      7  C   UNL     1       1.677   1.021   0.000  0.00  0.00    -0.008 C 
ATOM      8  C   UNL     1       1.239  -1.743   0.000  0.00  0.00    +0.014 C 
ATOM      9  C   UNL     1       2.758   0.139   0.000  0.00  0.00    -0.003 C 
ATOM     10  C   UNL     1      -1.245  -1.354   0.001  0.00  0.00    +0.208 C 
ATOM     11  C   UNL     1       2.540  -1.239   0.000  0.00  0.00    +0.001 C 
ATOM     12  C   UNL     1       1.957   2.489   0.000  0.00  0.00    +0.032 C 
ATOM     13  C   UNL     1      -2.006   0.843   0.000  0.00  0.00    +0.248 C 
ATOM     14  H   UNL     1      -0.612   2.355   0.001  0.00  0.00    +0.156 HD
ATOM     15  H   UNL     1      -2.755   2.752   0.000  0.00  0.00    +0.146 HD
ATOM     16  H   UNL     1      -3.940   1.525   0.000  0.00  0.00    +0.146 HD
ENDROOT
TORSDOF 0
