REMARK  Name = 17753762
REMARK  10 active torsions:
REMARK  status: ('A' for Active; 'I' for Inactive)
REMARK    1  A    between atoms: C_3  and  S_7
REMARK    2  A    between atoms: C_4  and  C_18
REMARK    3  A    between atoms: S_7  and  C_8
REMARK    4  A    between atoms: C_8  and  C_9
REMARK    5  A    between atoms: C_9  and  N_10
REMARK    6  A    between atoms: C_9  and  C_15
REMARK    7  A    between atoms: C_15  and  O_16
REMARK    8  A    between atoms: C_18  and  N_19
REMARK    9  A    between atoms: C_18  and  C_24
REMARK   10  A    between atoms: C_24  and  O_25
REMARK                            x       y       z     vdW  Elec       q    Type
REMARK                         _______ _______ _______ _____ _____    ______ ____
ROOT
ATOM      1  O   UNK     1       1.964   1.055   0.742  0.00  0.00    -0.410 OA
ATOM      2  N   UNK     1       0.557   1.480   0.607  0.00  0.00    -0.132 NA
ATOM      3  C   UNK     1      -0.161   0.328   0.024  0.00  0.00    +0.163 C 
ATOM      4  C   UNK     1       2.033  -0.221   0.206  0.00  0.00    +0.131 C 
ATOM      5  C   UNK     1       0.871  -0.702  -0.218  0.00  0.00    +0.037 C 
ATOM      6  H   UNK     1       0.488   2.289  -0.010  0.00  0.00    +0.169 HD
ENDROOT
BRANCH   3   7
ATOM      7  S   UNK     1      -1.432  -0.307   1.152  0.00  0.00    -0.119 S 
BRANCH   7   8
ATOM      8  C   UNK     1      -2.752   0.859   0.745  0.00  0.00    +0.048 C 
BRANCH   8   9
ATOM      9  C   UNK     1      -3.522   0.436  -0.507  0.00  0.00    +0.047 C 
BRANCH   9  10
ATOM     10  N   UNK     1      -4.251   1.581  -1.057  0.00  0.00    +0.389 N 
ATOM     11  H   UNK     1      -3.595   2.335  -1.263  0.00  0.00    -0.088 HD
ATOM     12  H   UNK     1      -4.938   1.906  -0.376  0.00  0.00    -0.088 HD
ATOM     13  H   UNK     1      -4.727   1.301  -1.914  0.00  0.00    -0.088 HD
ENDBRANCH   9  10
BRANCH   9  15
ATOM     14  O   UNK     1      -5.683  -0.427   0.154  0.00  0.00    -0.253 OA
ATOM     15  C   UNK     1      -4.537  -0.654  -0.217  0.00  0.00    +0.294 C 
BRANCH  15  16
ATOM     16  O   UNK     1      -4.049  -1.911  -0.373  0.00  0.00    -0.482 OA
ATOM     17  H   UNK     1      -3.166  -2.039  -0.659  0.00  0.00    +0.295 HD
ENDBRANCH  15  16
ENDBRANCH   9  15
ENDBRANCH   8   9
ENDBRANCH   7   8
ENDBRANCH   3   7
BRANCH   4  18
ATOM     18  C   UNK     1       3.361  -0.880   0.175  0.00  0.00    +0.096 C 
BRANCH  18  19
ATOM     19  N   UNK     1       3.964  -0.983   1.503  0.00  0.00    +0.393 N 
ATOM     20  H   UNK     1       3.353  -1.527   2.112  0.00  0.00    -0.088 HD
ATOM     21  H   UNK     1       4.089  -0.049   1.894  0.00  0.00    -0.088 HD
ATOM     22  H   UNK     1       4.870  -1.446   1.430  0.00  0.00    -0.088 HD
ENDBRANCH  18  19
BRANCH  18  24
ATOM     23  O   UNK     1       5.052   0.826  -0.265  0.00  0.00    -0.252 OA
ATOM     24  C   UNK     1       4.317  -0.062  -0.679  0.00  0.00    +0.300 C 
BRANCH  24  25
ATOM     25  O   UNK     1       4.266  -0.418  -1.992  0.00  0.00    -0.481 OA
ATOM     26  H   UNK     1       3.691  -1.103  -2.269  0.00  0.00    +0.295 HD
ENDBRANCH  24  25
ENDBRANCH  18  24
ENDBRANCH   4  18
TORSDOF 10
