REMARK  Name = 60789
REMARK  12 active torsions:
REMARK  status: ('A' for Active; 'I' for Inactive)
REMARK    1  A    between atoms: N_1  and  C_4
REMARK    2  A    between atoms: N_1  and  C_16
REMARK    3  A    between atoms: C_4  and  C_5
REMARK    4  A    between atoms: C_5  and  C_6
REMARK    5  A    between atoms: C_6  and  C_7
REMARK    6  A    between atoms: C_7  and  C_8
REMARK    7  A    between atoms: C_13  and  O_14
REMARK    8  A    between atoms: C_16  and  C_17
REMARK    9  A    between atoms: C_17  and  C_18
REMARK   10  A    between atoms: C_17  and  O_28
REMARK   11  A    between atoms: C_21  and  O_24
REMARK   12  A    between atoms: C_23  and  O_26
REMARK                            x       y       z     vdW  Elec       q    Type
REMARK                         _______ _______ _______ _____ _____    ______ ____
ROOT
ATOM      1  N   UNL     1       0.792   1.284  -0.147  0.00  0.00    +0.386 N 
ATOM      2  H   UNL     1       0.755   2.034   0.544  0.00  0.00    -0.084 HD
ATOM      3  H   UNL     1       0.815   1.671  -1.091  0.00  0.00    -0.084 HD
ENDROOT
BRANCH   1   4
ATOM      4  C   UNL     1      -0.397   0.452  -0.013  0.00  0.00    -0.082 C 
BRANCH   4   5
ATOM      5  C   UNL     1      -1.657   1.288  -0.227  0.00  0.00    -0.023 C 
BRANCH   5   6
ATOM      6  C   UNL     1      -2.919   0.435  -0.082  0.00  0.00    +0.003 C 
BRANCH   6   7
ATOM      7  C   UNL     1      -4.183   1.279  -0.261  0.00  0.00    +0.026 C 
BRANCH   7   8
ATOM      8  C   UNL     1      -5.433   0.454  -0.085  0.00  0.00    -0.022 C 
ATOM      9  C   UNL     1      -5.999  -0.169  -1.186  0.00  0.00    -0.001 C 
ATOM     10  C   UNL     1      -5.997   0.334   1.177  0.00  0.00    -0.001 C 
ATOM     11  C   UNL     1      -7.156  -0.931  -1.023  0.00  0.00    +0.036 C 
ATOM     12  C   UNL     1      -7.154  -0.429   1.340  0.00  0.00    +0.036 C 
ATOM     13  C   UNL     1      -7.733  -1.061   0.240  0.00  0.00    +0.134 C 
BRANCH  13  14
ATOM     14  O   UNL     1      -8.861  -1.806   0.399  0.00  0.00    -0.506 OA
ATOM     15  H   UNL     1      -9.250  -2.230  -0.340  0.00  0.00    +0.292 HD
ENDBRANCH  13  14
ENDBRANCH   7   8
ENDBRANCH   6   7
ENDBRANCH   5   6
ENDBRANCH   4   5
ENDBRANCH   1   4
BRANCH   1  16
ATOM     16  C   UNL     1       2.001   0.501   0.064  0.00  0.00    -0.047 C 
BRANCH  16  17
ATOM     17  C   UNL     1       3.252   1.371  -0.106  0.00  0.00    +0.112 C 
BRANCH  17  18
ATOM     18  C   UNL     1       4.518   0.572   0.111  0.00  0.00    +0.005 C 
ATOM     19  C   UNL     1       4.755  -0.544  -0.673  0.00  0.00    +0.038 C 
ATOM     20  C   UNL     1       5.411   0.972   1.090  0.00  0.00    +0.001 C 
ATOM     21  C   UNL     1       5.921  -1.282  -0.472  0.00  0.00    +0.167 C 
ATOM     22  C   UNL     1       6.577   0.234   1.291  0.00  0.00    +0.040 C 
ATOM     23  C   UNL     1       6.832  -0.893   0.510  0.00  0.00    +0.167 C 
BRANCH  21  24
ATOM     24  O   UNL     1       6.160  -2.381  -1.242  0.00  0.00    -0.503 OA
ATOM     25  H   UNL     1       5.543  -2.635  -1.899  0.00  0.00    +0.292 HD
ENDBRANCH  21  24
BRANCH  23  26
ATOM     26  O   UNL     1       7.975  -1.605   0.716  0.00  0.00    -0.503 OA
ATOM     27  H   UNL     1       8.155  -2.364   0.196  0.00  0.00    +0.292 HD
ENDBRANCH  23  26
ENDBRANCH  17  18
BRANCH  17  28
ATOM     28  O   UNL     1       3.294   1.925  -1.421  0.00  0.00    -0.382 OA
ATOM     29  H   UNL     1       2.490   2.442  -1.580  0.00  0.00    +0.211 HD
ENDBRANCH  17  28
ENDBRANCH  16  17
ENDBRANCH   1  16
TORSDOF 12
