REMARK  Name = 16842
REMARK  1 active torsions:
REMARK  status: ('A' for Active; 'I' for Inactive)
REMARK    1  A    between atoms: N_3  and  C_8
REMARK                            x       y       z     vdW  Elec       q    Type
REMARK                         _______ _______ _______ _____ _____    ______ ____
ROOT
ATOM      1  O   UNL     1      -0.121  -2.312  -0.140  0.00  0.00    -0.269 OA
ATOM      2  O   UNL     1       0.047   2.306  -0.144  0.00  0.00    -0.269 OA
ATOM      3  N   UNL     1       0.309  -0.015  -0.238  0.00  0.00    -0.223 N 
ATOM      4  C   UNL     1      -1.865  -0.697   0.245  0.00  0.00    +0.063 C 
ATOM      5  C   UNL     1      -1.812   0.822   0.241  0.00  0.00    +0.063 C 
ATOM      6  C   UNL     1      -0.465  -1.140  -0.067  0.00  0.00    +0.255 C 
ATOM      7  C   UNL     1      -0.383   1.163  -0.068  0.00  0.00    +0.255 C 
ENDROOT
BRANCH   3   8
ATOM      8  C   UNL     1       1.726  -0.057  -0.548  0.00  0.00    +0.102 C 
ATOM      9  C   UNL     1       2.564  -0.070   0.719  0.00  0.00    +0.024 C 
ENDBRANCH   3   8
TORSDOF 1
