REMARK  Name = 30699
REMARK  9 active torsions:
REMARK  status: ('A' for Active; 'I' for Inactive)
REMARK    1  A    between atoms: CA_5  and  N_11
REMARK    2  A    between atoms: CA_7  and  C_23
REMARK    3  A    between atoms: C_8  and  C_26
REMARK    4  A    between atoms: C_12  and  C_14
REMARK    5  A    between atoms: C_14  and  S_15
REMARK    6  A    between atoms: S_15  and  C_17
REMARK    7  A    between atoms: C_23  and  O_24
REMARK    8  A    between atoms: C_26  and  O_27
REMARK    9  A    between atoms: O_27  and  C_29
REMARK                            x       y       z     vdW  Elec       q    Type
REMARK                         _______ _______ _______ _____ _____    ______ ____
ROOT
ATOM      1  S   UNL     1      -0.408   1.602  -1.972  0.00  0.00    -0.114 S 
ATOM      2  O   UNL     1       1.319   0.765   2.263  0.00  0.00    -0.273 OA
ATOM      3  N   UNL     1      -0.353   1.118   0.638  0.00  0.00    -0.242 N 
ATOM      4  C   UNL     1      -0.200   2.225  -0.288  0.00  0.00    +0.155 C 
ATOM      5  CA  UNL     1       1.251   2.332   0.230  0.00  0.00    +0.178 C 
ATOM      6  C   UNL     1       0.814   1.287   1.296  0.00  0.00    +0.251 C 
ATOM      7  CA  UNL     1      -1.430   0.291   0.655  0.00  0.00    +0.127 C 
ATOM      8  C   UNL     1      -2.307   0.251  -0.377  0.00  0.00    +0.030 C 
ATOM      9  C   UNL     1      -2.118   1.039  -1.671  0.00  0.00    +0.086 C 
ENDROOT
BRANCH   5  11
ATOM     10  O   UNL     1       3.990   1.835   1.000  0.00  0.00    -0.274 OA
ATOM     11  N   UNL     1       2.339   1.868  -0.631  0.00  0.00    -0.296 N 
ATOM     12  C   UNL     1       3.634   1.656  -0.164  0.00  0.00    +0.234 C 
ATOM     13  H   UNL     1       2.147   1.698  -1.581  0.00  0.00    +0.150 HD
BRANCH  12  14
ATOM     14  C   UNL     1       4.587   1.160  -1.225  0.00  0.00    +0.147 C 
BRANCH  14  15
ATOM     15  S   UNL     1       5.260  -0.437  -0.708  0.00  0.00    -0.104 S 
BRANCH  15  17
ATOM     16  N   UNL     1       1.457  -2.973  -0.341  0.00  0.00    -0.242 NA
ATOM     17  C   UNL     1       3.774  -1.427  -0.564  0.00  0.00    +0.029 C 
ATOM     18  C   UNL     1       2.957  -1.623  -1.672  0.00  0.00    +0.027 C 
ATOM     19  C   UNL     1       3.435  -2.003   0.655  0.00  0.00    +0.027 C 
ATOM     20  C   UNL     1       1.820  -2.398  -1.509  0.00  0.00    +0.099 C 
ATOM     21  C   UNL     1       2.276  -2.760   0.713  0.00  0.00    +0.099 C 
ENDBRANCH  15  17
ENDBRANCH  14  15
ENDBRANCH  12  14
ENDBRANCH   5  11
BRANCH   7  23
ATOM     22  OXT UNL     1      -1.541  -1.818   1.746  0.00  0.00    -0.244 OA
ATOM     23  C   UNL     1      -1.565  -0.606   1.812  0.00  0.00    +0.352 C 
BRANCH  23  24
ATOM     24  O   UNL     1      -1.717   0.130   2.932  0.00  0.00    -0.476 OA
ATOM     25  H   UNL     1      -1.723   1.065   2.880  0.00  0.00    +0.295 HD
ENDBRANCH  23  24
ENDBRANCH   7  23
BRANCH   8  26
ATOM     26  C   UNL     1      -3.569  -0.578  -0.398  0.00  0.00    +0.233 C 
BRANCH  26  27
ATOM     27  O   UNL     1      -4.685   0.272  -0.557  0.00  0.00    -0.444 OA
BRANCH  27  29
ATOM     28  O   UNL     1      -6.111  -1.545  -0.503  0.00  0.00    -0.250 OA
ATOM     29  C   UNL     1      -5.912  -0.341  -0.595  0.00  0.00    +0.318 C 
ATOM     30  C   UNL     1      -6.996   0.679  -0.766  0.00  0.00    +0.121 C 
ENDBRANCH  27  29
ENDBRANCH  26  27
ENDBRANCH   8  26
TORSDOF 9
