REMARK  Name = 5289343
REMARK  13 active torsions:
REMARK  status: ('A' for Active; 'I' for Inactive)
REMARK    1  A    between atoms: C_3  and  C_10
REMARK    2  A    between atoms: C_7  and  C_22
REMARK    3  A    between atoms: N_9  and  C_12
REMARK    4  A    between atoms: C_12  and  C_15
REMARK    5  A    between atoms: C_12  and  C_18
REMARK    6  A    between atoms: C_18  and  C_19
REMARK    7  A    between atoms: C_19  and  S_20
REMARK    8  A    between atoms: C_22  and  N_24
REMARK    9  A    between atoms: C_22  and  C_30
REMARK   10  A    between atoms: C_25  and  C_27
REMARK   11  A    between atoms: C_27  and  S_28
REMARK   12  A    between atoms: C_30  and  C_31
REMARK   13  A    between atoms: C_36  and  O_37
REMARK                            x       y       z     vdW  Elec       q    Type
REMARK                         _______ _______ _______ _____ _____    ______ ____
ROOT
ATOM      1  O   UNL     1       0.418   0.967   0.749  0.00  0.00    -0.273 OA
ATOM      2  N   UNL     1       0.501  -1.346   0.723  0.00  0.00    -0.272 N 
ATOM      3  C   UNL     1       1.911  -1.466   1.068  0.00  0.00    +0.152 C 
ATOM      4  C   UNL     1       2.089  -2.926   1.468  0.00  0.00    +0.031 C 
ATOM      5  C   UNL     1       1.023  -3.650   0.650  0.00  0.00    +0.024 C 
ATOM      6  C   UNL     1      -0.131  -2.659   0.624  0.00  0.00    +0.094 C 
ATOM      7  C   UNL     1      -0.149  -0.123   0.662  0.00  0.00    +0.244 C 
ENDROOT
BRANCH   3  10
ATOM      8  O   UNL     1       2.261  -1.337  -1.289  0.00  0.00    -0.273 OA
ATOM      9  N   UNL     1       3.937  -0.587   0.142  0.00  0.00    -0.297 N 
ATOM     10  C   UNL     1       2.698  -1.125  -0.161  0.00  0.00    +0.241 C 
ATOM     11  H   UNL     1       4.176  -0.464   1.089  0.00  0.00    +0.150 HD
BRANCH   9  12
ATOM     12  C   UNL     1       4.897  -0.195  -0.865  0.00  0.00    +0.149 C 
BRANCH  12  15
ATOM     13  O   UNL     1       6.534  -0.846   0.808  0.00  0.00    -0.274 OA
ATOM     14  N   UNL     1       7.279  -0.267  -1.286  0.00  0.00    -0.327 N 
ATOM     15  C   UNL     1       6.299  -0.464  -0.336  0.00  0.00    +0.237 C 
ATOM     16  H   UNL     1       8.225  -0.412  -1.054  0.00  0.00    +0.145 HD
ATOM     17  H   UNL     1       7.032   0.018  -2.195  0.00  0.00    +0.145 HD
ENDBRANCH  12  15
BRANCH  12  18
ATOM     18  C   UNL     1       4.698   1.258  -1.316  0.00  0.00    +0.041 C 
BRANCH  18  19
ATOM     19  C   UNL     1       4.969   2.286  -0.215  0.00  0.00    +0.060 C 
BRANCH  19  20
ATOM     20  S   UNL     1       4.717   3.973  -0.843  0.00  0.00    -0.139 S 
ATOM     21  C   UNL     1       2.912   4.011  -0.772  0.00  0.00    +0.069 C 
ENDBRANCH  19  20
ENDBRANCH  18  19
ENDBRANCH  12  18
ENDBRANCH   9  12
ENDBRANCH   3  10
BRANCH   7  22
ATOM     22  C   UNL     1      -1.643  -0.191   0.465  0.00  0.00    +0.153 C 
BRANCH  22  24
ATOM     23  O   UNL     1      -3.305  -0.280   2.833  0.00  0.00    -0.274 OA
ATOM     24  N   UNL     1      -2.133   0.923   1.224  0.00  0.00    -0.297 N 
ATOM     25  C   UNL     1      -2.930   0.790   2.357  0.00  0.00    +0.233 C 
ATOM     26  H   UNL     1      -1.891   1.830   0.929  0.00  0.00    +0.150 HD
BRANCH  25  27
ATOM     27  C   UNL     1      -3.330   2.114   2.965  0.00  0.00    +0.138 C 
BRANCH  27  28
ATOM     28  S   UNL     1      -4.899   2.644   2.240  0.00  0.00    -0.159 S 
ATOM     29  H   UNL     1      -5.269   3.836   2.780  0.00  0.00    +0.103 HD
ENDBRANCH  27  28
ENDBRANCH  25  27
ENDBRANCH  22  24
BRANCH  22  30
ATOM     30  C   UNL     1      -1.982  -0.106  -1.017  0.00  0.00    +0.055 C 
BRANCH  30  31
ATOM     31  C   UNL     1      -3.470  -0.149  -1.263  0.00  0.00    -0.020 C 
ATOM     32  C   UNL     1      -4.206   1.036  -1.296  0.00  0.00    -0.001 C 
ATOM     33  C   UNL     1      -4.111  -1.373  -1.456  0.00  0.00    -0.001 C 
ATOM     34  C   UNL     1      -5.581   0.997  -1.523  0.00  0.00    +0.036 C 
ATOM     35  C   UNL     1      -5.487  -1.412  -1.683  0.00  0.00    +0.036 C 
ATOM     36  C   UNL     1      -6.222  -0.227  -1.717  0.00  0.00    +0.134 C 
BRANCH  36  37
ATOM     37  O   UNL     1      -7.564  -0.265  -1.938  0.00  0.00    -0.506 OA
ATOM     38  H   UNL     1      -8.058   0.530  -1.961  0.00  0.00    +0.292 HD
ENDBRANCH  36  37
ENDBRANCH  30  31
ENDBRANCH  22  30
ENDBRANCH   7  22
TORSDOF 13
