REMARK  Name = 71080
REMARK  3 active torsions:
REMARK  status: ('A' for Active; 'I' for Inactive)
REMARK    1  A    between atoms: CA_1  and  N_3
REMARK    2  A    between atoms: CA_1  and  C_8
REMARK    3  A    between atoms: C_8  and  O_9
REMARK                            x       y       z     vdW  Elec       q    Type
REMARK                         _______ _______ _______ _____ _____    ______ ____
ROOT
ATOM      1  CA  ALA A   1      -0.709  -0.112  -0.395  0.00  0.00    +0.036 C 
ATOM      2  CB  ALA A   1      -1.329  -1.204   0.466  0.00  0.00    -0.013 C 
ENDROOT
BRANCH   1   3
ATOM      3  N   ALA A   1      -1.413   1.150  -0.173  0.00  0.00    +0.389 N 
ATOM      4  H1  ALA A   1      -2.399   1.035  -0.408  0.00  0.00    -0.088 HD
ATOM      5  H2  ALA A   1      -1.005   1.875  -0.764  0.00  0.00    -0.088 HD
ATOM      6  H3  ALA A   1      -1.326   1.420   0.806  0.00  0.00    -0.088 HD
ENDBRANCH   1   3
BRANCH   1   8
ATOM      7  OXT ALA A   1       1.250   1.118   0.401  0.00  0.00    -0.253 OA
ATOM      8  C   ALA A   1       0.748   0.093  -0.038  0.00  0.00    +0.293 C 
BRANCH   8   9
ATOM      9  O   ALA A   1       1.454  -1.046  -0.260  0.00  0.00    -0.482 OA
ATOM     10  H   ALA A   1       1.023  -1.807  -0.598  0.00  0.00    +0.295 HD
ENDBRANCH   8   9
ENDBRANCH   1   8
TORSDOF 3
