REMARK  Name = 5282242
REMARK  8 active torsions:
REMARK  status: ('A' for Active; 'I' for Inactive)
REMARK    1  A    between atoms: N_2  and  CA_9
REMARK    2  A    between atoms: C_3  and  C_18
REMARK    3  A    between atoms: CA_11  and  C_15
REMARK    4  A    between atoms: C_15  and  O_16
REMARK    5  A    between atoms: C_18  and  C_23
REMARK    6  A    between atoms: C_19  and  C_28
REMARK    7  A    between atoms: C_28  and  C_30
REMARK    8  A    between atoms: C_30  and  O_31
REMARK                            x       y       z     vdW  Elec       q    Type
REMARK                         _______ _______ _______ _____ _____    ______ ____
ROOT
ATOM      1  O   UNK A   0       1.105   0.449   2.260  0.00  0.00    -0.270 OA
ATOM      2  N   MET A   1       0.345   0.806   0.097  0.00  0.00    -0.293 N 
ATOM      3  C   UNK A   0       1.206   0.279   1.047  0.00  0.00    +0.248 C 
ATOM      4  H   MET A   1       0.510   0.612  -0.853  0.00  0.00    +0.150 HD
ENDROOT
BRANCH   2   9
ATOM      5  SD  MET A   1      -1.565   1.260  -2.273  0.00  0.00    -0.114 S 
ATOM      6  O   MET A   1      -2.039   0.312   2.281  0.00  0.00    -0.273 OA
ATOM      7  N   MET A   1      -2.708   0.968   0.121  0.00  0.00    -0.242 N 
ATOM      8  CE  MET A   1      -1.882   1.912  -0.612  0.00  0.00    +0.155 C 
ATOM      9  CA  MET A   1      -0.810   1.648   0.461  0.00  0.00    +0.179 C 
ATOM     10  C   MET A   1      -1.922   0.865   1.212  0.00  0.00    +0.251 C 
ATOM     11  CA  MET A   1      -3.876   0.482  -0.356  0.00  0.00    +0.127 C 
ATOM     12  CG  MET A   1      -3.337   1.193  -2.729  0.00  0.00    +0.087 C 
ATOM     13  CB  MET A   1      -4.212   0.597  -1.652  0.00  0.00    +0.007 C 
BRANCH  11  15
ATOM     14  OXT MET A   1      -5.501  -1.166   0.185  0.00  0.00    -0.244 OA
ATOM     15  C   MET A   1      -4.782  -0.247   0.533  0.00  0.00    +0.352 C 
BRANCH  15  16
ATOM     16  O   MET A   1      -4.693   0.256   1.783  0.00  0.00    -0.476 OA
ATOM     17  H   MET A   1      -4.110   0.968   1.962  0.00  0.00    +0.295 HD
ENDBRANCH  15  16
ENDBRANCH  11  15
ENDBRANCH   2   9
BRANCH   3  18
ATOM     18  C   UNK A   0       2.357  -0.498   0.477  0.00  0.00    +0.076 C 
ATOM     19  C   UNK A   0       2.207  -1.833   0.354  0.00  0.00    -0.008 C 
BRANCH  18  23
ATOM     20  S   UNK A   0       5.266   2.050  -0.122  0.00  0.00    -0.060 S 
ATOM     21  N   UNK A   0       4.655  -0.459  -0.250  0.00  0.00    -0.385 NA
ATOM     22  N   UNK A   0       6.870   0.070  -0.886  0.00  0.00    -0.328 N 
ATOM     23  C   UNK A   0       3.560   0.235   0.188  0.00  0.00    +0.127 C 
ATOM     24  C   UNK A   0       3.676   1.587   0.324  0.00  0.00    +0.125 C 
ATOM     25  C   UNK A   0       5.627   0.404  -0.448  0.00  0.00    +0.204 C 
ATOM     26  H   UNK A   0       7.552   0.770  -1.013  0.00  0.00    +0.145 HD
ATOM     27  H   UNK A   0       7.089  -0.870  -1.077  0.00  0.00    +0.145 HD
ENDBRANCH  18  23
BRANCH  19  28
ATOM     28  C   UNK A   0       0.965  -2.625   0.648  0.00  0.00    +0.136 C 
BRANCH  28  30
ATOM     29  O   UNK A   0       0.351  -2.254  -1.685  0.00  0.00    -0.250 OA
ATOM     30  C   UNK A   0       0.116  -2.761  -0.597  0.00  0.00    +0.318 C 
BRANCH  30  31
ATOM     31  O   UNK A   0      -0.980  -3.532  -0.362  0.00  0.00    -0.480 OA
ATOM     32  H   UNK A   0      -1.119  -3.901   0.488  0.00  0.00    +0.295 HD
ENDBRANCH  30  31
ENDBRANCH  28  30
ENDBRANCH  19  28
ENDBRANCH   3  18
TORSDOF 8
