REMARK  Name = 222865
REMARK  0 active torsions:
REMARK  status: ('A' for Active; 'I' for Inactive)
REMARK                            x       y       z     vdW  Elec       q    Type
REMARK                         _______ _______ _______ _____ _____    ______ ____
ROOT
ATOM      1  O   UNL     1      -4.994   1.109   0.739  0.00  0.00    -0.296 OA
ATOM      2  O   UNL     1       5.626  -0.059   0.922  0.00  0.00    -0.296 OA
ATOM      3  C   UNL     1       0.165   0.443   0.233  0.00  0.00    +0.000 C 
ATOM      4  C   UNL     1      -0.651  -0.788  -0.287  0.00  0.00    +0.000 C 
ATOM      5  C   UNL     1       1.654   0.420  -0.278  0.00  0.00    +0.001 C 
ATOM      6  C   UNL     1      -2.064  -0.705   0.297  0.00  0.00    +0.007 C 
ATOM      7  C   UNL     1      -2.793   0.578  -0.153  0.00  0.00    +0.052 C 
ATOM      8  C   UNL     1       2.281  -0.946   0.155  0.00  0.00    +0.007 C 
ATOM      9  C   UNL     1      -0.579   1.785  -0.009  0.00  0.00    +0.000 C 
ATOM     10  C   UNL     1       0.039  -2.106   0.086  0.00  0.00    +0.000 C 
ATOM     11  C   UNL     1      -2.051   1.770   0.443  0.00  0.00    +0.007 C 
ATOM     12  C   UNL     1       1.493  -2.149  -0.375  0.00  0.00    +0.000 C 
ATOM     13  C   UNL     1      -3.067  -1.820   0.024  0.00  0.00    +0.008 C 
ATOM     14  C   UNL     1       2.481   1.544   0.411  0.00  0.00    +0.008 C 
ATOM     15  C   UNL     1      -4.160   0.268   0.431  0.00  0.00    +0.150 C 
ATOM     16  C   UNL     1       1.715   0.628  -1.812  0.00  0.00    +0.000 C 
ATOM     17  C   UNL     1       3.765  -1.067  -0.199  0.00  0.00    +0.064 C 
ATOM     18  C   UNL     1      -4.383  -1.230   0.554  0.00  0.00    +0.064 C 
ATOM     19  C   UNL     1      -2.992   0.744  -1.671  0.00  0.00    +0.007 C 
ATOM     20  C   UNL     1       3.978   1.481   0.120  0.00  0.00    +0.065 C 
ATOM     21  C   UNL     1       4.537   0.100   0.371  0.00  0.00    +0.151 C 
ENDROOT
TORSDOF 0
