REMARK  Name = 46926304
REMARK  8 active torsions:
REMARK  status: ('A' for Active; 'I' for Inactive)
REMARK    1  A    between atoms: C_2  and  O_18
REMARK    2  A    between atoms: C_3  and  O_20
REMARK    3  A    between atoms: C_4  and  N_6
REMARK    4  A    between atoms: C_5  and  C_22
REMARK    5  A    between atoms: C_8  and  O_16
REMARK    6  A    between atoms: C_10  and  C_13
REMARK    7  A    between atoms: C_22  and  O_23
REMARK    8  A    between atoms: O_23  and  P_24
REMARK                            x       y       z     vdW  Elec       q    Type
REMARK                         _______ _______ _______ _____ _____    ______ ____
ROOT
ATOM      1  O   UNL     1       0.910  -0.822   1.076  0.00  0.00    -0.336 OA
ATOM      2  C   UNL     1       0.107  -2.033  -0.792  0.00  0.00    +0.183 C 
ATOM      3  C   UNL     1       1.466  -2.589  -0.413  0.00  0.00    +0.171 C 
ATOM      4  C   UNL     1      -0.311  -1.319   0.489  0.00  0.00    +0.209 C 
ATOM      5  C   UNL     1       2.039  -1.473   0.451  0.00  0.00    +0.176 C 
ENDROOT
BRANCH   4   6
ATOM      6  N   UNL     1      -1.300  -0.204   0.246  0.00  0.00    -0.200 NA
ATOM      7  N   UNL     1      -2.060   1.831  -0.216  0.00  0.00    -0.248 NA
ATOM      8  C   UNL     1      -2.663  -0.295   0.287  0.00  0.00    +0.222 C 
ATOM      9  C   UNL     1      -0.985   1.091  -0.059  0.00  0.00    +0.205 C 
ATOM     10  C   UNL     1      -3.110   0.973  -0.001  0.00  0.00    +0.151 C 
BRANCH  10  13
ATOM     11  O   UNL     1      -5.434   0.616   0.133  0.00  0.00    -0.269 OA
ATOM     12  N   UNL     1      -4.743   2.740  -0.387  0.00  0.00    -0.324 N 
ATOM     13  C   UNL     1      -4.475   1.398  -0.080  0.00  0.00    +0.260 C 
ATOM     14  H   UNL     1      -5.674   3.054  -0.446  0.00  0.00    +0.145 HD
ATOM     15  H   UNL     1      -4.000   3.367  -0.544  0.00  0.00    +0.145 HD
ENDBRANCH  10  13
BRANCH   8  16
ATOM     16  O   UNL     1      -3.289  -1.430   0.558  0.00  0.00    -0.365 OA
ATOM     17  H   UNL     1      -2.796  -2.207   0.732  0.00  0.00    +0.212 HD
ENDBRANCH   8  16
ENDBRANCH   4   6
BRANCH   2  18
ATOM     18  O   UNL     1      -0.808  -3.035  -1.190  0.00  0.00    -0.378 OA
ATOM     19  H   UNL     1      -0.494  -3.454  -2.006  0.00  0.00    +0.211 HD
ENDBRANCH   2  18
BRANCH   3  20
ATOM     20  O   UNL     1       1.318  -3.748   0.405  0.00  0.00    -0.379 OA
ATOM     21  H   UNL     1       0.954  -4.474  -0.125  0.00  0.00    +0.211 HD
ENDBRANCH   3  20
BRANCH   5  22
ATOM     22  C   UNL     1       2.806  -0.431  -0.350  0.00  0.00    +0.186 C 
BRANCH  22  23
ATOM     23  O   UNL     1       3.286   0.562   0.539  0.00  0.00    -0.268 OA
BRANCH  23  24
ATOM     24  P   UNL     1       4.161   1.824  -0.074  0.00  0.00    +0.533 P 
ATOM     25  O   UNL     1       4.493   2.662   1.157  0.00  0.00    -0.115 OA
ATOM     26  O   UNL     1       3.215   2.510  -1.054  0.00  0.00    -0.222 OA
ATOM     27  O   UNL     1       5.377   1.171  -0.725  0.00  0.00    -0.115 OA
ENDBRANCH  23  24
ENDBRANCH  22  23
ENDBRANCH   5  22
TORSDOF 8
