REMARK  Name = 123619
REMARK  3 active torsions:
REMARK  status: ('A' for Active; 'I' for Inactive)
REMARK    1  A    between atoms: C_3  and  C_15
REMARK    2  A    between atoms: C_4  and  C_9
REMARK    3  A    between atoms: C_16  and  S_21
REMARK                            x       y       z     vdW  Elec       q    Type
REMARK                         _______ _______ _______ _____ _____    ______ ____
ROOT
ATOM      1 CL   UNL     1      -4.178  -4.071  -0.038  0.00  0.00    -0.081 Cl
ATOM      2  N   UNL     1      -3.572  -0.134   0.015  0.00  0.00    -0.243 NA
ATOM      3  C   UNL     1      -1.400  -1.199  -0.002  0.00  0.00    +0.019 C 
ATOM      4  C   UNL     1      -2.221  -0.082   0.014  0.00  0.00    +0.083 C 
ATOM      5  C   UNL     1      -2.007  -2.450  -0.018  0.00  0.00    +0.014 C 
ATOM      6  C   UNL     1      -3.395  -2.545  -0.018  0.00  0.00    +0.077 C 
ATOM      7  C   UNL     1      -4.125  -1.368  -0.002  0.00  0.00    +0.110 C 
ENDROOT
BRANCH   4   9
ATOM      8  N   UNL     1      -0.948   3.204  -1.200  0.00  0.00    -0.248 NA
ATOM      9  C   UNL     1      -1.695   1.267   0.032  0.00  0.00    +0.037 C 
ATOM     10  C   UNL     1      -1.436   1.915   1.232  0.00  0.00    +0.004 C 
ATOM     11  C   UNL     1      -1.438   1.945  -1.146  0.00  0.00    +0.100 C 
ATOM     12  C   UNL     1      -0.931   3.211   1.218  0.00  0.00    +0.015 C 
ATOM     13  C   UNL     1      -0.707   3.805  -0.013  0.00  0.00    +0.059 C 
ATOM     14  C   UNL     1      -0.166   5.196  -0.066  0.00  0.00    +0.052 C 
ENDBRANCH   4   9
BRANCH   3  15
ATOM     15  C   UNL     1       0.044  -1.106  -0.002  0.00  0.00    +0.002 C 
ATOM     16  C   UNL     1       2.828  -0.928  -0.002  0.00  0.00    +0.106 C 
ATOM     17  C   UNL     1       0.739  -1.045  -1.210  0.00  0.00    +0.001 C 
ATOM     18  C   UNL     1       0.741  -1.078   1.206  0.00  0.00    +0.001 C 
ATOM     19  C   UNL     1       2.131  -0.956  -1.209  0.00  0.00    +0.018 C 
ATOM     20  C   UNL     1       2.133  -0.989   1.206  0.00  0.00    +0.018 C 
BRANCH  16  21
ATOM     21  S   UNL     1       4.571  -0.817  -0.002  0.00  0.00    +0.010 S 
ATOM     22  O   UNL     1       5.056  -1.381   1.250  0.00  0.00    -0.169 OA
ATOM     23  O   UNL     1       5.076  -1.327  -1.269  0.00  0.00    -0.169 OA
ATOM     24  C   UNL     1       4.901   0.931   0.022  0.00  0.00    +0.182 C 
ENDBRANCH  16  21
ENDBRANCH   3  15
TORSDOF 3
