REMARK  Name = 5362456
REMARK  1 active torsions:
REMARK  status: ('A' for Active; 'I' for Inactive)
REMARK    1  A    between atoms: C_18  and  O_21
REMARK                            x       y       z     vdW  Elec       q    Type
REMARK                         _______ _______ _______ _____ _____    ______ ____
ROOT
ATOM      1  O   UNL     1       1.950   1.058   1.177  0.00  0.00    -0.476 OA
ATOM      2  N   UNL     1      -2.913  -0.673   0.538  0.00  0.00    +0.387 N 
ATOM      3  C   UNL     1      -0.385   0.757   0.618  0.00  0.00    +0.054 C 
ATOM      4  C   UNL     1      -1.508   1.106  -0.362  0.00  0.00    -0.011 C 
ATOM      5  C   UNL     1      -2.243  -0.226  -0.708  0.00  0.00    -0.053 C 
ATOM      6  C   UNL     1       0.717   1.803   0.869  0.00  0.00    +0.169 C 
ATOM      7  C   UNL     1      -1.026   0.224   1.919  0.00  0.00    -0.015 C 
ATOM      8  C   UNL     1       0.496  -0.294   0.042  0.00  0.00    +0.013 C 
ATOM      9  C   UNL     1      -1.016   1.899  -1.577  0.00  0.00    -0.001 C 
ATOM     10  C   UNL     1       1.011   2.729  -0.330  0.00  0.00    +0.044 C 
ATOM     11  C   UNL     1      -1.292  -1.287  -1.367  0.00  0.00    +0.005 C 
ATOM     12  C   UNL     1      -2.001  -0.939   1.656  0.00  0.00    -0.077 C 
ATOM     13  C   UNL     1      -0.234   3.128  -1.113  0.00  0.00    +0.004 C 
ATOM     14  C   UNL     1       0.113  -1.297  -0.826  0.00  0.00    -0.025 C 
ATOM     15  C   UNL     1       1.799  -0.107   0.460  0.00  0.00    +0.168 C 
ATOM     16  C   UNL     1      -3.843  -1.778   0.334  0.00  0.00    -0.101 C 
ATOM     17  C   UNL     1       1.100  -2.202  -1.212  0.00  0.00    -0.001 C 
ATOM     18  C   UNL     1       2.785  -0.998   0.104  0.00  0.00    +0.167 C 
ATOM     19  C   UNL     1       2.422  -2.062  -0.735  0.00  0.00    +0.039 C 
ATOM     20  H   UNL     1      -3.467   0.137   0.814  0.00  0.00    -0.080 HD
ENDROOT
BRANCH  18  21
ATOM     21  O   UNL     1       4.068  -0.842   0.513  0.00  0.00    -0.503 OA
ATOM     22  H   UNL     1       4.297  -0.127   1.073  0.00  0.00    +0.292 HD
ENDBRANCH  18  21
TORSDOF 1
