REMARK  Name = 3454
REMARK  7 active torsions:
REMARK  status: ('A' for Active; 'I' for Inactive)
REMARK    1  A    between atoms: N_2  and  C_15
REMARK    2  A    between atoms: C_15  and  O_16
REMARK    3  A    between atoms: O_16  and  C_17
REMARK    4  A    between atoms: C_17  and  C_18
REMARK    5  A    between atoms: C_17  and  C_21
REMARK    6  A    between atoms: C_18  and  O_19
REMARK    7  A    between atoms: C_21  and  O_22
REMARK                            x       y       z     vdW  Elec       q    Type
REMARK                         _______ _______ _______ _____ _____    ______ ____
ROOT
ATOM      1  O   UNL     1       4.428   1.063   0.475  0.00  0.00    -0.208 OA
ATOM      2  N   UNL     1       0.075   0.833  -0.723  0.00  0.00    -0.206 NA
ATOM      3  N   UNL     1       1.159  -1.265  -0.139  0.00  0.00    -0.279 N 
ATOM      4  N   UNL     1       1.843   2.178  -0.402  0.00  0.00    -0.241 NA
ATOM      5  N   UNL     1       3.468  -1.047   0.484  0.00  0.00    -0.301 NA
ATOM      6  N   UNL     1       2.378  -3.137   0.455  0.00  0.00    -0.320 N 
ATOM      7  C   UNL     1       1.111   0.056  -0.327  0.00  0.00    +0.191 C 
ATOM      8  C   UNL     1       2.180   0.881  -0.134  0.00  0.00    +0.183 C 
ATOM      9  C   UNL     1       0.570   2.117  -0.754  0.00  0.00    +0.205 C 
ATOM     10  C   UNL     1       3.455   0.341   0.297  0.00  0.00    +0.224 C 
ATOM     11  C   UNL     1       2.387  -1.776   0.276  0.00  0.00    +0.245 C 
ATOM     12  H   UNL     1       0.375  -1.842  -0.284  0.00  0.00    +0.152 HD
ATOM     13  H   UNL     1       1.554  -3.649   0.290  0.00  0.00    +0.146 HD
ATOM     14  H   UNL     1       3.196  -3.600   0.748  0.00  0.00    +0.146 HD
ENDROOT
BRANCH   2  15
ATOM     15  C   UNL     1      -1.269   0.426  -1.047  0.00  0.00    +0.223 C 
BRANCH  15  16
ATOM     16  O   UNL     1      -2.032   0.477   0.150  0.00  0.00    -0.335 OA
BRANCH  16  17
ATOM     17  C   UNL     1      -3.387   0.116  -0.081  0.00  0.00    +0.175 C 
BRANCH  17  18
ATOM     18  C   UNL     1      -4.128   0.198   1.247  0.00  0.00    +0.169 C 
BRANCH  18  19
ATOM     19  O   UNL     1      -4.035   1.527   1.748  0.00  0.00    -0.379 OA
ATOM     20  H   UNL     1      -4.505   1.587   2.595  0.00  0.00    +0.211 HD
ENDBRANCH  18  19
ENDBRANCH  17  18
BRANCH  17  21
ATOM     21  C   UNL     1      -3.427  -1.295  -0.656  0.00  0.00    +0.169 C 
BRANCH  21  22
ATOM     22  O   UNL     1      -4.777  -1.693  -0.868  0.00  0.00    -0.379 OA
ATOM     23  H   UNL     1      -4.796  -2.591  -1.234  0.00  0.00    +0.211 HD
ENDBRANCH  21  22
ENDBRANCH  17  21
ENDBRANCH  16  17
ENDBRANCH  15  16
ENDBRANCH   2  15
TORSDOF 7
