REMARK  Name = 2783
REMARK  6 active torsions:
REMARK  status: ('A' for Active; 'I' for Inactive)
REMARK    1  A    between atoms: C_1  and  C_4
REMARK    2  A    between atoms: C_1  and  O_13
REMARK    3  A    between atoms: C_1  and  C_15
REMARK    4  A    between atoms: C_9  and  N_10
REMARK    5  A    between atoms: C_15  and  N_16
REMARK    6  A    between atoms: N_16  and  C_19
REMARK                            x       y       z     vdW  Elec       q    Type
REMARK                         _______ _______ _______ _____ _____    ______ ____
ROOT
ATOM      1  C   UNL     1       0.661  -0.829  -0.867  0.00  0.00    +0.112 C 
ENDROOT
BRANCH   1   4
ATOM      2 CL   UNL     1      -2.803   2.944  -0.089  0.00  0.00    -0.081 Cl
ATOM      3 CL   UNL     1      -4.034  -2.308   0.748  0.00  0.00    -0.081 Cl
ATOM      4  C   UNL     1      -0.740  -0.435  -0.456  0.00  0.00    +0.004 C 
ATOM      5  C   UNL     1      -1.639  -1.421  -0.087  0.00  0.00    +0.011 C 
ATOM      6  C   UNL     1      -1.094   0.903  -0.457  0.00  0.00    +0.011 C 
ATOM      7  C   UNL     1      -2.386   1.267  -0.079  0.00  0.00    +0.071 C 
ATOM      8  C   UNL     1      -2.932  -1.058   0.292  0.00  0.00    +0.071 C 
ATOM      9  C   UNL     1      -3.305   0.286   0.296  0.00  0.00    +0.063 C 
BRANCH   9  10
ATOM     10  N   UNL     1      -4.617   0.655   0.681  0.00  0.00    -0.356 N 
ATOM     11  H   UNL     1      -4.881   1.604   0.683  0.00  0.00    +0.142 HD
ATOM     12  H   UNL     1      -5.266  -0.037   0.945  0.00  0.00    +0.142 HD
ENDBRANCH   9  10
ENDBRANCH   1   4
BRANCH   1  13
ATOM     13  O   UNL     1       0.843  -0.464  -2.235  0.00  0.00    -0.382 OA
ATOM     14  H   UNL     1       1.738  -0.709  -2.518  0.00  0.00    +0.211 HD
ENDBRANCH   1  13
BRANCH   1  15
ATOM     15  C   UNL     1       1.717  -0.146   0.010  0.00  0.00    -0.047 C 
BRANCH  15  16
ATOM     16  N   UNL     1       3.057  -0.535  -0.397  0.00  0.00    +0.388 N 
ATOM     17  H   UNL     1       3.153  -1.547  -0.312  0.00  0.00    -0.084 HD
ATOM     18  H   UNL     1       3.203  -0.247  -1.364  0.00  0.00    -0.084 HD
BRANCH  16  19
ATOM     19  C   UNL     1       4.062   0.118   0.449  0.00  0.00    -0.046 C 
ATOM     20  C   UNL     1       5.454  -0.313  -0.026  0.00  0.00    -0.022 C 
ATOM     21  C   UNL     1       3.906   1.636   0.308  0.00  0.00    -0.022 C 
ATOM     22  C   UNL     1       3.850  -0.301   1.908  0.00  0.00    -0.022 C 
ENDBRANCH  16  19
ENDBRANCH  15  16
ENDBRANCH   1  15
TORSDOF 6
