REMARK  Name = 446337
REMARK  0 active torsions:
REMARK  status: ('A' for Active; 'I' for Inactive)
REMARK                            x       y       z     vdW  Elec       q    Type
REMARK                         _______ _______ _______ _____ _____    ______ ____
ROOT
ATOM      1  O   UNL     1       2.878   0.000   0.008  0.00  0.00    -0.296 OA
ATOM      2  N   UNL     1      -1.107  -0.001  -0.809  0.00  0.00    +0.389 N 
ATOM      3  C   UNL     1      -0.582  -1.150  -0.050  0.00  0.00    -0.051 C 
ATOM      4  C   UNL     1      -0.582   1.150  -0.052  0.00  0.00    -0.051 C 
ATOM      5  C   UNL     1      -0.757  -0.763   1.423  0.00  0.00    -0.022 C 
ATOM      6  C   UNL     1      -0.758   0.765   1.422  0.00  0.00    -0.022 C 
ATOM      7  C   UNL     1       0.903  -1.297  -0.418  0.00  0.00    +0.044 C 
ATOM      8  C   UNL     1       0.903   1.297  -0.419  0.00  0.00    +0.044 C 
ATOM      9  C   UNL     1       1.667   0.000  -0.212  0.00  0.00    +0.147 C 
ATOM     10  C   UNL     1      -2.566  -0.001  -0.891  0.00  0.00    -0.100 C 
ATOM     11  H   UNL     1      -0.819  -0.001  -1.787  0.00  0.00    -0.080 HD
ENDROOT
TORSDOF 0
