REMARK  Name = 2802
REMARK  2 active torsions:
REMARK  status: ('A' for Active; 'I' for Inactive)
REMARK    1  A    between atoms: C_6  and  C_15
REMARK    2  A    between atoms: C_10  and  N_23
REMARK                            x       y       z     vdW  Elec       q    Type
REMARK                         _______ _______ _______ _____ _____    ______ ____
ROOT
ATOM      1  O   UNL     1       1.376   4.372  -0.011  0.00  0.00    -0.273 OA
ATOM      2  N   UNL     1      -0.311   2.903  -0.500  0.00  0.00    -0.282 N 
ATOM      3  N   UNL     1       1.665   1.341   1.165  0.00  0.00    -0.260 NA
ATOM      4  C   UNL     1      -0.483   0.535   0.251  0.00  0.00    +0.032 C 
ATOM      5  C   UNL     1      -1.014   1.690  -0.346  0.00  0.00    +0.052 C 
ATOM      6  C   UNL     1       0.965   0.415   0.603  0.00  0.00    +0.079 C 
ATOM      7  C   UNL     1      -1.301  -0.594   0.425  0.00  0.00    +0.027 C 
ATOM      8  C   UNL     1      -2.321   1.657  -0.855  0.00  0.00    +0.016 C 
ATOM      9  C   UNL     1       1.021   2.584   1.531  0.00  0.00    +0.210 C 
ATOM     10  C   UNL     1      -2.615  -0.594  -0.042  0.00  0.00    +0.143 C 
ATOM     11  C   UNL     1       0.740   3.354   0.268  0.00  0.00    +0.251 C 
ATOM     12  C   UNL     1      -3.119   0.524  -0.697  0.00  0.00    +0.025 C 
ATOM     13  H   UNL     1      -0.603   3.491  -1.234  0.00  0.00    +0.155 HD
ENDROOT
BRANCH   6  15
ATOM     14 CL   UNL     1       2.338   0.245  -2.158  0.00  0.00    -0.082 Cl
ATOM     15  C   UNL     1       1.683  -0.844   0.256  0.00  0.00    +0.028 C 
ATOM     16  C   UNL     1       2.329  -1.004  -0.965  0.00  0.00    +0.059 C 
ATOM     17  C   UNL     1       1.691  -1.867   1.199  0.00  0.00    +0.002 C 
ATOM     18  C   UNL     1       2.989  -2.200  -1.248  0.00  0.00    +0.011 C 
ATOM     19  C   UNL     1       2.351  -3.063   0.917  0.00  0.00    +0.000 C 
ATOM     20  C   UNL     1       3.000  -3.229  -0.306  0.00  0.00    +0.001 C 
ENDBRANCH   6  15
BRANCH  10  23
ATOM     21  O   UNL     1      -4.599  -1.734  -0.328  0.00  0.00    -0.126 OA
ATOM     22  O   UNL     1      -2.954  -2.745   0.718  0.00  0.00    -0.126 OA
ATOM     23  N   UNL     1      -3.429  -1.746   0.124  0.00  0.00    +0.058 N 
ENDBRANCH  10  23
TORSDOF 2
