REMARK  Name = 62709
REMARK  8 active torsions:
REMARK  status: ('A' for Active; 'I' for Inactive)
REMARK    1  A    between atoms: C_1  and  C_2
REMARK    2  A    between atoms: C_1  and  C_8
REMARK    3  A    between atoms: C_1  and  C_14
REMARK    4  A    between atoms: C_1  and  C_21
REMARK    5  A    between atoms: C_14  and  C_15
REMARK    6  A    between atoms: C_15  and  N_17
REMARK    7  A    between atoms: C_21  and  O_22
REMARK    8  A    between atoms: C_21  and  C_24
REMARK                            x       y       z     vdW  Elec       q    Type
REMARK                         _______ _______ _______ _____ _____    ______ ____
ROOT
ATOM      1  C   UNL     1       0.212   0.093  -0.078  0.00  0.00    +0.060 C 
ENDROOT
BRANCH   1   2
ATOM      2  C   UNL     1      -0.105  -1.435  -0.055  0.00  0.00    -0.017 C 
ATOM      3  C   UNL     1      -0.031  -2.073   1.145  0.00  0.00    -0.004 C 
ATOM      4  C   UNL     1      -0.434  -2.026  -1.236  0.00  0.00    -0.004 C 
ATOM      5  C   UNL     1      -0.315  -3.438   1.167  0.00  0.00    -0.000 C 
ATOM      6  C   UNL     1      -0.717  -3.392  -1.215  0.00  0.00    -0.000 C 
ATOM      7  C   UNL     1      -0.658  -4.098  -0.014  0.00  0.00    -0.000 C 
ENDBRANCH   1   2
BRANCH   1   8
ATOM      8  C   UNL     1       1.657   0.412   0.415  0.00  0.00    -0.017 C 
ATOM      9  C   UNL     1       2.694  -0.137  -0.278  0.00  0.00    -0.004 C 
ATOM     10  C   UNL     1       1.787   1.218   1.505  0.00  0.00    -0.004 C 
ATOM     11  C   UNL     1       3.986   0.147   0.163  0.00  0.00    -0.000 C 
ATOM     12  C   UNL     1       3.080   1.503   1.946  0.00  0.00    -0.000 C 
ATOM     13  C   UNL     1       4.179   0.968   1.275  0.00  0.00    -0.000 C 
ENDBRANCH   1   8
BRANCH   1  14
ATOM     14  C   UNL     1      -0.922   0.806   0.772  0.00  0.00    -0.010 C 
BRANCH  14  15
ATOM     15  C   UNL     1      -2.387   0.733   0.267  0.00  0.00    -0.058 C 
ATOM     16  C   UNL     1      -2.882  -0.716   0.281  0.00  0.00    -0.023 C 
BRANCH  15  17
ATOM     17  N   UNL     1      -3.284   1.532   1.104  0.00  0.00    +0.385 N 
ATOM     18  C   UNL     1      -4.650   1.475   0.585  0.00  0.00    -0.101 C 
ATOM     19  C   UNL     1      -2.820   2.917   1.171  0.00  0.00    -0.101 C 
ATOM     20  H   UNL     1      -3.281   1.145   2.047  0.00  0.00    -0.080 HD
ENDBRANCH  15  17
ENDBRANCH  14  15
ENDBRANCH   1  14
BRANCH   1  21
ATOM     21  C   UNL     1       0.085   0.687  -1.560  0.00  0.00    +0.118 C 
BRANCH  21  22
ATOM     22  O   UNL     1       0.918  -0.031  -2.476  0.00  0.00    -0.384 OA
ATOM     23  H   UNL     1       0.751  -0.982  -2.389  0.00  0.00    +0.210 HD
ENDBRANCH  21  22
BRANCH  21  24
ATOM     24  C   UNL     1       0.368   2.198  -1.716  0.00  0.00    +0.030 C 
ATOM     25  C   UNL     1       0.238   2.656  -3.166  0.00  0.00    +0.003 C 
ENDBRANCH  21  24
ENDBRANCH   1  21
TORSDOF 8
