REMARK  Name = 6089
REMARK  3 active torsions:
REMARK  status: ('A' for Active; 'I' for Inactive)
REMARK    1  A    between atoms: C_2  and  C_11
REMARK    2  A    between atoms: C_11  and  C_12
REMARK    3  A    between atoms: C_12  and  N_13
REMARK                            x       y       z     vdW  Elec       q    Type
REMARK                         _______ _______ _______ _____ _____    ______ ____
ROOT
ATOM      1  N   UNL     1       1.771  -2.004  -0.134  0.00  0.00    -0.312 N 
ATOM      2  C   UNL     1      -0.046  -0.850   0.407  0.00  0.00    -0.008 C 
ATOM      3  C   UNL     1       1.020   0.069   0.203  0.00  0.00    +0.011 C 
ATOM      4  C   UNL     1       2.149  -0.680  -0.136  0.00  0.00    +0.048 C 
ATOM      5  C   UNL     1       0.447  -2.117   0.193  0.00  0.00    +0.057 C 
ATOM      6  C   UNL     1       1.135   1.472   0.274  0.00  0.00    +0.001 C 
ATOM      7  C   UNL     1       3.391  -0.095  -0.407  0.00  0.00    +0.015 C 
ATOM      8  C   UNL     1       2.370   2.071   0.004  0.00  0.00    +0.000 C 
ATOM      9  C   UNL     1       3.480   1.298  -0.331  0.00  0.00    +0.001 C 
ATOM     10  H   UNL     1       2.367  -2.761  -0.338  0.00  0.00    +0.152 HD
ENDROOT
BRANCH   2  11
ATOM     11  C   UNL     1      -1.435  -0.517   0.782  0.00  0.00    +0.005 C 
BRANCH  11  12
ATOM     12  C   UNL     1      -2.347  -0.285  -0.437  0.00  0.00    -0.073 C 
BRANCH  12  13
ATOM     13  N   UNL     1      -3.705   0.071  -0.040  0.00  0.00    +0.384 N 
ATOM     14  C   UNL     1      -4.534   0.329  -1.218  0.00  0.00    -0.101 C 
ATOM     15  C   UNL     1      -3.695   1.239   0.841  0.00  0.00    -0.101 C 
ATOM     16  H   UNL     1      -4.105  -0.717   0.471  0.00  0.00    -0.080 HD
ENDBRANCH  12  13
ENDBRANCH  11  12
ENDBRANCH   2  11
TORSDOF 3
