REMARK  Name = 7099
REMARK  2 active torsions:
REMARK  status: ('A' for Active; 'I' for Inactive)
REMARK    1  A    between atoms: C_11  and  N_15
REMARK    2  A    between atoms: C_12  and  N_18
REMARK                            x       y       z     vdW  Elec       q    Type
REMARK                         _______ _______ _______ _____ _____    ______ ____
ROOT
ATOM      1  N   UNL     1       0.000   1.179   0.000  0.00  0.00    -0.410 NA
ATOM      2  C   UNL     1      -1.215  -0.898   0.000  0.00  0.00    +0.008 C 
ATOM      3  C   UNL     1       1.215  -0.898   0.000  0.00  0.00    +0.008 C 
ATOM      4  C   UNL     1      -1.167   0.506   0.000  0.00  0.00    +0.111 C 
ATOM      5  C   UNL     1       1.167   0.506   0.000  0.00  0.00    +0.111 C 
ATOM      6  C   UNL     1       0.000  -1.592   0.000  0.00  0.00    +0.057 C 
ATOM      7  C   UNL     1      -2.450  -1.569   0.000  0.00  0.00    -0.001 C 
ATOM      8  C   UNL     1       2.450  -1.569   0.000  0.00  0.00    -0.001 C 
ATOM      9  C   UNL     1      -2.373   1.202   0.000  0.00  0.00    +0.099 C 
ATOM     10  C   UNL     1       2.373   1.202   0.000  0.00  0.00    +0.099 C 
ATOM     11  C   UNL     1      -3.603   0.538   0.000  0.00  0.00    +0.026 C 
ATOM     12  C   UNL     1       3.603   0.538   0.000  0.00  0.00    +0.026 C 
ATOM     13  C   UNL     1      -3.642  -0.850   0.000  0.00  0.00    +0.010 C 
ATOM     14  C   UNL     1       3.642  -0.850   0.000  0.00  0.00    +0.010 C 
ENDROOT
BRANCH  11  15
ATOM     15  N   UNL     1      -4.803   1.279   0.000  0.00  0.00    -0.360 N 
ATOM     16  H   UNL     1      -4.774   2.263   0.000  0.00  0.00    +0.142 HD
ATOM     17  H   UNL     1      -5.670   0.812   0.001  0.00  0.00    +0.142 HD
ENDBRANCH  11  15
BRANCH  12  18
ATOM     18  N   UNL     1       4.803   1.279   0.000  0.00  0.00    -0.360 N 
ATOM     19  H   UNL     1       4.774   2.263   0.000  0.00  0.00    +0.142 HD
ATOM     20  H   UNL     1       5.670   0.812   0.001  0.00  0.00    +0.142 HD
ENDBRANCH  12  18
TORSDOF 2
