REMARK  Name = 679
REMARK  0 active torsions:
REMARK  status: ('A' for Active; 'I' for Inactive)
REMARK                            x       y       z     vdW  Elec       q    Type
REMARK                         _______ _______ _______ _____ _____    ______ ____
ROOT
ATOM      1  S   UNL     1       0.182   0.006  -0.521  0.00  0.00    +0.044 S 
ATOM      2  O   UNL     1       1.480   0.053   0.228  0.00  0.00    -0.256 OA
ATOM      3  C   UNL     1      -0.879   1.311   0.146  0.00  0.00    +0.106 C 
ATOM      4  C   UNL     1      -0.783  -1.371   0.146  0.00  0.00    +0.106 C 
ENDROOT
TORSDOF 0
