REMARK  Name = 5329
REMARK  3 active torsions:
REMARK  status: ('A' for Active; 'I' for Inactive)
REMARK    1  A    between atoms: S_1  and  N_5
REMARK    2  A    between atoms: S_1  and  C_12
REMARK    3  A    between atoms: C_15  and  N_18
REMARK                            x       y       z     vdW  Elec       q    Type
REMARK                         _______ _______ _______ _____ _____    ______ ____
ROOT
ATOM      1  S   UNL     1       0.265  -2.203  -0.085  0.00  0.00    +0.075 S 
ATOM      2  O   UNL     1       0.946  -3.203   0.729  0.00  0.00    -0.150 OA
ATOM      3  O   UNL     1      -0.056  -2.525  -1.470  0.00  0.00    -0.150 OA
ENDROOT
BRANCH   1   5
ATOM      4  O   UNL     1      -2.642   0.966  -0.979  0.00  0.00    -0.356 OA
ATOM      5  N   UNL     1      -1.169  -1.727   0.744  0.00  0.00    -0.196 N 
ATOM      6  N   UNL     1      -1.928  -0.227  -0.978  0.00  0.00    -0.061 NA
ATOM      7  C   UNL     1      -1.845  -0.538   0.299  0.00  0.00    +0.189 C 
ATOM      8  C   UNL     1      -2.454   0.361   1.159  0.00  0.00    +0.074 C 
ATOM      9  C   UNL     1      -2.949   1.305   0.299  0.00  0.00    +0.156 C 
ATOM     10  C   UNL     1      -3.709   2.548   0.483  0.00  0.00    +0.075 C 
ATOM     11  H   UNL     1      -1.516  -2.254   1.500  0.00  0.00    +0.175 HD
ENDBRANCH   1   5
BRANCH   1  12
ATOM     12  C   UNL     1       1.229  -0.748  -0.057  0.00  0.00    +0.125 C 
ATOM     13  C   UNL     1       2.105  -0.511   1.002  0.00  0.00    +0.021 C 
ATOM     14  C   UNL     1       1.123   0.179  -1.095  0.00  0.00    +0.021 C 
ATOM     15  C   UNL     1       2.769   1.578  -0.013  0.00  0.00    +0.042 C 
ATOM     16  C   UNL     1       2.875   0.651   1.024  0.00  0.00    +0.015 C 
ATOM     17  C   UNL     1       1.893   1.341  -1.072  0.00  0.00    +0.015 C 
BRANCH  15  18
ATOM     18  N   UNL     1       3.549   2.753   0.009  0.00  0.00    -0.357 N 
ATOM     19  H   UNL     1       4.167   2.920   0.756  0.00  0.00    +0.142 HD
ATOM     20  H   UNL     1       3.474   3.407  -0.724  0.00  0.00    +0.142 HD
ENDBRANCH  15  18
ENDBRANCH   1  12
TORSDOF 3
