REMARK  Name = 3487
REMARK  2 active torsions:
REMARK  status: ('A' for Active; 'I' for Inactive)
REMARK    1  A    between atoms: C_4  and  C_10
REMARK    2  A    between atoms: C_4  and  C_16
REMARK                            x       y       z     vdW  Elec       q    Type
REMARK                         _______ _______ _______ _____ _____    ______ ____
ROOT
ATOM      1  O   UNL     1       1.306  -1.087  -2.029  0.00  0.00    -0.274 OA
ATOM      2  O   UNL     1       2.758   2.633   0.246  0.00  0.00    -0.275 OA
ATOM      3  N   UNL     1       2.011   0.746  -0.844  0.00  0.00    -0.255 N 
ATOM      4  C   UNL     1       0.358  -0.797   0.192  0.00  0.00    +0.088 C 
ATOM      5  C   UNL     1       1.059  -0.324   1.486  0.00  0.00    +0.022 C 
ATOM      6  C   UNL     1       1.305   1.177   1.466  0.00  0.00    +0.086 C 
ATOM      7  C   UNL     1       1.268  -0.425  -0.990  0.00  0.00    +0.231 C 
ATOM      8  C   UNL     1       2.104   1.590   0.257  0.00  0.00    +0.228 C 
ATOM      9  H   UNL     1       2.542   1.012  -1.628  0.00  0.00    +0.158 HD
ENDROOT
BRANCH   4  10
ATOM     10  C   UNL     1      -1.062  -0.221   0.056  0.00  0.00    -0.015 C 
ATOM     11  C   UNL     1      -1.391   0.545  -1.058  0.00  0.00    -0.004 C 
ATOM     12  C   UNL     1      -2.005  -0.469   1.047  0.00  0.00    -0.004 C 
ATOM     13  C   UNL     1      -2.678   1.068  -1.181  0.00  0.00    -0.000 C 
ATOM     14  C   UNL     1      -3.292   0.054   0.923  0.00  0.00    -0.000 C 
ATOM     15  C   UNL     1      -3.629   0.823  -0.191  0.00  0.00    -0.000 C 
ENDBRANCH   4  10
BRANCH   4  16
ATOM     16  C   UNL     1       0.261  -2.341   0.226  0.00  0.00    +0.013 C 
ATOM     17  C   UNL     1       1.627  -2.971   0.393  0.00  0.00    +0.001 C 
ENDBRANCH   4  16
TORSDOF 2
