REMARK  Name = 64147
REMARK  11 active torsions:
REMARK  status: ('A' for Active; 'I' for Inactive)
REMARK    1  A    between atoms: O_1  and  C_2
REMARK    2  A    between atoms: O_1  and  C_18
REMARK    3  A    between atoms: C_2  and  C_3
REMARK    4  A    between atoms: C_2  and  C_15
REMARK    5  A    between atoms: C_3  and  O_4
REMARK    6  A    between atoms: O_4  and  C_6
REMARK    7  A    between atoms: C_6  and  C_7
REMARK    8  A    between atoms: C_7  and  N_8
REMARK    9  A    between atoms: C_7  and  C_12
REMARK   10  A    between atoms: C_15  and  O_16
REMARK   11  A    between atoms: C_18  and  N_20
REMARK                            x       y       z     vdW  Elec       q    Type
REMARK                         _______ _______ _______ _____ _____    ______ ____
ROOT
ATOM      1  O   UNL     1      -0.181  -1.463  -0.262  0.00  0.00    -0.333 OA
ENDROOT
BRANCH   1   2
ATOM      2  C   UNL     1      -1.086  -2.527   0.041  0.00  0.00    +0.190 C 
BRANCH   2   3
ATOM      3  C   UNL     1      -2.271  -1.957   0.812  0.00  0.00    +0.240 C 
BRANCH   3   4
ATOM      4  O   UNL     1      -2.918  -0.947   0.031  0.00  0.00    -0.447 OA
BRANCH   4   6
ATOM      5  O   UNL     1      -4.444  -0.619   1.726  0.00  0.00    -0.252 OA
ATOM      6  C   UNL     1      -4.002  -0.354   0.616  0.00  0.00    +0.296 C 
BRANCH   6   7
ATOM      7  C   UNL     1      -4.574   0.693  -0.329  0.00  0.00    +0.036 C 
BRANCH   7   8
ATOM      8  N   UNL     1      -5.798   1.232   0.265  0.00  0.00    +0.389 N 
ATOM      9  H   UNL     1      -6.195   1.937  -0.356  0.00  0.00    -0.088 HD
ATOM     10  H   UNL     1      -5.579   1.657   1.166  0.00  0.00    -0.088 HD
ATOM     11  H   UNL     1      -6.471   0.478   0.399  0.00  0.00    -0.088 HD
ENDBRANCH   7   8
BRANCH   7  12
ATOM     12  C   UNL     1      -3.536   1.787  -0.671  0.00  0.00    -0.010 C 
ATOM     13  C   UNL     1      -3.014   2.472   0.597  0.00  0.00    -0.002 C 
ATOM     14  C   UNL     1      -4.057   2.844  -1.652  0.00  0.00    -0.002 C 
ENDBRANCH   7  12
ENDBRANCH   6   7
ENDBRANCH   4   6
ENDBRANCH   3   4
ENDBRANCH   2   3
BRANCH   2  15
ATOM     15  C   UNL     1      -1.528  -3.157  -1.273  0.00  0.00    +0.171 C 
BRANCH  15  16
ATOM     16  O   UNL     1      -0.381  -3.646  -1.961  0.00  0.00    -0.379 OA
ATOM     17  H   UNL     1      -0.655  -4.049  -2.800  0.00  0.00    +0.211 HD
ENDBRANCH  15  16
ENDBRANCH   2  15
ENDBRANCH   1   2
BRANCH   1  18
ATOM     18  C   UNL     1       0.275  -0.827   0.920  0.00  0.00    +0.223 C 
BRANCH  18  20
ATOM     19  O   UNL     1       4.824   2.649  -0.632  0.00  0.00    -0.208 OA
ATOM     20  N   UNL     1       1.210   0.213   0.516  0.00  0.00    -0.206 NA
ATOM     21  N   UNL     1       3.341  -0.953   0.512  0.00  0.00    -0.279 N 
ATOM     22  N   UNL     1       1.953   2.222  -0.110  0.00  0.00    -0.241 NA
ATOM     23  N   UNL     1       5.207   0.423  -0.112  0.00  0.00    -0.301 NA
ATOM     24  N   UNL     1       5.468  -1.853   0.440  0.00  0.00    -0.320 N 
ATOM     25  C   UNL     1       2.540   0.104   0.354  0.00  0.00    +0.191 C 
ATOM     26  C   UNL     1       2.989   1.334  -0.028  0.00  0.00    +0.183 C 
ATOM     27  C   UNL     1       0.889   1.512   0.226  0.00  0.00    +0.205 C 
ATOM     28  C   UNL     1       4.399   1.553  -0.287  0.00  0.00    +0.224 C 
ATOM     29  C   UNL     1       4.694  -0.735   0.261  0.00  0.00    +0.245 C 
ATOM     30  H   UNL     1       2.996  -1.833   0.789  0.00  0.00    +0.152 HD
ATOM     31  H   UNL     1       5.052  -2.701   0.719  0.00  0.00    +0.146 HD
ATOM     32  H   UNL     1       6.440  -1.808   0.290  0.00  0.00    +0.146 HD
ENDBRANCH  18  20
ENDBRANCH   1  18
TORSDOF 11
