REMARK  Name = 447682
REMARK  3 active torsions:
REMARK  status: ('A' for Active; 'I' for Inactive)
REMARK    1  A    between atoms: C_5  and  C_20
REMARK    2  A    between atoms: C_20  and  C_22
REMARK    3  A    between atoms: C_22  and  O_23
REMARK                            x       y       z     vdW  Elec       q    Type
REMARK                         _______ _______ _______ _____ _____    ______ ____
ROOT
ATOM      1  O   UNL     1      -2.231   3.217   0.082  0.00  0.00    -0.267 OA
ATOM      2  N   UNL     1      -0.473  -0.441   0.110  0.00  0.00    -0.293 N 
ATOM      3  N   UNL     1      -0.336   1.957   0.329  0.00  0.00    -0.308 N 
ATOM      4  C   UNL     1       0.250   0.715   0.323  0.00  0.00    +0.124 A 
ATOM      5  C   UNL     1       1.568   0.401   0.527  0.00  0.00    +0.023 A 
ATOM      6  C   UNL     1       0.429  -1.507   0.023  0.00  0.00    +0.065 A 
ATOM      7  C   UNL     1       1.701  -0.996   0.343  0.00  0.00    +0.016 A 
ATOM      8  C   UNL     1      -1.890  -0.394   0.005  0.00  0.00    +0.070 A 
ATOM      9  C   UNL     1      -2.498   0.875  -0.014  0.00  0.00    +0.072 A 
ATOM     10  C   UNL     1       0.294  -2.865  -0.327  0.00  0.00    +0.018 C 
ATOM     11  C   UNL     1      -1.691   2.115   0.127  0.00  0.00    +0.260 A 
ATOM     12  C   UNL     1       2.817  -1.859   0.388  0.00  0.00    +0.001 C 
ATOM     13  C   UNL     1      -2.697  -1.532  -0.040  0.00  0.00    +0.018 C 
ATOM     14  C   UNL     1      -3.889   0.993  -0.136  0.00  0.00    +0.006 C 
ATOM     15  C   UNL     1       1.417  -3.701  -0.283  0.00  0.00    +0.001 C 
ATOM     16  C   UNL     1       2.661  -3.210   0.083  0.00  0.00    +0.000 C 
ATOM     17  C   UNL     1      -4.085  -1.407  -0.159  0.00  0.00    +0.001 C 
ATOM     18  C   UNL     1      -4.679  -0.150  -0.217  0.00  0.00    +0.000 C 
ATOM     19  H   UNL     1       0.224   2.752   0.482  0.00  0.00    +0.170 HD
ENDROOT
BRANCH   5  20
ATOM     20  C   UNL     1       2.660   1.348   0.839  0.00  0.00    +0.139 C 
BRANCH  20  22
ATOM     21  O   UNL     1       3.059   1.645  -1.545  0.00  0.00    -0.250 OA
ATOM     22  C   UNL     1       3.331   1.942  -0.390  0.00  0.00    +0.318 C 
BRANCH  22  23
ATOM     23  O   UNL     1       4.285   2.855  -0.067  0.00  0.00    -0.480 OA
ATOM     24  H   UNL     1       4.459   3.052   0.833  0.00  0.00    +0.295 HD
ENDBRANCH  22  23
ENDBRANCH  20  22
ENDBRANCH   5  20
TORSDOF 3
