REMARK  Name = 6541406
REMARK  5 active torsions:
REMARK  status: ('A' for Active; 'I' for Inactive)
REMARK    1  A    between atoms: N_2  and  C_5
REMARK    2  A    between atoms: C_3  and  C_15
REMARK    3  A    between atoms: C_15  and  N_16
REMARK    4  A    between atoms: C_15  and  C_20
REMARK    5  A    between atoms: C_20  and  C_23
REMARK                            x       y       z     vdW  Elec       q    Type
REMARK                         _______ _______ _______ _____ _____    ______ ____
ROOT
ATOM      1  O   UNL     1       1.593  -1.786   1.244  0.00  0.00    -0.277 OA
ATOM      2  N   UNL     1       0.527  -0.879  -0.646  0.00  0.00    -0.286 N 
ATOM      3  C   UNL     1       1.607  -1.417   0.072  0.00  0.00    +0.206 C 
ATOM      4  H   UNL     1       0.706  -0.657  -1.589  0.00  0.00    +0.155 HD
ENDROOT
BRANCH   2   5
ATOM      5  C   UNL     1      -0.767  -0.620  -0.194  0.00  0.00    +0.050 C 
ATOM      6  C   UNL     1      -3.027   0.169  -0.629  0.00  0.00    +0.001 C 
ATOM      7  C   UNL     1      -3.371  -0.095   0.718  0.00  0.00    +0.000 C 
ATOM      8  C   UNL     1      -1.720  -0.100  -1.070  0.00  0.00    +0.015 C 
ATOM      9  C   UNL     1      -1.105  -0.878   1.131  0.00  0.00    +0.015 C 
ATOM     10  C   UNL     1      -2.399  -0.618   1.585  0.00  0.00    +0.001 C 
ATOM     11  C   UNL     1      -3.999   0.692  -1.497  0.00  0.00    +0.000 C 
ATOM     12  C   UNL     1      -4.678   0.173   1.158  0.00  0.00    +0.000 C 
ATOM     13  C   UNL     1      -5.293   0.952  -1.043  0.00  0.00    +0.000 C 
ATOM     14  C   UNL     1      -5.631   0.694   0.282  0.00  0.00    +0.000 C 
ENDBRANCH   2   5
BRANCH   3  15
ATOM     15  C   UNL     1       2.865  -1.545  -0.792  0.00  0.00    +0.019 C 
BRANCH  15  16
ATOM     16  N   UNL     1       3.166  -2.974  -0.897  0.00  0.00    +0.388 N 
ATOM     17  H   UNL     1       4.001  -3.104  -1.468  0.00  0.00    -0.089 HD
ATOM     18  H   UNL     1       2.379  -3.456  -1.332  0.00  0.00    -0.089 HD
ATOM     19  H   UNL     1       3.327  -3.357   0.034  0.00  0.00    -0.089 HD
ENDBRANCH  15  16
BRANCH  15  20
ATOM     20  C   UNL     1       4.050  -0.809  -0.147  0.00  0.00    +0.029 C 
BRANCH  20  23
ATOM     21  N   UNL     1       3.844   1.297   1.167  0.00  0.00    -0.319 N 
ATOM     22  N   UNL     1       3.400   2.840  -0.367  0.00  0.00    -0.315 N 
ATOM     23  C   UNL     1       3.809   0.679  -0.026  0.00  0.00    +0.036 C 
ATOM     24  C   UNL     1       3.539   1.611  -0.961  0.00  0.00    +0.069 C 
ATOM     25  C   UNL     1       3.589   2.616   0.914  0.00  0.00    +0.182 C 
ATOM     26  H   UNL     1       4.018   0.884   2.043  0.00  0.00    +0.148 HD
ATOM     27  H   UNL     1       3.201   3.700  -0.804  0.00  0.00    +0.148 HD
ENDBRANCH  20  23
ENDBRANCH  15  20
ENDBRANCH   3  15
TORSDOF 5
