REMARK  Name = 4507
REMARK  7 active torsions:
REMARK  status: ('A' for Active; 'I' for Inactive)
REMARK    1  A    between atoms: C_2  and  C_10
REMARK    2  A    between atoms: C_3  and  C_20
REMARK    3  A    between atoms: C_4  and  C_25
REMARK    4  A    between atoms: C_13  and  N_18
REMARK    5  A    between atoms: C_20  and  O_21
REMARK    6  A    between atoms: O_21  and  C_22
REMARK    7  A    between atoms: C_25  and  O_26
REMARK                            x       y       z     vdW  Elec       q    Type
REMARK                         _______ _______ _______ _____ _____    ______ ____
ROOT
ATOM      1  N   UNL     1      -1.680   1.531  -1.915  0.00  0.00    -0.334 N 
ATOM      2  C   UNL     1      -0.847   0.534   0.602  0.00  0.00    +0.011 C 
ATOM      3  C   UNL     1      -0.241   1.780  -0.053  0.00  0.00    +0.071 C 
ATOM      4  C   UNL     1      -2.053  -0.017  -0.164  0.00  0.00    +0.085 C 
ATOM      5  C   UNL     1      -0.663   2.210  -1.264  0.00  0.00    +0.098 C 
ATOM      6  C   UNL     1      -2.396   0.474  -1.377  0.00  0.00    +0.028 C 
ATOM      7  C   UNL     1      -0.111   3.395  -2.011  0.00  0.00    +0.026 C 
ATOM      8  C   UNL     1      -3.528  -0.028  -2.233  0.00  0.00    +0.047 C 
ATOM      9  H   UNL     1      -1.911   1.820  -2.828  0.00  0.00    +0.147 HD
ENDROOT
BRANCH   2  10
ATOM     10  C   UNL     1       0.202  -0.533   0.740  0.00  0.00    +0.002 C 
ATOM     11  C   UNL     1       0.796  -1.064  -0.398  0.00  0.00    +0.024 C 
ATOM     12  C   UNL     1       0.566  -0.978   2.006  0.00  0.00    +0.000 C 
ATOM     13  C   UNL     1       1.770  -2.055  -0.269  0.00  0.00    +0.143 C 
ATOM     14  C   UNL     1       1.539  -1.969   2.134  0.00  0.00    +0.002 C 
ATOM     15  C   UNL     1       2.141  -2.507   0.997  0.00  0.00    +0.024 C 
BRANCH  13  18
ATOM     16  O   UNL     1       3.256  -3.491  -1.283  0.00  0.00    -0.126 OA
ATOM     17  O   UNL     1       2.031  -2.179  -2.553  0.00  0.00    -0.126 OA
ATOM     18  N   UNL     1       2.383  -2.603  -1.427  0.00  0.00    +0.058 N 
ENDBRANCH  13  18
ENDBRANCH   2  10
BRANCH   3  20
ATOM     19  O   UNL     1       0.489   3.382   1.534  0.00  0.00    -0.245 OA
ATOM     20  C   UNL     1       0.768   2.512   0.730  0.00  0.00    +0.339 C 
BRANCH  20  21
ATOM     21  O   UNL     1       1.994   2.044   0.392  0.00  0.00    -0.446 OA
BRANCH  21  22
ATOM     22  C   UNL     1       3.089   2.662   1.075  0.00  0.00    +0.209 C 
ATOM     23  C   UNL     1       4.383   2.041   0.597  0.00  0.00    +0.051 C 
ENDBRANCH  21  22
ENDBRANCH  20  21
ENDBRANCH   3  20
BRANCH   4  25
ATOM     24  O   UNL     1      -2.630  -2.254   0.364  0.00  0.00    -0.245 OA
ATOM     25  C   UNL     1      -2.840  -1.064   0.508  0.00  0.00    +0.342 C 
BRANCH  25  26
ATOM     26  O   UNL     1      -3.784  -0.465   1.272  0.00  0.00    -0.441 OA
ATOM     27  C   UNL     1      -4.636  -1.359   1.996  0.00  0.00    +0.256 C 
ENDBRANCH  25  26
ENDBRANCH   4  25
TORSDOF 7
