REMARK  Name = 657237
REMARK  5 active torsions:
REMARK  status: ('A' for Active; 'I' for Inactive)
REMARK    1  A    between atoms: N_2  and  C1*_13
REMARK    2  A    between atoms: C2*_12  and  O2*_16
REMARK    3  A    between atoms: C3*_14  and  O3*_18
REMARK    4  A    between atoms: C4*_15  and  C5*_20
REMARK    5  A    between atoms: C5*_20  and  O5*_21
REMARK                            x       y       z     vdW  Elec       q    Type
REMARK                         _______ _______ _______ _____ _____    ______ ____
ROOT
ATOM      1  F   UNL     1      -1.783   3.049  -0.377  0.00  0.00    -0.098 F 
ATOM      2  N   UNL     1      -0.110  -1.273   0.352  0.00  0.00    -0.236 N 
ATOM      3  N   UNL     1      -2.125  -2.241   0.347  0.00  0.00    -0.240 NA
ATOM      4  N   UNL     1      -0.766   1.038  -0.021  0.00  0.00    -0.300 NA
ATOM      5  N   UNL     1      -3.189   1.255  -0.222  0.00  0.00    -0.301 NA
ATOM      6  C   UNL     1      -1.019  -0.269   0.146  0.00  0.00    +0.222 C 
ATOM      7  C   UNL     1      -0.828  -2.438   0.466  0.00  0.00    +0.224 C 
ATOM      8  C   UNL     1      -2.258  -0.890   0.147  0.00  0.00    +0.167 C 
ATOM      9  C   UNL     1      -3.370  -0.076  -0.046  0.00  0.00    +0.213 C 
ATOM     10  C   UNL     1      -1.917   1.722  -0.199  0.00  0.00    +0.300 C 
ATOM     11  N   UNL     1      -4.665  -0.621  -0.062  0.00  0.00    -0.331 N 
ATOM     12  H   UNL     1      -5.444  -0.035  -0.200  0.00  0.00    +0.145 HD
ATOM     13  H   UNL     1      -4.794  -1.589   0.064  0.00  0.00    +0.145 HD
ENDROOT
BRANCH   2  16
ATOM     14  O4* UNL     1       1.698   0.107   1.057  0.00  0.00    -0.333 OA
ATOM     15  C2* UNL     1       2.087  -1.200  -0.892  0.00  0.00    +0.187 C 
ATOM     16  C1* UNL     1       1.340  -1.141   0.437  0.00  0.00    +0.226 C 
ATOM     17  C3* UNL     1       3.373  -0.477  -0.547  0.00  0.00    +0.171 C 
ATOM     18  C4* UNL     1       2.934   0.571   0.478  0.00  0.00    +0.175 C 
BRANCH  15  19
ATOM     19  O2* UNL     1       1.396  -0.478  -1.903  0.00  0.00    -0.378 OA
ATOM     20  H2* UNL     1       0.572  -0.940  -2.125  0.00  0.00    +0.211 HD
ENDBRANCH  15  19
BRANCH  17  21
ATOM     21  O3* UNL     1       4.255  -1.407   0.079  0.00  0.00    -0.379 OA
ATOM     22  H3* UNL     1       4.535  -2.073  -0.568  0.00  0.00    +0.211 HD
ENDBRANCH  17  21
BRANCH  18  23
ATOM     23  C5* UNL     1       2.678   1.941  -0.134  0.00  0.00    +0.169 C 
BRANCH  23  24
ATOM     24  O5* UNL     1       2.270   2.828   0.893  0.00  0.00    -0.379 OA
ATOM     25  H5* UNL     1       2.103   3.705   0.515  0.00  0.00    +0.211 HD
ENDBRANCH  23  24
ENDBRANCH  18  23
ENDBRANCH   2  16
TORSDOF 5
