REMARK  Name = 69249407
REMARK  2 active torsions:
REMARK  status: ('A' for Active; 'I' for Inactive)
REMARK    1  A    between atoms: C_6  and  O_21
REMARK    2  A    between atoms: C_19  and  O_23
REMARK                            x       y       z     vdW  Elec       q    Type
REMARK                         _______ _______ _______ _____ _____    ______ ____
ROOT
ATOM      1  O   UNL     1      -5.652  -0.516   0.775  0.00  0.00    -0.288 OA
ATOM      2  C   UNL     1       2.731  -0.493  -0.228  0.00  0.00    +0.023 C 
ATOM      3  C   UNL     1       1.894   0.732   0.201  0.00  0.00    +0.002 C 
ATOM      4  C   UNL     1       0.484   0.728  -0.398  0.00  0.00    +0.001 C 
ATOM      5  C   UNL     1      -0.263  -0.555   0.067  0.00  0.00    +0.004 C 
ATOM      6  C   UNL     1       4.105  -0.143   0.424  0.00  0.00    +0.088 C 
ATOM      7  C   UNL     1       2.015  -1.752   0.287  0.00  0.00    +0.002 C 
ATOM      8  C   UNL     1       2.811   1.913  -0.100  0.00  0.00    +0.002 C 
ATOM      9  C   UNL     1       0.562  -1.836  -0.216  0.00  0.00    +0.000 C 
ATOM     10  C   UNL     1       4.229   1.386   0.187  0.00  0.00    +0.027 C 
ATOM     11  C   UNL     1      -1.699  -0.620  -0.541  0.00  0.00    +0.022 C 
ATOM     12  C   UNL     1      -0.316   1.970   0.013  0.00  0.00    +0.004 C 
ATOM     13  C   UNL     1       2.907  -0.617  -1.770  0.00  0.00    +0.002 C 
ATOM     14  C   UNL     1      -1.706   1.947  -0.613  0.00  0.00    +0.025 C 
ATOM     15  C   UNL     1      -2.466   0.678  -0.292  0.00  0.00    -0.008 C 
ATOM     16  C   UNL     1       4.234  -0.465   1.918  0.00  0.00    +0.029 C 
ATOM     17  C   UNL     1      -2.452  -1.851   0.002  0.00  0.00    +0.012 C 
ATOM     18  C   UNL     1      -3.938  -1.798  -0.291  0.00  0.00    +0.073 C 
ATOM     19  C   UNL     1      -3.743   0.721   0.136  0.00  0.00    +0.160 C 
ATOM     20  C   UNL     1      -4.527  -0.536   0.279  0.00  0.00    +0.206 C 
ENDROOT
BRANCH   6  21
ATOM     21  O   UNL     1       5.186  -0.803  -0.230  0.00  0.00    -0.387 OA
ATOM     22  H   UNL     1       5.145  -0.627  -1.183  0.00  0.00    +0.210 HD
ENDBRANCH   6  21
BRANCH  19  23
ATOM     23  O   UNL     1      -4.397   1.909   0.389  0.00  0.00    -0.503 OA
ATOM     24  H   UNL     1      -3.938   2.723   0.310  0.00  0.00    +0.292 HD
ENDBRANCH  19  23
TORSDOF 2
