REMARK  Name = 11597698
REMARK  10 active torsions:
REMARK  status: ('A' for Active; 'I' for Inactive)
REMARK    1  A    between atoms: C_1  and  C_4
REMARK    2  A    between atoms: C_1  and  N_15
REMARK    3  A    between atoms: C_1  and  C_19
REMARK    4  A    between atoms: N_3  and  C_6
REMARK    5  A    between atoms: C_6  and  C_8
REMARK    6  A    between atoms: C_8  and  C_9
REMARK    7  A    between atoms: C_19  and  C_20
REMARK    8  A    between atoms: C_20  and  C_21
REMARK    9  A    between atoms: C_21  and  C_22
REMARK   10  A    between atoms: C_22  and  N_23
REMARK                            x       y       z     vdW  Elec       q    Type
REMARK                         _______ _______ _______ _____ _____    ______ ____
ROOT
ATOM      1  C   UNL     1       0.912  -2.551  -0.721  0.00  0.00    +0.013 C 
ENDROOT
BRANCH   1   4
ATOM      2  O   UNL     1       1.707  -1.915   1.482  0.00  0.00    -0.277 OA
ATOM      3  N   UNL     1       1.974  -0.424  -0.277  0.00  0.00    -0.307 N 
ATOM      4  C   UNL     1       1.573  -1.623   0.295  0.00  0.00    +0.202 C 
ATOM      5  H   UNL     1       1.821  -0.290  -1.240  0.00  0.00    +0.149 HD
BRANCH   3   6
ATOM      6  C   UNL     1       2.607   0.638   0.472  0.00  0.00    +0.076 C 
ATOM      7  C   UNL     1       4.115   0.410   0.511  0.00  0.00    +0.022 C 
BRANCH   6   8
ATOM      8  C   UNL     1       2.281   2.015  -0.127  0.00  0.00    +0.046 C 
BRANCH   8   9
ATOM      9  C   UNL     1       0.798   2.294  -0.194  0.00  0.00    -0.021 C 
ATOM     10  C   UNL     1       0.089   1.928  -1.326  0.00  0.00    -0.004 C 
ATOM     11  C   UNL     1       0.174   2.909   0.880  0.00  0.00    -0.004 C 
ATOM     12  C   UNL     1      -1.280   2.185  -1.387  0.00  0.00    -0.000 C 
ATOM     13  C   UNL     1      -1.195   3.166   0.819  0.00  0.00    -0.000 C 
ATOM     14  C   UNL     1      -1.923   2.804  -0.315  0.00  0.00    -0.000 C 
ENDBRANCH   8   9
ENDBRANCH   6   8
ENDBRANCH   3   6
ENDBRANCH   1   4
BRANCH   1  15
ATOM     15  N   UNL     1       1.720  -3.767  -0.801  0.00  0.00    +0.387 N 
ATOM     16  H   UNL     1       1.302  -4.409  -1.474  0.00  0.00    -0.089 HD
ATOM     17  H   UNL     1       1.757  -4.212   0.116  0.00  0.00    -0.089 HD
ATOM     18  H   UNL     1       2.665  -3.527  -1.101  0.00  0.00    -0.089 HD
ENDBRANCH   1  15
BRANCH   1  19
ATOM     19  C   UNL     1      -0.532  -2.840  -0.285  0.00  0.00    -0.013 C 
BRANCH  19  20
ATOM     20  C   UNL     1      -1.408  -1.585  -0.212  0.00  0.00    -0.004 C 
BRANCH  20  21
ATOM     21  C   UNL     1      -2.844  -1.934   0.189  0.00  0.00    -0.024 C 
BRANCH  21  22
ATOM     22  C   UNL     1      -3.707  -0.679   0.298  0.00  0.00    -0.086 C 
BRANCH  22  23
ATOM     23  N   UNL     1      -5.064  -1.031   0.700  0.00  0.00    +0.380 N 
ATOM     24  H   UNL     1      -5.629  -0.184   0.768  0.00  0.00    -0.089 HD
ATOM     25  H   UNL     1      -5.040  -1.498   1.606  0.00  0.00    -0.089 HD
ATOM     26  H   UNL     1      -5.472  -1.657   0.006  0.00  0.00    -0.089 HD
ENDBRANCH  22  23
ENDBRANCH  21  22
ENDBRANCH  20  21
ENDBRANCH  19  20
ENDBRANCH   1  19
TORSDOF 10
