REMARK  Name = 5463858
REMARK  3 active torsions:
REMARK  status: ('A' for Active; 'I' for Inactive)
REMARK    1  A    between atoms: C_4  and  O_21
REMARK    2  A    between atoms: C_10  and  O_23
REMARK    3  A    between atoms: C_18  and  O_25
REMARK                            x       y       z     vdW  Elec       q    Type
REMARK                         _______ _______ _______ _____ _____    ______ ____
ROOT
ATOM      1  O   UNL     1      -1.904   0.796  -1.365  0.00  0.00    -0.474 OA
ATOM      2  N   UNL     1       2.872  -0.973  -0.409  0.00  0.00    +0.389 N 
ATOM      3  C   UNL     1       0.400   0.526  -0.679  0.00  0.00    +0.079 C 
ATOM      4  C   UNL     1       1.501   0.939   0.308  0.00  0.00    +0.078 C 
ATOM      5  C   UNL     1       2.193  -0.385   0.777  0.00  0.00    -0.028 C 
ATOM      6  C   UNL     1      -0.688   1.560  -1.039  0.00  0.00    +0.198 C 
ATOM      7  C   UNL     1       1.046  -0.137  -1.921  0.00  0.00    -0.013 C 
ATOM      8  C   UNL     1      -0.516  -0.472  -0.061  0.00  0.00    +0.016 C 
ATOM      9  C   UNL     1       0.962   1.819   1.445  0.00  0.00    +0.028 C 
ATOM     10  C   UNL     1      -1.015   2.606   0.063  0.00  0.00    +0.151 C 
ATOM     11  C   UNL     1       1.198  -1.357   1.504  0.00  0.00    +0.008 C 
ATOM     12  C   UNL     1       0.210   3.032   0.871  0.00  0.00    +0.035 C 
ATOM     13  C   UNL     1       1.985  -1.297  -1.533  0.00  0.00    -0.077 C 
ATOM     14  C   UNL     1      -0.180  -1.407   0.899  0.00  0.00    -0.025 C 
ATOM     15  C   UNL     1      -1.792  -0.324  -0.568  0.00  0.00    +0.168 C 
ATOM     16  C   UNL     1       3.755  -2.088  -0.085  0.00  0.00    -0.100 C 
ATOM     17  C   UNL     1      -1.189  -2.282   1.298  0.00  0.00    -0.001 C 
ATOM     18  C   UNL     1      -2.798  -1.188  -0.201  0.00  0.00    +0.167 C 
ATOM     19  C   UNL     1      -2.482  -2.183   0.737  0.00  0.00    +0.039 C 
ATOM     20  H   UNL     1       3.462  -0.209  -0.738  0.00  0.00    -0.080 HD
ENDROOT
BRANCH   4  21
ATOM     21  O   UNL     1       2.477   1.766  -0.352  0.00  0.00    -0.388 OA
ATOM     22  H   UNL     1       2.869   1.275  -1.091  0.00  0.00    +0.210 HD
ENDBRANCH   4  21
BRANCH  10  23
ATOM     23  O   UNL     1      -1.976   2.117   1.002  0.00  0.00    -0.381 OA
ATOM     24  H   UNL     1      -2.775   1.834   0.530  0.00  0.00    +0.210 HD
ENDBRANCH  10  23
BRANCH  18  25
ATOM     25  O   UNL     1      -4.056  -1.067  -0.690  0.00  0.00    -0.503 OA
ATOM     26  H   UNL     1      -4.252  -0.398  -1.316  0.00  0.00    +0.292 HD
ENDBRANCH  18  25
TORSDOF 3
