REMARK  Name = 449190
REMARK  5 active torsions:
REMARK  status: ('A' for Active; 'I' for Inactive)
REMARK    1  A    between atoms: C_1  and  C_10
REMARK    2  A    between atoms: C_4  and  O_17
REMARK    3  A    between atoms: C_6  and  O_15
REMARK    4  A    between atoms: O_17  and  C_18
REMARK    5  A    between atoms: C_18  and  C_19
REMARK                            x       y       z     vdW  Elec       q    Type
REMARK                         _______ _______ _______ _____ _____    ______ ____
ROOT
ATOM      1  C   UNL     1       0.940  -0.203   0.538  0.00  0.00    +0.019 C 
ATOM      2  C   UNL     1      -0.291   0.420   0.749  0.00  0.00    +0.039 C 
ATOM      3  C   UNL     1       0.986  -1.548   0.169  0.00  0.00    +0.002 C 
ATOM      4  C   UNL     1      -1.474  -0.302   0.592  0.00  0.00    +0.172 C 
ATOM      5  C   UNL     1      -0.197  -2.270   0.013  0.00  0.00    +0.040 C 
ATOM      6  C   UNL     1      -1.427  -1.647   0.224  0.00  0.00    +0.172 C 
ENDROOT
BRANCH   1  10
ATOM      7  O   UNL     1       3.389  -0.216   0.345  0.00  0.00    -0.436 OA
ATOM      8  O   UNL     1       4.741  -0.400  -1.494  0.00  0.00    -0.226 OA
ATOM      9  N   UNL     1       3.208   1.331  -1.258  0.00  0.00    -0.267 N 
ATOM     10  C   UNL     1       2.235   0.587   0.710  0.00  0.00    +0.174 C 
ATOM     11  C   UNL     1       2.330   1.791  -0.231  0.00  0.00    +0.137 C 
ATOM     12  C   UNL     1       2.424   0.994   2.174  0.00  0.00    +0.050 C 
ATOM     13  C   UNL     1       3.864   0.186  -0.876  0.00  0.00    +0.402 C 
ATOM     14  H   UNL     1       3.328   1.776  -2.127  0.00  0.00    +0.153 HD
ENDBRANCH   1  10
BRANCH   6  15
ATOM     15  O   UNL     1      -2.576  -2.362   0.066  0.00  0.00    -0.468 OA
ATOM     16  C   UNL     1      -3.163  -2.368  -1.234  0.00  0.00    +0.253 C 
ENDBRANCH   6  15
BRANCH   4  17
ATOM     17  O   UNL     1      -2.669   0.317   0.801  0.00  0.00    -0.472 OA
BRANCH  17  18
ATOM     18  C   UNL     1      -2.969   1.441  -0.024  0.00  0.00    +0.206 C 
BRANCH  18  19
ATOM     19  C   UNL     1      -4.478   1.540  -0.191  0.00  0.00    +0.047 C 
ATOM     20  C   UNL     1      -4.874   2.710  -1.074  0.00  0.00    +0.004 C 
ENDBRANCH  18  19
ENDBRANCH  17  18
ENDBRANCH   4  17
TORSDOF 5
