REMARK  Name = 3563
REMARK  1 active torsions:
REMARK  status: ('A' for Active; 'I' for Inactive)
REMARK    1  A    between atoms: C_6  and  C_20
REMARK                            x       y       z     vdW  Elec       q    Type
REMARK                         _______ _______ _______ _____ _____    ______ ____
ROOT
ATOM      1 BR   UNL     1      -4.795   1.691  -0.480  0.00  0.00    -0.049 Br
ATOM      2  O   UNL     1       0.089   0.575  -2.135  0.00  0.00    -0.371 OA
ATOM      3  O   UNL     1       1.649  -3.004   1.493  0.00  0.00    -0.277 OA
ATOM      4  N   UNL     1       0.771  -1.504  -1.270  0.00  0.00    +0.417 N 
ATOM      5  N   UNL     1      -0.179  -1.635   1.692  0.00  0.00    -0.286 N 
ATOM      6  C   UNL     1       0.271  -0.163  -0.892  0.00  0.00    +0.099 C 
ATOM      7  C   UNL     1       0.406  -1.658  -2.676  0.00  0.00    -0.040 C 
ATOM      8  C   UNL     1      -1.071  -0.188  -0.118  0.00  0.00    +0.003 C 
ATOM      9  C   UNL     1       0.598  -0.253  -3.183  0.00  0.00    +0.118 C 
ATOM     10  C   UNL     1       0.346  -2.646  -0.483  0.00  0.00    +0.015 C 
ATOM     11  C   UNL     1      -1.181  -0.801   1.151  0.00  0.00    +0.047 C 
ATOM     12  C   UNL     1       0.691  -2.429   0.972  0.00  0.00    +0.205 C 
ATOM     13  C   UNL     1      -2.183   0.537  -0.592  0.00  0.00    +0.004 C 
ATOM     14  C   UNL     1      -2.313  -0.585   1.950  0.00  0.00    +0.015 C 
ATOM     15  C   UNL     1      -3.331   0.698   0.188  0.00  0.00    +0.034 C 
ATOM     16  C   UNL     1      -3.388   0.154   1.465  0.00  0.00    +0.008 C 
ATOM     17  H   UNL     1       1.774  -1.520  -1.084  0.00  0.00    -0.074 HD
ATOM     18  H   UNL     1      -0.094  -1.653   2.672  0.00  0.00    +0.155 HD
ENDROOT
BRANCH   6  20
ATOM     19  F   UNL     1      -0.055   2.604  -0.284  0.00  0.00    -0.204 F 
ATOM     20  C   UNL     1       1.328   0.681  -0.140  0.00  0.00    +0.016 C 
ATOM     21  C   UNL     1       1.087   2.026   0.115  0.00  0.00    +0.137 C 
ATOM     22  C   UNL     1       2.514   0.084   0.274  0.00  0.00    -0.002 C 
ATOM     23  C   UNL     1       2.042   2.784   0.792  0.00  0.00    +0.029 C 
ATOM     24  C   UNL     1       3.470   0.841   0.952  0.00  0.00    -0.000 C 
ATOM     25  C   UNL     1       3.233   2.191   1.211  0.00  0.00    +0.002 C 
ENDBRANCH   6  20
TORSDOF 1
