REMARK  Name = 3562
REMARK  1 active torsions:
REMARK  status: ('A' for Active; 'I' for Inactive)
REMARK    1  A    between atoms: C_4  and  C_7
REMARK                            x       y       z     vdW  Elec       q    Type
REMARK                         _______ _______ _______ _____ _____    ______ ____
ROOT
ATOM      1  F   UNL     1      -1.442   0.983   0.438  0.00  0.00    -0.168 F 
ATOM      2  F   UNL     1      -0.715  -0.052  -1.340  0.00  0.00    -0.168 F 
ATOM      3  F   UNL     1      -1.239  -1.182   0.454  0.00  0.00    -0.168 F 
ATOM      4  C   UNL     1      -0.666  -0.040   0.010  0.00  0.00    +0.421 C 
ENDROOT
BRANCH   4   7
ATOM      5 BR   UNL     1       1.825  -1.412  -0.043  0.00  0.00    -0.055 Br
ATOM      6 CL   UNL     1       1.493   1.601  -0.049  0.00  0.00    -0.093 Cl
ATOM      7  C   UNL     1       0.744   0.102   0.530  0.00  0.00    +0.230 C 
ENDBRANCH   4   7
TORSDOF 1
