REMARK  Name = 3657
REMARK  1 active torsions:
REMARK  status: ('A' for Active; 'I' for Inactive)
REMARK    1  A    between atoms: N_2  and  O_8
REMARK                            x       y       z     vdW  Elec       q    Type
REMARK                         _______ _______ _______ _____ _____    ______ ____
ROOT
ATOM      1  O   UNL     1      -0.485  -1.304   0.000  0.00  0.00    -0.251 OA
ATOM      2  N   UNL     1       0.676   0.695   0.003  0.00  0.00    -0.181 N 
ATOM      3  N   UNL     1      -1.613   0.694  -0.003  0.00  0.00    -0.312 N 
ATOM      4  C   UNL     1      -0.465  -0.074   0.003  0.00  0.00    +0.320 C 
ATOM      5  H   UNL     1       0.643   1.679   0.006  0.00  0.00    +0.184 HD
ATOM      6  H   UNL     1      -2.497   0.259  -0.003  0.00  0.00    +0.147 HD
ATOM      7  H   UNL     1      -1.549   1.676  -0.007  0.00  0.00    +0.147 HD
ENDROOT
BRANCH   2   8
ATOM      8  O   UNL     1       1.888  -0.009  -0.003  0.00  0.00    -0.294 OA
ATOM      9  H   UNL     1       2.627   0.619  -0.003  0.00  0.00    +0.241 HD
ENDBRANCH   2   8
TORSDOF 1
