REMARK  Name = 8612
REMARK  8 active torsions:
REMARK  status: ('A' for Active; 'I' for Inactive)
REMARK    1  A    between atoms: C_2  and  C_4
REMARK    2  A    between atoms: C_2  and  O_13
REMARK    3  A    between atoms: C_7  and  N_10
REMARK    4  A    between atoms: O_13  and  C_14
REMARK    5  A    between atoms: C_14  and  C_15
REMARK    6  A    between atoms: C_15  and  N_16
REMARK    7  A    between atoms: N_16  and  C_18
REMARK    8  A    between atoms: N_16  and  C_20
REMARK                            x       y       z     vdW  Elec       q    Type
REMARK                         _______ _______ _______ _____ _____    ______ ____
ROOT
ATOM      1  O   UNL     1       0.450  -1.735  -1.384  0.00  0.00    -0.245 OA
ATOM      2  C   UNL     1       0.620  -0.736  -0.703  0.00  0.00    +0.342 C 
ENDROOT
BRANCH   2   4
ATOM      3 CL   UNL     1       2.489  -2.584   0.895  0.00  0.00    -0.082 Cl
ATOM      4  C   UNL     1       1.963  -0.212  -0.346  0.00  0.00    +0.086 C 
ATOM      5  C   UNL     1       2.859  -0.981   0.370  0.00  0.00    +0.065 C 
ATOM      6  C   UNL     1       2.268   1.071  -0.762  0.00  0.00    +0.009 C 
ATOM      7  C   UNL     1       4.439   0.844   0.273  0.00  0.00    +0.042 C 
ATOM      8  C   UNL     1       4.109  -0.448   0.683  0.00  0.00    +0.026 C 
ATOM      9  C   UNL     1       3.519   1.603  -0.449  0.00  0.00    +0.014 C 
BRANCH   7  10
ATOM     10  N   UNL     1       5.704   1.383   0.590  0.00  0.00    -0.357 N 
ATOM     11  H   UNL     1       6.354   0.848   1.100  0.00  0.00    +0.142 HD
ATOM     12  H   UNL     1       5.936   2.295   0.301  0.00  0.00    +0.142 HD
ENDBRANCH   7  10
ENDBRANCH   2   4
BRANCH   2  13
ATOM     13  O   UNL     1      -0.360   0.044  -0.168  0.00  0.00    -0.448 OA
BRANCH  13  14
ATOM     14  C   UNL     1      -1.696  -0.359  -0.440  0.00  0.00    +0.186 C 
BRANCH  14  15
ATOM     15  C   UNL     1      -2.647   0.620   0.231  0.00  0.00    -0.029 C 
BRANCH  15  16
ATOM     16  N   UNL     1      -4.038   0.254  -0.037  0.00  0.00    +0.389 N 
ATOM     17  H   UNL     1      -4.186   0.264  -1.047  0.00  0.00    -0.080 HD
BRANCH  16  18
ATOM     18  C   UNL     1      -4.948   1.222   0.574  0.00  0.00    -0.077 C 
ATOM     19  C   UNL     1      -4.679   2.627   0.077  0.00  0.00    -0.025 C 
ENDBRANCH  16  18
BRANCH  16  20
ATOM     20  C   UNL     1      -4.317  -1.093   0.458  0.00  0.00    -0.077 C 
ATOM     21  C   UNL     1      -5.734  -1.520   0.138  0.00  0.00    -0.025 C 
ENDBRANCH  16  20
ENDBRANCH  15  16
ENDBRANCH  14  15
ENDBRANCH  13  14
ENDBRANCH   2  13
TORSDOF 8
