REMARK  Name = 1522
REMARK  3 active torsions:
REMARK  status: ('A' for Active; 'I' for Inactive)
REMARK    1  A    between atoms: N_14  and  C_16
REMARK    2  A    between atoms: C_16  and  C_17
REMARK    3  A    between atoms: C_17  and  O_18
REMARK                            x       y       z     vdW  Elec       q    Type
REMARK                         _______ _______ _______ _____ _____    ______ ____
ROOT
ATOM      1  N   UNL     1      -2.019   0.275   0.030  0.00  0.00    -0.223 N 
ATOM      2  N   UNL     1      -0.346  -1.214  -0.130  0.00  0.00    -0.381 NA
ATOM      3  N   UNL     1      -0.706   2.330   0.117  0.00  0.00    -0.226 NA
ATOM      4  N   UNL     1       1.686   1.871  -0.002  0.00  0.00    -0.227 NA
ATOM      5  C   UNL     1       0.165   0.057  -0.065  0.00  0.00    +0.196 C 
ATOM      6  C   UNL     1      -0.850   0.996   0.034  0.00  0.00    +0.171 C 
ATOM      7  C   UNL     1      -1.655  -1.069  -0.072  0.00  0.00    +0.192 C 
ATOM      8  C   UNL     1       1.471   0.536  -0.082  0.00  0.00    +0.159 C 
ATOM      9  C   UNL     1      -3.340   0.709   0.108  0.00  0.00    +0.073 C 
ATOM     10  C   UNL     1      -2.713  -2.025  -0.096  0.00  0.00    +0.048 C 
ATOM     11  C   UNL     1      -4.329  -0.200   0.086  0.00  0.00    +0.017 C 
ATOM     12  C   UNL     1      -3.992  -1.610  -0.021  0.00  0.00    +0.005 C 
ATOM     13  C   UNL     1       0.599   2.673   0.091  0.00  0.00    +0.253 C 
ATOM     14  N   UNL     1       2.558  -0.349  -0.181  0.00  0.00    -0.314 N 
ATOM     15  H   UNL     1       2.374  -1.314  -0.238  0.00  0.00    +0.148 HD
ENDROOT
BRANCH  14  16
ATOM     16  C   UNL     1       3.923   0.088  -0.203  0.00  0.00    +0.120 C 
BRANCH  16  17
ATOM     17  C   UNL     1       4.863  -1.096  -0.360  0.00  0.00    +0.158 C 
BRANCH  17  18
ATOM     18  O   UNL     1       4.684  -1.972   0.745  0.00  0.00    -0.380 OA
ATOM     19  H   UNL     1       5.280  -2.732   0.655  0.00  0.00    +0.211 HD
ENDBRANCH  17  18
ENDBRANCH  16  17
ENDBRANCH  14  16
TORSDOF 3
