REMARK  Name = 40467053
REMARK  4 active torsions:
REMARK  status: ('A' for Active; 'I' for Inactive)
REMARK    1  A    between atoms: CA_6  and  C_23
REMARK    2  A    between atoms: CA_7  and  N_11
REMARK    3  A    between atoms: N_11  and  C_13
REMARK    4  A    between atoms: N_12  and  C_13
REMARK                            x       y       z     vdW  Elec       q    Type
REMARK                         _______ _______ _______ _____ _____    ______ ____
ROOT
ATOM      1  S   UNL     1      -0.577   0.928   0.857  0.00  0.00    -0.119 S 
ATOM      2  O   UNL     1      -1.815  -2.529  -1.533  0.00  0.00    -0.273 OA
ATOM      3  N   UNL     1      -2.244  -0.981   0.193  0.00  0.00    -0.260 N 
ATOM      4  C   UNL     1      -1.192  -0.765   1.186  0.00  0.00    +0.147 C 
ATOM      5  C   UNL     1      -1.817   1.268  -0.490  0.00  0.00    +0.068 C 
ATOM      6  CA  UNL     1      -2.910   0.177  -0.369  0.00  0.00    +0.189 C 
ATOM      7  CA  UNL     1      -0.416  -1.908   0.511  0.00  0.00    +0.162 C 
ATOM      8  C   UNL     1      -1.588  -1.962  -0.489  0.00  0.00    +0.244 C 
ATOM      9  C   UNL     1      -2.341   2.699  -0.329  0.00  0.00    +0.013 C 
ATOM     10  C   UNL     1      -1.077   1.160  -1.834  0.00  0.00    +0.013 C 
ENDROOT
BRANCH   6  13
ATOM     11  O   UNL     1      -3.774   0.919   1.692  0.00  0.00    -0.244 OA
ATOM     12  OXT UNL     1      -5.212   0.506  -0.039  0.00  0.00    -0.244 OA
ATOM     13  C   UNL     1      -4.080   0.574   0.517  0.00  0.00    +0.383 C 
ENDBRANCH   6  13
BRANCH   7  14
ATOM     14  N   UNL     1       0.862  -1.531  -0.068  0.00  0.00    -0.275 NA
ATOM     15  H   UNL     1       0.943  -1.484  -1.048  0.00  0.00    +0.125 HD
BRANCH  14  16
ATOM     16  C   UNL     1       1.931  -1.244   0.681  0.00  0.00    +0.146 C 
BRANCH  16  17
ATOM     17  N   UNL     1       3.144  -0.889   0.277  0.00  0.00    -0.259 NA
ATOM     18  C   UNL     1       4.218  -0.607   1.245  0.00  0.00    +0.073 C 
ATOM     19  C   UNL     1       3.459  -0.775  -1.155  0.00  0.00    +0.073 C 
ATOM     20  C   UNL     1       4.373   0.896   1.431  0.00  0.00    +0.017 C 
ATOM     21  C   UNL     1       3.078   0.603  -1.674  0.00  0.00    +0.017 C 
ATOM     22  C   UNL     1       4.614   1.673   0.131  0.00  0.00    +0.001 C 
ATOM     23  C   UNL     1       3.365   1.787  -0.745  0.00  0.00    +0.001 C 
ENDBRANCH  16  17
ENDBRANCH  14  16
ENDBRANCH   7  14
TORSDOF 4
