REMARK  Name = 96
REMARK  3 active torsions:
REMARK  status: ('A' for Active; 'I' for Inactive)
REMARK    1  A    between atoms: C_1  and  C_3
REMARK    2  A    between atoms: C_1  and  C_6
REMARK    3  A    between atoms: C_6  and  O_7
REMARK                            x       y       z     vdW  Elec       q    Type
REMARK                         _______ _______ _______ _____ _____    ______ ____
ROOT
ATOM      1  C   UNL     1       0.000   0.802  -0.204  0.00  0.00    +0.174 C 
ENDROOT
BRANCH   1   3
ATOM      2  O   UNL     1      -1.211  -1.209   0.338  0.00  0.00    -0.295 OA
ATOM      3  C   UNL     1      -1.249  -0.017   0.036  0.00  0.00    +0.162 C 
ATOM      4  C   UNL     1      -2.560   0.712  -0.096  0.00  0.00    +0.073 C 
ENDBRANCH   1   3
BRANCH   1   6
ATOM      5  O   UNL     1       1.409  -1.154  -0.322  0.00  0.00    -0.250 OA
ATOM      6  C   UNL     1       1.292   0.041  -0.082  0.00  0.00    +0.321 C 
BRANCH   6   7
ATOM      7  O   UNL     1       2.320   0.824   0.331  0.00  0.00    -0.480 OA
ATOM      8  H   UNL     1       2.176   1.734   0.501  0.00  0.00    +0.295 HD
ENDBRANCH   6   7
ENDBRANCH   1   6
TORSDOF 3
