REMARK  Name = 1944
REMARK  8 active torsions:
REMARK  status: ('A' for Active; 'I' for Inactive)
REMARK    1  A    between atoms: C_1  and  S_21
REMARK    2  A    between atoms: C_4  and  N_10
REMARK    3  A    between atoms: C_11  and  C_13
REMARK    4  A    between atoms: C_13  and  C_14
REMARK    5  A    between atoms: S_21  and  N_24
REMARK    6  A    between atoms: N_24  and  C_26
REMARK    7  A    between atoms: C_26  and  C_28
REMARK    8  A    between atoms: C_28  and  O_29
REMARK                            x       y       z     vdW  Elec       q    Type
REMARK                         _______ _______ _______ _____ _____    ______ ____
ROOT
ATOM      1  C   UNL     1       2.543  -1.088  -0.176  0.00  0.00    +0.114 C 
ATOM      2  C   UNL     1       1.595  -0.486  -1.004  0.00  0.00    -0.002 C 
ATOM      3  C   UNL     1       2.151  -1.652   1.038  0.00  0.00    -0.002 C 
ATOM      4  C   UNL     1      -0.117  -1.012   0.591  0.00  0.00    +0.050 C 
ATOM      5  C   UNL     1       0.256  -0.448  -0.617  0.00  0.00    +0.012 C 
ATOM      6  C   UNL     1       0.812  -1.614   1.425  0.00  0.00    +0.012 C 
ATOM      7  C   UNL     1       1.978   0.127  -2.312  0.00  0.00    +0.032 C 
ATOM      8  C   UNL     1       3.138  -2.304   1.951  0.00  0.00    +0.032 C 
ENDROOT
BRANCH   4  10
ATOM      9  O   UNL     1      -2.509   0.146  -0.803  0.00  0.00    -0.274 OA
ATOM     10  N   UNL     1      -1.476  -0.974   0.984  0.00  0.00    -0.284 N 
ATOM     11  C   UNL     1      -2.546  -0.418   0.286  0.00  0.00    +0.231 C 
ATOM     12  H   UNL     1      -1.691  -1.388   1.850  0.00  0.00    +0.155 HD
BRANCH  11  13
ATOM     13  C   UNL     1      -3.849  -0.590   1.061  0.00  0.00    +0.111 C 
BRANCH  13  14
ATOM     14  C   UNL     1      -5.052  -0.076   0.341  0.00  0.00    -0.017 C 
ATOM     15  C   UNL     1      -5.474   1.245   0.499  0.00  0.00    -0.025 C 
ATOM     16  C   UNL     1      -5.758  -0.938  -0.498  0.00  0.00    -0.004 C 
ATOM     17  C   UNL     1      -6.602   1.703  -0.182  0.00  0.00    -0.005 C 
ATOM     18  C   UNL     1      -4.733   2.186   1.392  0.00  0.00    +0.031 C 
ATOM     19  C   UNL     1      -6.886  -0.479  -1.179  0.00  0.00    -0.000 C 
ATOM     20  C   UNL     1      -7.308   0.841  -1.020  0.00  0.00    -0.000 C 
ENDBRANCH  13  14
ENDBRANCH  11  13
ENDBRANCH   4  10
BRANCH   1  21
ATOM     21  S   UNL     1       4.229  -1.136  -0.662  0.00  0.00    +0.060 S 
ATOM     22  O   UNL     1       5.006  -1.704   0.428  0.00  0.00    -0.153 OA
ATOM     23  O   UNL     1       4.285  -1.747  -1.981  0.00  0.00    -0.153 OA
BRANCH  21  24
ATOM     24  N   UNL     1       4.609   0.522  -0.806  0.00  0.00    -0.168 NA
ATOM     25  H   UNL     1       4.000   0.902  -1.532  0.00  0.00    +0.149 HD
BRANCH  24  26
ATOM     26  C   UNL     1       4.484   1.409   0.359  0.00  0.00    +0.200 C 
BRANCH  26  28
ATOM     27  O   UNL     1       6.298   2.657  -0.673  0.00  0.00    -0.249 OA
ATOM     28  C   UNL     1       5.502   2.502   0.241  0.00  0.00    +0.332 C 
BRANCH  28  29
ATOM     29  O   UNL     1       5.424   3.326   1.318  0.00  0.00    -0.479 OA
ATOM     30  H   UNL     1       4.794   3.159   1.991  0.00  0.00    +0.295 HD
ENDBRANCH  28  29
ENDBRANCH  26  28
ENDBRANCH  24  26
ENDBRANCH  21  24
ENDBRANCH   1  21
TORSDOF 8
