REMARK  Name = 5359929
REMARK  2 active torsions:
REMARK  status: ('A' for Active; 'I' for Inactive)
REMARK    1  A    between atoms: C_13  and  O_21
REMARK    2  A    between atoms: C_19  and  O_23
REMARK                            x       y       z     vdW  Elec       q    Type
REMARK                         _______ _______ _______ _____ _____    ______ ____
ROOT
ATOM      1  O   UNL     1       1.816   0.770   1.259  0.00  0.00    -0.473 OA
ATOM      2  O   UNL     1      -3.989  -1.604  -0.022  0.00  0.00    -0.290 OA
ATOM      3  N   UNL     1      -3.255  -0.478   0.297  0.00  0.00    +0.431 N 
ATOM      4  C   UNL     1      -0.531   0.690   0.607  0.00  0.00    +0.061 C 
ATOM      5  C   UNL     1      -1.463   1.141  -0.527  0.00  0.00    +0.016 C 
ATOM      6  C   UNL     1      -2.344  -0.091  -0.894  0.00  0.00    -0.005 C 
ATOM      7  C   UNL     1       0.652   1.621   0.970  0.00  0.00    +0.200 C 
ATOM      8  C   UNL     1      -1.359   0.281   1.843  0.00  0.00    -0.009 C 
ATOM      9  C   UNL     1       0.275  -0.469   0.120  0.00  0.00    +0.014 C 
ATOM     10  C   UNL     1      -2.424  -0.774   1.532  0.00  0.00    -0.027 C 
ATOM     11  C   UNL     1      -1.500  -1.309  -1.408  0.00  0.00    +0.011 C 
ATOM     12  C   UNL     1      -0.148  -1.447  -0.761  0.00  0.00    -0.025 C 
ATOM     13  C   UNL     1       0.994   2.679  -0.113  0.00  0.00    +0.172 C 
ATOM     14  C   UNL     1      -0.692   1.721  -1.685  0.00  0.00    -0.030 C 
ATOM     15  C   UNL     1       1.572  -0.390   0.575  0.00  0.00    +0.168 C 
ATOM     16  C   UNL     1       0.444   2.408  -1.488  0.00  0.00    +0.002 C 
ATOM     17  C   UNL     1      -4.259   0.605   0.596  0.00  0.00    -0.045 C 
ATOM     18  C   UNL     1       0.765  -2.453  -1.082  0.00  0.00    -0.001 C 
ATOM     19  C   UNL     1       2.489  -1.375   0.279  0.00  0.00    +0.172 C 
ATOM     20  C   UNL     1       2.069  -2.425  -0.547  0.00  0.00    +0.040 C 
ENDROOT
BRANCH  13  21
ATOM     21  O   UNL     1       2.402   2.873  -0.203  0.00  0.00    -0.377 OA
ATOM     22  H   UNL     1       2.762   3.047   0.680  0.00  0.00    +0.211 HD
ENDBRANCH  13  21
BRANCH  19  23
ATOM     23  O   UNL     1       3.763  -1.319   0.737  0.00  0.00    -0.468 OA
ATOM     24  C   UNL     1       4.726  -0.656  -0.085  0.00  0.00    +0.253 C 
ENDBRANCH  19  23
TORSDOF 2
