REMARK  Name = 3356
REMARK  9 active torsions:
REMARK  status: ('A' for Active; 'I' for Inactive)
REMARK    1  A    between atoms: C_1  and  C_9
REMARK    2  A    between atoms: C_2  and  O_20
REMARK    3  A    between atoms: C_4  and  O_26
REMARK    4  A    between atoms: N_8  and  C_11
REMARK    5  A    between atoms: C_11  and  C_13
REMARK    6  A    between atoms: O_20  and  C_21
REMARK    7  A    between atoms: C_21  and  C_25
REMARK    8  A    between atoms: O_26  and  C_27
REMARK    9  A    between atoms: C_27  and  C_31
REMARK                            x       y       z     vdW  Elec       q    Type
REMARK                         _______ _______ _______ _____ _____    ______ ____
ROOT
ATOM      1  C   UNL     1      -0.712  -0.610   0.902  0.00  0.00    +0.090 C 
ATOM      2  C   UNL     1      -0.470  -1.912   0.464  0.00  0.00    +0.143 C 
ATOM      3  C   UNL     1      -2.001  -0.081   0.840  0.00  0.00    +0.044 C 
ATOM      4  C   UNL     1      -3.049  -0.855   0.340  0.00  0.00    +0.139 C 
ATOM      5  C   UNL     1      -1.517  -2.685  -0.036  0.00  0.00    +0.040 C 
ATOM      6  C   UNL     1      -2.806  -2.157  -0.099  0.00  0.00    +0.040 C 
ENDROOT
BRANCH   1   9
ATOM      7  O   UNL     1       1.020  -0.162   2.418  0.00  0.00    -0.270 OA
ATOM      8  N   UNL     1       0.645   1.421   0.763  0.00  0.00    -0.303 N 
ATOM      9  C   UNL     1       0.389   0.230   1.440  0.00  0.00    +0.249 C 
ATOM     10  H   UNL     1       0.084   1.651  -0.013  0.00  0.00    +0.150 HD
BRANCH   8  11
ATOM     11  C   UNL     1       1.688   2.323   1.145  0.00  0.00    +0.068 C 
BRANCH  11  13
ATOM     12  N   UNL     1       4.045   2.905   0.886  0.00  0.00    +0.386 N 
ATOM     13  C   UNL     1       2.995   1.984   0.431  0.00  0.00    -0.042 C 
ATOM     14  C   UNL     1       2.816   2.072  -1.091  0.00  0.00    -0.020 C 
ATOM     15  C   UNL     1       4.133   1.814  -1.819  0.00  0.00    -0.004 C 
ATOM     16  C   UNL     1       5.232   2.720  -1.274  0.00  0.00    -0.023 C 
ATOM     17  C   UNL     1       5.329   2.618   0.246  0.00  0.00    -0.082 C 
ATOM     18  H   UNL     1       4.150   2.813   1.896  0.00  0.00    -0.084 HD
ATOM     19  H   UNL     1       3.767   3.853   0.632  0.00  0.00    -0.084 HD
ENDBRANCH  11  13
ENDBRANCH   8  11
ENDBRANCH   1   9
BRANCH   2  20
ATOM     20  O   UNL     1       0.783  -2.446   0.518  0.00  0.00    -0.466 OA
BRANCH  20  21
ATOM     21  C   UNL     1       1.362  -2.864  -0.717  0.00  0.00    +0.308 C 
BRANCH  21  25
ATOM     22  F   UNL     1       3.212  -1.454  -0.375  0.00  0.00    -0.166 F 
ATOM     23  F   UNL     1       3.454  -3.103  -1.781  0.00  0.00    -0.166 F 
ATOM     24  F   UNL     1       3.360  -3.499   0.366  0.00  0.00    -0.166 F 
ATOM     25  C   UNL     1       2.860  -2.733  -0.627  0.00  0.00    +0.438 C 
ENDBRANCH  21  25
ENDBRANCH  20  21
ENDBRANCH   2  20
BRANCH   4  26
ATOM     26  O   UNL     1      -4.307  -0.339   0.277  0.00  0.00    -0.467 OA
BRANCH  26  27
ATOM     27  C   UNL     1      -4.422   1.071   0.091  0.00  0.00    +0.308 C 
BRANCH  27  31
ATOM     28  F   UNL     1      -5.712   0.752  -1.848  0.00  0.00    -0.166 F 
ATOM     29  F   UNL     1      -5.849   2.692  -0.860  0.00  0.00    -0.166 F 
ATOM     30  F   UNL     1      -6.777   0.933   0.046  0.00  0.00    -0.166 F 
ATOM     31  C   UNL     1      -5.702   1.367  -0.645  0.00  0.00    +0.438 C 
ENDBRANCH  27  31
ENDBRANCH  26  27
ENDBRANCH   4  26
TORSDOF 9
