REMARK  Name = 3537
REMARK  3 active torsions:
REMARK  status: ('A' for Active; 'I' for Inactive)
REMARK    1  A    between atoms: C_5  and  S_17
REMARK    2  A    between atoms: S_17  and  C_21
REMARK    3  A    between atoms: C_18  and  C_24
REMARK                            x       y       z     vdW  Elec       q    Type
REMARK                         _______ _______ _______ _____ _____    ______ ____
ROOT
ATOM      1  N   UNL     1      -4.194  -0.885   1.012  0.00  0.00    -0.332 NA
ATOM      2  N   UNL     1      -4.085   1.469   0.508  0.00  0.00    -0.313 NA
ATOM      3  N   UNL     1      -2.430   2.369  -0.813  0.00  0.00    -0.332 N 
ATOM      4  N   UNL     1      -5.794   0.608   1.859  0.00  0.00    -0.283 N 
ATOM      5  C   UNL     1      -1.271  -0.288  -1.141  0.00  0.00    +0.035 C 
ATOM      6  C   UNL     1      -2.426  -0.050  -0.376  0.00  0.00    +0.077 C 
ATOM      7  C   UNL     1      -3.089  -1.101   0.278  0.00  0.00    +0.131 C 
ATOM      8  C   UNL     1      -0.768  -1.580  -1.258  0.00  0.00    +0.003 C 
ATOM      9  C   UNL     1      -2.980   1.217  -0.219  0.00  0.00    +0.193 C 
ATOM     10  C   UNL     1      -2.563  -2.384   0.144  0.00  0.00    +0.086 C 
ATOM     11  C   UNL     1      -1.415  -2.629  -0.614  0.00  0.00    -0.018 C 
ATOM     12  C   UNL     1      -4.633   0.388   1.087  0.00  0.00    +0.197 C 
ATOM     13  H   UNL     1      -2.857   3.246  -0.675  0.00  0.00    +0.145 HD
ATOM     14  H   UNL     1      -1.620   2.298  -1.367  0.00  0.00    +0.145 HD
ATOM     15  H   UNL     1      -6.238  -0.148   2.307  0.00  0.00    +0.156 HD
ATOM     16  H   UNL     1      -6.160   1.517   1.950  0.00  0.00    +0.156 HD
ENDROOT
BRANCH   5  17
ATOM     17  S   UNL     1      -0.275   0.906  -2.054  0.00  0.00    -0.087 S 
BRANCH  17  21
ATOM     18  C   UNL     1       3.646   0.185   0.184  0.00  0.00    -0.023 C 
ATOM     19  C   UNL     1       2.517   0.623   0.878  0.00  0.00    -0.004 C 
ATOM     20  C   UNL     1       3.578  -0.033  -1.192  0.00  0.00    -0.004 C 
ATOM     21  C   UNL     1       1.254   0.625  -1.181  0.00  0.00    +0.029 C 
ATOM     22  C   UNL     1       1.321   0.843   0.195  0.00  0.00    +0.006 C 
ATOM     23  C   UNL     1       2.381   0.187  -1.875  0.00  0.00    +0.006 C 
BRANCH  18  24
ATOM     24  C   UNL     1       4.925  -0.050   0.914  0.00  0.00    +0.019 C 
ATOM     25  C   UNL     1       4.754  -1.137   2.021  0.00  0.00    +0.004 C 
ATOM     26  C   UNL     1       5.427   1.253   1.609  0.00  0.00    +0.004 C 
ATOM     27  C   UNL     1       6.121  -0.539   0.032  0.00  0.00    +0.004 C 
ENDBRANCH  18  24
ENDBRANCH  17  21
ENDBRANCH   5  17
TORSDOF 3
