REMARK  Name = 4369359
REMARK  6 active torsions:
REMARK  status: ('A' for Active; 'I' for Inactive)
REMARK    1  A    between atoms: C_1  and  C_11
REMARK    2  A    between atoms: C_1  and  C_17
REMARK    3  A    between atoms: C_12  and  C_16
REMARK    4  A    between atoms: C_17  and  N_18
REMARK    5  A    between atoms: C_17  and  C_22
REMARK    6  A    between atoms: C_22  and  C_26
REMARK                            x       y       z     vdW  Elec       q    Type
REMARK                         _______ _______ _______ _____ _____    ______ ____
ROOT
ATOM      1  C   UNL     1      -0.575   1.289  -0.988  0.00  0.00    +0.064 C 
ENDROOT
BRANCH   1  11
ATOM      2  O   UNL     1      -0.406  -1.070  -1.154  0.00  0.00    -0.275 OA
ATOM      3  N   UNL     1       1.361   0.029  -0.113  0.00  0.00    -0.271 N 
ATOM      4  N   UNL     1       4.128  -0.002   0.136  0.00  0.00    -0.292 N 
ATOM      5  N   UNL     1       4.361   2.106   0.641  0.00  0.00    -0.132 NA
ATOM      6  N   UNL     1       5.615   1.525   0.563  0.00  0.00    -0.125 NA
ATOM      7  C   UNL     1       2.025  -1.223   0.281  0.00  0.00    +0.118 C 
ATOM      8  C   UNL     1       3.471  -1.243  -0.201  0.00  0.00    +0.130 C 
ATOM      9  C   UNL     1       1.989   1.281   0.352  0.00  0.00    +0.160 C 
ATOM     10  C   UNL     1       3.470   1.171   0.379  0.00  0.00    +0.164 A 
ATOM     11  C   UNL     1       0.125  -0.028  -0.762  0.00  0.00    +0.224 C 
ATOM     12  C   UNL     1       5.451   0.257   0.258  0.00  0.00    +0.238 A 
BRANCH  12  16
ATOM     13  F   UNL     1       7.768  -0.256   0.227  0.00  0.00    -0.163 F 
ATOM     14  F   UNL     1       6.415  -1.808   0.924  0.00  0.00    -0.163 F 
ATOM     15  F   UNL     1       6.477  -1.292  -1.193  0.00  0.00    -0.163 F 
ATOM     16  C   UNL     1       6.506  -0.753   0.061  0.00  0.00    +0.452 C 
ENDBRANCH  12  16
ENDBRANCH   1  11
BRANCH   1  17
ATOM     17  C   UNL     1      -2.096   1.131  -0.978  0.00  0.00    -0.052 C 
BRANCH  17  18
ATOM     18  N   UNL     1      -2.671   2.448  -1.283  0.00  0.00    +0.382 N 
ATOM     19  H   UNL     1      -2.312   2.776  -2.180  0.00  0.00    -0.089 HD
ATOM     20  H   UNL     1      -2.413   3.109  -0.551  0.00  0.00    -0.089 HD
ATOM     21  H   UNL     1      -3.687   2.372  -1.331  0.00  0.00    -0.089 HD
ENDBRANCH  17  18
BRANCH  17  22
ATOM     22  C   UNL     1      -2.655   0.658   0.382  0.00  0.00    +0.007 C 
BRANCH  22  26
ATOM     23  F   UNL     1      -3.247  -2.065  -0.083  0.00  0.00    -0.204 F 
ATOM     24  F   UNL     1      -7.466   1.336   0.652  0.00  0.00    -0.202 F 
ATOM     25  F   UNL     1      -7.911  -1.322   0.194  0.00  0.00    -0.202 F 
ATOM     26  C   UNL     1      -4.065   0.124   0.330  0.00  0.00    +0.006 C 
ATOM     27  C   UNL     1      -4.276  -1.226   0.097  0.00  0.00    +0.138 C 
ATOM     28  C   UNL     1      -5.126   0.996   0.518  0.00  0.00    +0.030 C 
ATOM     29  C   UNL     1      -6.431   0.505   0.471  0.00  0.00    +0.167 C 
ATOM     30  C   UNL     1      -5.581  -1.716   0.050  0.00  0.00    +0.061 C 
ATOM     31  C   UNL     1      -6.658  -0.851   0.237  0.00  0.00    +0.170 C 
ENDBRANCH  22  26
ENDBRANCH  17  22
ENDBRANCH   1  17
TORSDOF 6
