REMARK  Name = 4449
REMARK  10 active torsions:
REMARK  status: ('A' for Active; 'I' for Inactive)
REMARK    1  A    between atoms: N_2  and  C_9
REMARK    2  A    between atoms: N_3  and  C_26
REMARK    3  A    between atoms: C_6  and  C_7
REMARK    4  A    between atoms: C_9  and  C_10
REMARK    5  A    between atoms: C_10  and  C_11
REMARK    6  A    between atoms: C_11  and  N_12
REMARK    7  A    between atoms: N_13  and  C_20
REMARK    8  A    between atoms: C_26  and  C_27
REMARK    9  A    between atoms: C_27  and  O_28
REMARK   10  A    between atoms: O_28  and  C_29
REMARK                            x       y       z     vdW  Elec       q    Type
REMARK                         _______ _______ _______ _____ _____    ______ ____
ROOT
ATOM      1  O   UNL     1       4.081  -0.433   2.191  0.00  0.00    -0.245 OA
ATOM      2  N   UNL     1       3.425  -1.978   0.540  0.00  0.00    -0.201 N 
ATOM      3  N   UNL     1       4.475  -0.144  -0.100  0.00  0.00    -0.263 N 
ATOM      4  N   UNL     1       3.535  -2.038  -0.824  0.00  0.00    -0.152 NA
ATOM      5  C   UNL     1       4.007  -0.797   1.026  0.00  0.00    +0.348 A 
ATOM      6  C   UNL     1       4.154  -0.939  -1.143  0.00  0.00    +0.144 A 
ENDROOT
BRANCH   6   7
ATOM      7  C   UNL     1       4.504  -0.566  -2.544  0.00  0.00    +0.066 C 
ATOM      8  C   UNL     1       5.875  -1.097  -2.909  0.00  0.00    +0.008 C 
ENDBRANCH   6   7
BRANCH   2   9
ATOM      9  C   UNL     1       2.788  -3.025   1.291  0.00  0.00    +0.130 C 
BRANCH   9  10
ATOM     10  C   UNL     1       1.289  -2.788   1.469  0.00  0.00    +0.004 C 
BRANCH  10  11
ATOM     11  C   UNL     1       0.508  -2.664   0.157  0.00  0.00    -0.075 C 
BRANCH  11  12
ATOM     12  N   UNL     1      -0.916  -2.425   0.389  0.00  0.00    +0.389 N 
ATOM     13  N   UNL     1      -3.465  -1.219  -0.063  0.00  0.00    -0.312 N 
ATOM     14  C   UNL     1      -1.696  -2.763  -0.807  0.00  0.00    -0.055 C 
ATOM     15  C   UNL     1      -1.150  -1.024   0.759  0.00  0.00    -0.055 C 
ATOM     16  C   UNL     1      -3.195  -2.571  -0.559  0.00  0.00    +0.068 C 
ATOM     17  C   UNL     1      -2.630  -0.775   1.060  0.00  0.00    +0.068 C 
ATOM     18  H   UNL     1      -1.217  -3.024   1.158  0.00  0.00    -0.080 HD
BRANCH  13  20
ATOM     19 CL   UNL     1      -6.420   2.927  -0.618  0.00  0.00    -0.082 Cl
ATOM     20  C   UNL     1      -4.753  -0.682  -0.176  0.00  0.00    +0.049 C 
ATOM     21  C   UNL     1      -4.924   0.694  -0.322  0.00  0.00    +0.026 C 
ATOM     22  C   UNL     1      -5.864  -1.525  -0.148  0.00  0.00    +0.015 C 
ATOM     23  C   UNL     1      -6.207   1.228  -0.439  0.00  0.00    +0.059 C 
ATOM     24  C   UNL     1      -7.147  -0.991  -0.265  0.00  0.00    +0.002 C 
ATOM     25  C   UNL     1      -7.319   0.386  -0.411  0.00  0.00    +0.011 C 
ENDBRANCH  13  20
ENDBRANCH  11  12
ENDBRANCH  10  11
ENDBRANCH   9  10
ENDBRANCH   2   9
BRANCH   3  26
ATOM     26  C   UNL     1       5.164   1.132  -0.120  0.00  0.00    +0.159 C 
BRANCH  26  27
ATOM     27  C   UNL     1       4.191   2.289  -0.256  0.00  0.00    +0.230 C 
BRANCH  27  28
ATOM     28  O   UNL     1       3.269   2.260   0.826  0.00  0.00    -0.473 OA
BRANCH  28  29
ATOM     29  C   UNL     1       2.014   2.753   0.582  0.00  0.00    +0.139 C 
ATOM     30  C   UNL     1       1.834   3.767  -0.359  0.00  0.00    +0.037 C 
ATOM     31  C   UNL     1       0.917   2.241   1.273  0.00  0.00    +0.037 C 
ATOM     32  C   UNL     1       0.557   4.269  -0.608  0.00  0.00    +0.003 C 
ATOM     33  C   UNL     1      -0.361   2.742   1.024  0.00  0.00    +0.003 C 
ATOM     34  C   UNL     1      -0.541   3.756   0.084  0.00  0.00    +0.000 C 
ENDBRANCH  28  29
ENDBRANCH  27  28
ENDBRANCH  26  27
ENDBRANCH   3  26
TORSDOF 10
