REMARK  Name = 3333
REMARK  6 active torsions:
REMARK  status: ('A' for Active; 'I' for Inactive)
REMARK    1  A    between atoms: C_2  and  C_12
REMARK    2  A    between atoms: C_3  and  C_19
REMARK    3  A    between atoms: C_4  and  C_24
REMARK    4  A    between atoms: C_19  and  O_20
REMARK    5  A    between atoms: O_20  and  C_21
REMARK    6  A    between atoms: C_24  and  O_25
REMARK                            x       y       z     vdW  Elec       q    Type
REMARK                         _______ _______ _______ _____ _____    ______ ____
ROOT
ATOM      1  N   UNL     1      -1.506   2.553  -0.899  0.00  0.00    -0.334 N 
ATOM      2  C   UNL     1      -0.488   0.273   0.440  0.00  0.00    +0.012 C 
ATOM      3  C   UNL     1       0.273   1.600   0.339  0.00  0.00    +0.071 C 
ATOM      4  C   UNL     1      -1.914   0.359  -0.112  0.00  0.00    +0.085 C 
ATOM      5  C   UNL     1      -0.249   2.658  -0.324  0.00  0.00    +0.098 C 
ATOM      6  C   UNL     1      -2.346   1.460  -0.768  0.00  0.00    +0.028 C 
ATOM      7  C   UNL     1       0.428   3.988  -0.515  0.00  0.00    +0.026 C 
ATOM      8  C   UNL     1      -3.706   1.626  -1.391  0.00  0.00    +0.047 C 
ATOM      9  H   UNL     1      -1.824   3.312  -1.439  0.00  0.00    +0.147 HD
ENDROOT
BRANCH   2  12
ATOM     10 CL   UNL     1       0.500  -2.072   2.107  0.00  0.00    -0.081 Cl
ATOM     11 CL   UNL     1       2.109  -4.314   0.461  0.00  0.00    -0.081 Cl
ATOM     12  C   UNL     1       0.272  -0.808  -0.273  0.00  0.00    +0.012 C 
ATOM     13  C   UNL     1       0.766  -1.922   0.400  0.00  0.00    +0.068 C 
ATOM     14  C   UNL     1       0.472  -0.665  -1.643  0.00  0.00    +0.001 C 
ATOM     15  C   UNL     1       1.466  -2.902  -0.305  0.00  0.00    +0.068 C 
ATOM     16  C   UNL     1       1.173  -1.644  -2.346  0.00  0.00    +0.001 C 
ATOM     17  C   UNL     1       1.670  -2.763  -1.678  0.00  0.00    +0.012 C 
ENDBRANCH   2  12
BRANCH   3  19
ATOM     18  O   UNL     1       1.658   2.003   2.219  0.00  0.00    -0.245 OA
ATOM     19  C   UNL     1       1.559   1.678   1.050  0.00  0.00    +0.339 C 
BRANCH  19  20
ATOM     20  O   UNL     1       2.546   1.334   0.189  0.00  0.00    -0.446 OA
BRANCH  20  21
ATOM     21  C   UNL     1       3.868   1.361   0.738  0.00  0.00    +0.209 C 
ATOM     22  C   UNL     1       4.856   0.956  -0.335  0.00  0.00    +0.051 C 
ENDBRANCH  20  21
ENDBRANCH  19  20
ENDBRANCH   3  19
BRANCH   4  24
ATOM     23  O   UNL     1      -2.915  -1.731  -0.609  0.00  0.00    -0.245 OA
ATOM     24  C   UNL     1      -2.794  -0.791   0.154  0.00  0.00    +0.342 C 
BRANCH  24  25
ATOM     25  O   UNL     1      -3.402  -0.597   1.349  0.00  0.00    -0.441 OA
ATOM     26  C   UNL     1      -4.297  -1.639   1.751  0.00  0.00    +0.256 C 
ENDBRANCH  24  25
ENDBRANCH   4  24
TORSDOF 6
