REMARK  Name = 19910
REMARK  2 active torsions:
REMARK  status: ('A' for Active; 'I' for Inactive)
REMARK    1  A    between atoms: C_4  and  N_13
REMARK    2  A    between atoms: C_5  and  O_14
REMARK                            x       y       z     vdW  Elec       q    Type
REMARK                         _______ _______ _______ _____ _____    ______ ____
ROOT
ATOM      1  N   UNL     1       2.382  -0.550   0.000  0.00  0.00    -0.241 NA
ATOM      2  C   UNL     1      -0.025  -0.430   0.000  0.00  0.00    +0.043 C 
ATOM      3  C   UNL     1       1.248   0.177   0.000  0.00  0.00    +0.116 C 
ATOM      4  C   UNL     1      -1.188   0.360  -0.001  0.00  0.00    +0.144 C 
ATOM      5  C   UNL     1       1.311   1.568   0.000  0.00  0.00    +0.151 C 
ATOM      6  C   UNL     1      -1.096   1.749  -0.001  0.00  0.00    +0.027 C 
ATOM      7  C   UNL     1      -0.089  -1.830   0.000  0.00  0.00    +0.005 C 
ATOM      8  C   UNL     1       0.155   2.353   0.000  0.00  0.00    +0.040 C 
ATOM      9  C   UNL     1       1.077  -2.581   0.000  0.00  0.00    +0.021 C 
ATOM     10  C   UNL     1       2.277  -1.898   0.000  0.00  0.00    +0.099 C 
ENDROOT
BRANCH   4  13
ATOM     11  O   UNL     1      -3.482   0.555   0.001  0.00  0.00    -0.126 OA
ATOM     12  O   UNL     1      -2.599  -1.460  -0.001  0.00  0.00    -0.126 OA
ATOM     13  N   UNL     1      -2.494  -0.213   0.000  0.00  0.00    +0.058 N 
ENDBRANCH   4  13
BRANCH   5  14
ATOM     14  O   UNL     1       2.523   2.200   0.001  0.00  0.00    -0.504 OA
ATOM     15  H   UNL     1       3.313   1.697   0.001  0.00  0.00    +0.292 HD
ENDBRANCH   5  14
TORSDOF 2
