REMARK  Name = 1808
REMARK  1 active torsions:
REMARK  status: ('A' for Active; 'I' for Inactive)
REMARK    1  A    between atoms: C_3  and  C_10
REMARK                            x       y       z     vdW  Elec       q    Type
REMARK                         _______ _______ _______ _____ _____    ______ ____
ROOT
ATOM      1 BR   UNL     1       3.201  -1.577   0.000  0.00  0.00    -0.047 Br
ATOM      2  N   UNL     1       0.934   1.892   0.003  0.00  0.00    -0.242 NA
ATOM      3  C   UNL     1      -0.625   0.045  -0.002  0.00  0.00    +0.073 C 
ATOM      4  C   UNL     1       0.432  -0.858  -0.004  0.00  0.00    +0.014 C 
ATOM      5  C   UNL     1      -0.324   1.397   0.001  0.00  0.00    +0.103 C 
ATOM      6  C   UNL     1       1.741  -0.388  -0.002  0.00  0.00    +0.054 C 
ATOM      7  C   UNL     1       1.937   0.984   0.002  0.00  0.00    +0.106 C 
ENDROOT
BRANCH   3  10
ATOM      8  O   UNL     1      -2.284  -1.628   0.009  0.00  0.00    -0.270 OA
ATOM      9  N   UNL     1      -3.009   0.548  -0.003  0.00  0.00    -0.325 N 
ATOM     10  C   UNL     1      -2.003  -0.415  -0.004  0.00  0.00    +0.244 C 
ATOM     11  H   UNL     1      -3.954   0.272  -0.004  0.00  0.00    +0.145 HD
ATOM     12  H   UNL     1      -2.775   1.504   0.000  0.00  0.00    +0.145 HD
ENDBRANCH   3  10
TORSDOF 1
