REMARK  Name = 4116
REMARK  2 active torsions:
REMARK  status: ('A' for Active; 'I' for Inactive)
REMARK    1  A    between atoms: C_3  and  C_6
REMARK    2  A    between atoms: C_3  and  O_7
REMARK                            x       y       z     vdW  Elec       q    Type
REMARK                         _______ _______ _______ _____ _____    ______ ____
ROOT
ATOM      1  F   UNL     1      -0.281   0.304  -1.350  0.00  0.00    -0.172 F 
ATOM      2  F   UNL     1      -0.578   1.473   0.477  0.00  0.00    -0.172 F 
ATOM      3  C   UNL     1      -0.269   0.239   0.004  0.00  0.00    +0.394 C 
ENDROOT
BRANCH   3   6
ATOM      4 CL   UNL     1       1.521  -1.815  -0.061  0.00  0.00    -0.088 Cl
ATOM      5 CL   UNL     1       2.348   0.973  -0.017  0.00  0.00    -0.088 Cl
ATOM      6  C   UNL     1       1.099  -0.181   0.515  0.00  0.00    +0.248 C 
ENDBRANCH   3   6
BRANCH   3   7
ATOM      7  O   UNL     1      -1.271  -0.673   0.443  0.00  0.00    -0.301 OA
ATOM      8  C   UNL     1      -2.570  -0.320  -0.011  0.00  0.00    +0.180 C 
ENDBRANCH   3   7
TORSDOF 2
