REMARK  Name = 6956357
REMARK  2 active torsions:
REMARK  status: ('A' for Active; 'I' for Inactive)
REMARK    1  A    between atoms: C_5  and  N_18
REMARK    2  A    between atoms: C_16  and  C_27
REMARK                            x       y       z     vdW  Elec       q    Type
REMARK                         _______ _______ _______ _____ _____    ______ ____
ROOT
ATOM      1  F   UNL     1      -1.700   2.914   0.146  0.00  0.00    -0.203 F 
ATOM      2  O   UNL     1      -1.006  -1.756  -0.169  0.00  0.00    -0.471 OA
ATOM      3  O   UNL     1       3.329   2.420   0.019  0.00  0.00    -0.286 OA
ATOM      4  N   UNL     1       1.841  -1.368  -0.105  0.00  0.00    -0.281 N 
ATOM      5  C   UNL     1      -1.343   0.572   0.001  0.00  0.00    +0.111 C 
ATOM      6  C   UNL     1      -0.454  -0.500  -0.089  0.00  0.00    +0.168 C 
ATOM      7  C   UNL     1       0.933  -0.290  -0.072  0.00  0.00    +0.091 C 
ATOM      8  C   UNL     1       1.254  -2.709  -0.039  0.00  0.00    +0.121 C 
ATOM      9  C   UNL     1      -0.101  -2.702  -0.749  0.00  0.00    +0.225 C 
ATOM     10  C   UNL     1       1.407   1.034  -0.013  0.00  0.00    +0.058 C 
ATOM     11  C   UNL     1      -0.855   1.876   0.071  0.00  0.00    +0.156 C 
ATOM     12  C   UNL     1       0.519   2.112   0.057  0.00  0.00    +0.036 C 
ATOM     13  C   UNL     1       3.198  -1.119  -0.097  0.00  0.00    +0.075 C 
ATOM     14  C   UNL     1       1.138  -3.161   1.419  0.00  0.00    +0.026 C 
ATOM     15  C   UNL     1       2.874   1.284  -0.017  0.00  0.00    +0.205 C 
ATOM     16  C   UNL     1       3.762   0.093  -0.063  0.00  0.00    +0.133 C 
ENDROOT
BRANCH   5  18
ATOM     17  N   UNL     1      -5.556   0.109  -0.065  0.00  0.00    +0.388 N 
ATOM     18  N   UNL     1      -2.727   0.358   0.009  0.00  0.00    -0.308 N 
ATOM     19  C   UNL     1      -4.823   0.013   1.249  0.00  0.00    -0.056 C 
ATOM     20  C   UNL     1      -4.720  -0.445  -1.190  0.00  0.00    -0.056 C 
ATOM     21  C   UNL     1      -3.521   0.800   1.159  0.00  0.00    +0.068 C 
ATOM     22  C   UNL     1      -3.421   0.344  -1.286  0.00  0.00    +0.068 C 
ATOM     23  C   UNL     1      -6.909  -0.542   0.000  0.00  0.00    -0.101 C 
ATOM     24  H   UNL     1      -5.718   1.097  -0.257  0.00  0.00    -0.080 HD
ENDBRANCH   5  18
BRANCH  16  27
ATOM     25  O   UNL     1       5.728   1.374  -0.026  0.00  0.00    -0.240 OA
ATOM     26  O   UNL     1       5.885  -0.907  -0.091  0.00  0.00    -0.240 OA
ATOM     27  C   UNL     1       5.269   0.197  -0.060  0.00  0.00    +0.392 C 
ENDBRANCH  16  27
TORSDOF 2
