REMARK  Name = 5342
REMARK  6 active torsions:
REMARK  status: ('A' for Active; 'I' for Inactive)
REMARK    1  A    between atoms: N_3  and  C_8
REMARK    2  A    between atoms: N_4  and  C_14
REMARK    3  A    between atoms: C_5  and  C_20
REMARK    4  A    between atoms: C_20  and  C_21
REMARK    5  A    between atoms: C_21  and  S_22
REMARK    6  A    between atoms: S_22  and  C_24
REMARK                            x       y       z     vdW  Elec       q    Type
REMARK                         _______ _______ _______ _____ _____    ______ ____
ROOT
ATOM      1  O   UNL     1      -1.081  -3.192  -0.018  0.00  0.00    -0.272 OA
ATOM      2  O   UNL     1      -0.072   0.097   3.211  0.00  0.00    -0.272 OA
ATOM      3  N   UNL     1      -1.679  -0.902   0.253  0.00  0.00    -0.179 N 
ATOM      4  N   UNL     1      -1.286   0.109   1.163  0.00  0.00    -0.179 N 
ATOM      5  C   UNL     1      -0.341  -1.897   1.879  0.00  0.00    +0.158 C 
ATOM      6  C   UNL     1      -1.040  -2.114   0.557  0.00  0.00    +0.254 C 
ATOM      7  C   UNL     1      -0.555  -0.443   2.227  0.00  0.00    +0.254 C 
ENDROOT
BRANCH   3   8
ATOM      8  C   UNL     1      -2.844  -0.835  -0.570  0.00  0.00    +0.073 C 
ATOM      9  C   UNL     1      -3.046  -1.782  -1.578  0.00  0.00    +0.017 C 
ATOM     10  C   UNL     1      -3.786   0.176  -0.370  0.00  0.00    +0.017 C 
ATOM     11  C   UNL     1      -4.184  -1.716  -2.381  0.00  0.00    +0.001 C 
ATOM     12  C   UNL     1      -4.924   0.241  -1.174  0.00  0.00    +0.001 C 
ATOM     13  C   UNL     1      -5.123  -0.705  -2.179  0.00  0.00    +0.000 C 
ENDBRANCH   3   8
BRANCH   4  14
ATOM     14  C   UNL     1      -1.238   1.500   0.846  0.00  0.00    +0.073 C 
ATOM     15  C   UNL     1      -1.012   2.442   1.853  0.00  0.00    +0.017 C 
ATOM     16  C   UNL     1      -1.414   1.926  -0.473  0.00  0.00    +0.017 C 
ATOM     17  C   UNL     1      -0.964   3.801   1.543  0.00  0.00    +0.001 C 
ATOM     18  C   UNL     1      -1.366   3.285  -0.783  0.00  0.00    +0.001 C 
ATOM     19  C   UNL     1      -1.141   4.223   0.226  0.00  0.00    +0.000 C 
ENDBRANCH   4  14
BRANCH   5  20
ATOM     20  C   UNL     1       1.136  -2.233   1.778  0.00  0.00    +0.033 C 
BRANCH  20  21
ATOM     21  C   UNL     1       1.843  -1.335   0.772  0.00  0.00    +0.097 C 
BRANCH  21  22
ATOM     22  S   UNL     1       3.615  -1.737   0.682  0.00  0.00    +0.065 S 
ATOM     23  O   UNL     1       4.239  -1.251   1.953  0.00  0.00    -0.251 OA
BRANCH  22  24
ATOM     24  C   UNL     1       4.046  -0.534  -0.591  0.00  0.00    +0.056 C 
ATOM     25  C   UNL     1       4.441   0.746  -0.221  0.00  0.00    +0.009 C 
ATOM     26  C   UNL     1       3.980  -0.898  -1.931  0.00  0.00    +0.009 C 
ATOM     27  C   UNL     1       4.774   1.677  -1.205  0.00  0.00    +0.001 C 
ATOM     28  C   UNL     1       4.314   0.033  -2.915  0.00  0.00    +0.001 C 
ATOM     29  C   UNL     1       4.711   1.320  -2.552  0.00  0.00    +0.000 C 
ENDBRANCH  22  24
ENDBRANCH  21  22
ENDBRANCH  20  21
ENDBRANCH   5  20
TORSDOF 6
