REMARK  Name = 3637
REMARK  1 active torsions:
REMARK  status: ('A' for Active; 'I' for Inactive)
REMARK    1  A    between atoms: N_1  and  N_13
REMARK                            x       y       z     vdW  Elec       q    Type
REMARK                         _______ _______ _______ _____ _____    ______ ____
ROOT
ATOM      1  N   UNL     1      -2.028   1.362   0.108  0.00  0.00    -0.266 N 
ATOM      2  N   UNL     1      -1.860  -0.990   0.054  0.00  0.00    -0.132 NA
ATOM      3  N   UNL     1      -1.131  -2.136   0.011  0.00  0.00    -0.145 NA
ATOM      4  C   UNL     1       0.163   0.323   0.030  0.00  0.00    +0.036 C 
ATOM      5  C   UNL     1       0.915  -0.860  -0.015  0.00  0.00    +0.024 C 
ATOM      6  C   UNL     1      -1.221   0.200   0.063  0.00  0.00    +0.163 C 
ATOM      7  C   UNL     1       0.821   1.565   0.039  0.00  0.00    +0.003 C 
ATOM      8  C   UNL     1       2.318  -0.791  -0.049  0.00  0.00    +0.002 C 
ATOM      9  C   UNL     1       2.215   1.623   0.004  0.00  0.00    +0.000 C 
ATOM     10  C   UNL     1       0.217  -2.062  -0.022  0.00  0.00    +0.122 C 
ATOM     11  C   UNL     1       2.962   0.447  -0.040  0.00  0.00    +0.000 C 
ATOM     12  H   UNL     1      -1.618   2.223   0.355  0.00  0.00    +0.168 HD
ENDROOT
BRANCH   1  13
ATOM     13  N   UNL     1      -3.369   1.318  -0.183  0.00  0.00    -0.255 NA
ATOM     14  H   UNL     1      -3.635   0.361  -0.416  0.00  0.00    +0.140 HD
ATOM     15  H   UNL     1      -3.565   1.929  -0.976  0.00  0.00    +0.140 HD
ENDBRANCH   1  13
TORSDOF 1
