REMARK  Name = 6833
REMARK  6 active torsions:
REMARK  status: ('A' for Active; 'I' for Inactive)
REMARK    1  A    between atoms: C_1  and  C_13
REMARK    2  A    between atoms: C_2  and  C_4
REMARK    3  A    between atoms: C_2  and  C_9
REMARK    4  A    between atoms: C_13  and  N_15
REMARK    5  A    between atoms: N_15  and  C_17
REMARK    6  A    between atoms: N_15  and  C_19
REMARK                            x       y       z     vdW  Elec       q    Type
REMARK                         _______ _______ _______ _____ _____    ______ ____
ROOT
ATOM      1  C   UNL     1       0.134   0.919  -0.699  0.00  0.00    -0.046 C 
ATOM      2  C   UNL     1      -0.871   0.116  -0.279  0.00  0.00    +0.006 C 
ENDROOT
BRANCH   2   4
ATOM      3  S   UNL     1      -3.197  -0.053   1.083  0.00  0.00    -0.086 S 
ATOM      4  C   UNL     1      -2.192   0.649  -0.094  0.00  0.00    +0.030 C 
ATOM      5  C   UNL     1      -2.774   1.684  -0.761  0.00  0.00    +0.007 C 
ATOM      6  C   UNL     1      -4.099   1.919  -0.293  0.00  0.00    +0.007 C 
ATOM      7  C   UNL     1      -4.457   1.044   0.709  0.00  0.00    +0.035 C 
ENDBRANCH   2   4
BRANCH   2   9
ATOM      8  S   UNL     1      -0.715  -2.373  -1.317  0.00  0.00    -0.086 S 
ATOM      9  C   UNL     1      -0.560  -1.271  -0.035  0.00  0.00    +0.030 C 
ATOM     10  C   UNL     1      -0.144  -1.835   1.129  0.00  0.00    +0.007 C 
ATOM     11  C   UNL     1       0.061  -3.236   0.974  0.00  0.00    +0.007 C 
ATOM     12  C   UNL     1      -0.213  -3.661  -0.307  0.00  0.00    +0.035 C 
ENDBRANCH   2   9
BRANCH   1  13
ATOM     13  C   UNL     1       1.579   0.553  -0.952  0.00  0.00    -0.035 C 
ATOM     14  C   UNL     1       1.953   0.832  -2.408  0.00  0.00    -0.018 C 
BRANCH  13  15
ATOM     15  N   UNL     1       2.460   1.313  -0.058  0.00  0.00    +0.391 N 
ATOM     16  H   UNL     1       2.341   2.308  -0.248  0.00  0.00    -0.079 HD
BRANCH  15  17
ATOM     17  C   UNL     1       3.856   0.960  -0.302  0.00  0.00    -0.077 C 
ATOM     18  C   UNL     1       4.111  -0.508  -0.006  0.00  0.00    -0.025 C 
ENDBRANCH  15  17
BRANCH  15  19
ATOM     19  C   UNL     1       2.102   1.064   1.337  0.00  0.00    -0.077 C 
ATOM     20  C   UNL     1       2.966   1.885   2.279  0.00  0.00    -0.025 C 
ENDBRANCH  15  19
ENDBRANCH  13  15
ENDBRANCH   1  13
TORSDOF 6
