REMARK  Name = 11987780
REMARK  6 active torsions:
REMARK  status: ('A' for Active; 'I' for Inactive)
REMARK    1  A    between atoms: N_3  and  C_20
REMARK    2  A    between atoms: C_20  and  C_21
REMARK    3  A    between atoms: C_21  and  C_22
REMARK    4  A    between atoms: C_22  and  N_23
REMARK    5  A    between atoms: N_23  and  S_25
REMARK    6  A    between atoms: S_25  and  C_28
REMARK                            x       y       z     vdW  Elec       q    Type
REMARK                         _______ _______ _______ _____ _____    ______ ____
ROOT
ATOM      1  O   UNL     1       5.119   0.617   0.553  0.00  0.00    -0.294 OA
ATOM      2  N   UNL     1       2.086   2.478   0.796  0.00  0.00    +0.397 N 
ATOM      3  N   UNL     1       0.868  -0.866  -0.236  0.00  0.00    -0.332 N 
ATOM      4  C   UNL     1       1.099   1.651   0.057  0.00  0.00    -0.018 C 
ATOM      5  C   UNL     1       1.618   0.255  -0.025  0.00  0.00    +0.020 A 
ATOM      6  C   UNL     1       0.775   2.206  -1.340  0.00  0.00    -0.015 C 
ATOM      7  C   UNL     1       1.654   3.881   0.867  0.00  0.00    -0.076 C 
ATOM      8  C   UNL     1       0.328   3.663  -1.266  0.00  0.00    -0.004 C 
ATOM      9  C   UNL     1       2.933  -0.120   0.123  0.00  0.00    +0.044 A 
ATOM     10  C   UNL     1       1.338   4.503  -0.494  0.00  0.00    -0.023 C 
ATOM     11  C   UNL     1       3.470   2.352   0.296  0.00  0.00    -0.006 C 
ATOM     12  C   UNL     1       3.938   0.897   0.367  0.00  0.00    +0.153 C 
ATOM     13  C   UNL     1       2.996  -1.535  -0.001  0.00  0.00    +0.019 A 
ATOM     14  C   UNL     1       1.686  -1.977  -0.228  0.00  0.00    +0.060 A 
ATOM     15  C   UNL     1       4.030  -2.491   0.055  0.00  0.00    +0.002 C 
ATOM     16  C   UNL     1       1.366  -3.329  -0.401  0.00  0.00    +0.017 C 
ATOM     17  C   UNL     1       3.722  -3.845  -0.117  0.00  0.00    +0.000 C 
ATOM     18  C   UNL     1       2.410  -4.256  -0.341  0.00  0.00    +0.001 C 
ATOM     19  H   UNL     1       2.112   2.102   1.744  0.00  0.00    -0.078 HD
ENDROOT
BRANCH   3  20
ATOM     20  C   UNL     1      -0.572  -0.968  -0.328  0.00  0.00    +0.107 C 
BRANCH  20  21
ATOM     21  C   UNL     1      -1.230  -1.061   1.050  0.00  0.00    +0.043 C 
BRANCH  21  22
ATOM     22  C   UNL     1      -2.748  -1.159   0.965  0.00  0.00    +0.093 C 
BRANCH  22  23
ATOM     23  N   UNL     1      -3.302   0.026   0.274  0.00  0.00    -0.183 NA
ATOM     24  H   UNL     1      -3.463   0.738   0.986  0.00  0.00    +0.148 HD
BRANCH  23  25
ATOM     25  S   UNL     1      -4.751  -0.133  -0.610  0.00  0.00    +0.039 S 
ATOM     26  O   UNL     1      -4.670  -1.284  -1.488  0.00  0.00    -0.158 OA
ATOM     27  O   UNL     1      -5.116   1.171  -1.127  0.00  0.00    -0.158 OA
BRANCH  25  28
ATOM     28  C   UNL     1      -5.891  -0.523   0.698  0.00  0.00    +0.146 C 
ATOM     29  C   UNL     1      -7.292  -0.716   0.136  0.00  0.00    +0.027 C 
ATOM     30  C   UNL     1      -5.864   0.564   1.763  0.00  0.00    +0.027 C 
ENDBRANCH  25  28
ENDBRANCH  23  25
ENDBRANCH  22  23
ENDBRANCH  21  22
ENDBRANCH  20  21
ENDBRANCH   3  20
TORSDOF 6
