REMARK  Name = 72287
REMARK  5 active torsions:
REMARK  status: ('A' for Active; 'I' for Inactive)
REMARK    1  A    between atoms: N_2  and  C_17
REMARK    2  A    between atoms: C_11  and  O_15
REMARK    3  A    between atoms: C_17  and  C_18
REMARK    4  A    between atoms: C_18  and  C_20
REMARK    5  A    between atoms: C_20  and  N_21
REMARK                            x       y       z     vdW  Elec       q    Type
REMARK                         _______ _______ _______ _____ _____    ______ ____
ROOT
ATOM      1  S   UNL     1      -0.884   1.939   1.821  0.00  0.00    -0.084 S 
ATOM      2  N   UNL     1      -0.584   0.214  -0.748  0.00  0.00    -0.286 N 
ATOM      3  C   UNL     1       0.615   0.776  -0.241  0.00  0.00    +0.061 C 
ATOM      4  C   UNL     1      -1.889   0.703  -0.485  0.00  0.00    +0.058 C 
ATOM      5  C   UNL     1       0.605   1.595   0.905  0.00  0.00    +0.043 C 
ATOM      6  C   UNL     1      -2.147   1.515   0.637  0.00  0.00    +0.043 C 
ATOM      7  C   UNL     1       1.862   0.573  -0.874  0.00  0.00    +0.052 C 
ATOM      8  C   UNL     1      -2.976   0.432  -1.344  0.00  0.00    +0.015 C 
ATOM      9  C   UNL     1       1.796   2.156   1.399  0.00  0.00    +0.011 C 
ATOM     10  C   UNL     1      -3.441   2.003   0.890  0.00  0.00    +0.008 C 
ATOM     11  C   UNL     1       3.042   1.137  -0.381  0.00  0.00    +0.140 C 
ATOM     12  C   UNL     1      -4.260   0.924  -1.090  0.00  0.00    +0.001 C 
ATOM     13  C   UNL     1       3.010   1.926   0.759  0.00  0.00    +0.037 C 
ATOM     14  C   UNL     1      -4.493   1.708   0.030  0.00  0.00    +0.001 C 
ENDROOT
BRANCH  11  15
ATOM     15  O   UNL     1       4.223   0.905  -1.016  0.00  0.00    -0.471 OA
ATOM     16  C   UNL     1       5.390   1.506  -0.457  0.00  0.00    +0.252 C 
ENDBRANCH  11  15
BRANCH   2  17
ATOM     17  C   UNL     1      -0.461  -0.920  -1.673  0.00  0.00    +0.093 C 
BRANCH  17  18
ATOM     18  C   UNL     1       0.137  -2.160  -0.984  0.00  0.00    -0.001 C 
ATOM     19  C   UNL     1       0.220  -3.345  -1.952  0.00  0.00    -0.000 C 
BRANCH  18  20
ATOM     20  C   UNL     1      -0.612  -2.581   0.295  0.00  0.00    -0.076 C 
BRANCH  20  21
ATOM     21  N   UNL     1       0.063  -3.672   0.990  0.00  0.00    +0.384 N 
ATOM     22  C   UNL     1      -0.660  -4.029   2.212  0.00  0.00    -0.101 C 
ATOM     23  C   UNL     1       1.444  -3.305   1.306  0.00  0.00    -0.101 C 
ATOM     24  H   UNL     1       0.077  -4.484   0.373  0.00  0.00    -0.080 HD
ENDBRANCH  20  21
ENDBRANCH  18  20
ENDBRANCH  17  18
ENDBRANCH   2  17
TORSDOF 5
