REMARK  Name = 8969
REMARK  3 active torsions:
REMARK  status: ('A' for Active; 'I' for Inactive)
REMARK    1  A    between atoms: C_7  and  C_27
REMARK    2  A    between atoms: C_10  and  O_24
REMARK    3  A    between atoms: C_27  and  O_28
REMARK                            x       y       z     vdW  Elec       q    Type
REMARK                         _______ _______ _______ _____ _____    ______ ____
ROOT
ATOM      1  N   UNL     1      -0.279   2.071   0.055  0.00  0.00    +0.392 N 
ATOM      2  N   UNL     1      -2.196  -1.113  -0.387  0.00  0.00    -0.358 N 
ATOM      3  C   UNL     1       2.092   0.364  -0.142  0.00  0.00    +0.009 C 
ATOM      4  C   UNL     1       2.149   1.818   0.375  0.00  0.00    -0.020 C 
ATOM      5  C   UNL     1       0.685  -0.208   0.113  0.00  0.00    -0.015 C 
ATOM      6  C   UNL     1      -0.390   0.698  -0.511  0.00  0.00    -0.019 C 
ATOM      7  C   UNL     1       3.206  -0.475   0.514  0.00  0.00    +0.126 C 
ATOM      8  C   UNL     1       1.029   2.665  -0.250  0.00  0.00    -0.077 C 
ATOM      9  C   UNL     1       3.527   2.441   0.123  0.00  0.00    +0.000 C 
ATOM     10  C   UNL     1       4.594   0.145   0.277  0.00  0.00    +0.121 C 
ATOM     11  C   UNL     1       4.639   1.598   0.753  0.00  0.00    +0.030 C 
ATOM     12  C   UNL     1      -1.779   0.184  -0.284  0.00  0.00    +0.010 A 
ATOM     13  C   UNL     1      -1.387   2.942  -0.392  0.00  0.00    -0.072 C 
ATOM     14  C   UNL     1      -2.876   0.971  -0.003  0.00  0.00    -0.013 A 
ATOM     15  C   UNL     1      -2.746   2.445   0.155  0.00  0.00    +0.005 C 
ATOM     16  C   UNL     1      -4.006   0.116   0.102  0.00  0.00    +0.013 A 
ATOM     17  C   UNL     1      -3.552  -1.185  -0.143  0.00  0.00    +0.056 A 
ATOM     18  C   UNL     1      -5.373   0.316   0.377  0.00  0.00    +0.001 C 
ATOM     19  C   UNL     1      -4.404  -2.296  -0.126  0.00  0.00    +0.017 C 
ATOM     20  C   UNL     1      -6.235  -0.787   0.399  0.00  0.00    +0.000 C 
ATOM     21  C   UNL     1      -5.756  -2.071   0.151  0.00  0.00    +0.001 C 
ATOM     22  H   UNL     1      -0.355   1.989   1.069  0.00  0.00    -0.079 HD
ATOM     23  H   UNL     1      -1.618  -1.880  -0.602  0.00  0.00    +0.166 HD
ENDROOT
BRANCH  10  24
ATOM     24  O   UNL     1       4.905   0.109  -1.117  0.00  0.00    -0.384 OA
ATOM     25  H   UNL     1       4.880  -0.808  -1.431  0.00  0.00    +0.210 HD
ENDBRANCH  10  24
BRANCH   7  27
ATOM     26  O   UNL     1       2.433  -2.304  -0.853  0.00  0.00    -0.250 OA
ATOM     27  C   UNL     1       3.210  -1.884  -0.005  0.00  0.00    +0.319 C 
BRANCH  27  28
ATOM     28  O   UNL     1       4.197  -2.594   0.611  0.00  0.00    -0.444 OA
ATOM     29  C   UNL     1       4.314  -3.962   0.208  0.00  0.00    +0.256 C 
ENDBRANCH  27  28
ENDBRANCH   7  27
TORSDOF 3
