REMARK  Name = 120231
REMARK  2 active torsions:
REMARK  status: ('A' for Active; 'I' for Inactive)
REMARK    1  A    between atoms: C_2  and  S_8
REMARK    2  A    between atoms: S_8  and  N_11
REMARK                            x       y       z     vdW  Elec       q    Type
REMARK                         _______ _______ _______ _____ _____    ______ ____
ROOT
ATOM      1  F   UNL     1      -3.741   0.001   0.045  0.00  0.00    -0.204 F 
ATOM      2  C   UNL     1       0.387   0.000  -0.059  0.00  0.00    +0.122 C 
ATOM      3  C   UNL     1      -0.311   1.208  -0.042  0.00  0.00    +0.022 C 
ATOM      4  C   UNL     1      -0.311  -1.208  -0.041  0.00  0.00    +0.022 C 
ATOM      5  C   UNL     1      -1.705   1.208  -0.006  0.00  0.00    +0.031 C 
ATOM      6  C   UNL     1      -1.705  -1.208  -0.005  0.00  0.00    +0.031 C 
ATOM      7  C   UNL     1      -2.402   0.000   0.012  0.00  0.00    +0.140 C 
ENDROOT
BRANCH   2   8
ATOM      8  S   UNL     1       2.132   0.000  -0.104  0.00  0.00    +0.057 S 
ATOM      9  O   UNL     1       2.577  -1.260  -0.682  0.00  0.00    -0.153 OA
ATOM     10  O   UNL     1       2.580   1.259  -0.682  0.00  0.00    -0.153 OA
BRANCH   8  11
ATOM     11  N   UNL     1       2.500   0.001   1.565  0.00  0.00    -0.203 NA
ATOM     12  H   UNL     1       3.513   0.001   1.689  0.00  0.00    +0.144 HD
ATOM     13  H   UNL     1       2.104  -0.832   2.001  0.00  0.00    +0.144 HD
ENDBRANCH   8  11
ENDBRANCH   2   8
TORSDOF 2
