REMARK  Name = 285553
REMARK  1 active torsions:
REMARK  status: ('A' for Active; 'I' for Inactive)
REMARK    1  A    between atoms: C_3  and  N_9
REMARK                            x       y       z     vdW  Elec       q    Type
REMARK                         _______ _______ _______ _____ _____    ______ ____
ROOT
ATOM      1  F   UNL     1       2.364  -0.781  -0.001  0.00  0.00    -0.204 F 
ATOM      2  C   UNL     1      -0.011  -0.769   0.000  0.00  0.00    +0.018 C 
ATOM      3  C   UNL     1      -1.205  -0.047   0.000  0.00  0.00    +0.040 C 
ATOM      4  C   UNL     1       1.211  -0.097   0.000  0.00  0.00    +0.137 C 
ATOM      5  C   UNL     1      -1.176   1.348   0.000  0.00  0.00    +0.014 C 
ATOM      6  C   UNL     1      -0.017  -2.263   0.000  0.00  0.00    +0.035 C 
ATOM      7  C   UNL     1       1.240   1.298   0.000  0.00  0.00    +0.029 C 
ATOM      8  C   UNL     1       0.046   2.020   0.000  0.00  0.00    +0.004 C 
ENDROOT
BRANCH   3   9
ATOM      9  N   UNL     1      -2.451  -0.710  -0.001  0.00  0.00    -0.357 N 
ATOM     10  H   UNL     1      -2.485  -1.694  -0.001  0.00  0.00    +0.142 HD
ATOM     11  H   UNL     1      -3.286  -0.189  -0.001  0.00  0.00    +0.142 HD
ENDBRANCH   3   9
TORSDOF 1
