REMARK  Name = 123831
REMARK  8 active torsions:
REMARK  status: ('A' for Active; 'I' for Inactive)
REMARK    1  A    between atoms: C_1  and  C_2
REMARK    2  A    between atoms: C_1  and  C_12
REMARK    3  A    between atoms: C_2  and  C_3
REMARK    4  A    between atoms: C_3  and  N_4
REMARK    5  A    between atoms: N_4  and  C_7
REMARK    6  A    between atoms: C_12  and  N_13
REMARK    7  A    between atoms: C_12  and  C_18
REMARK    8  A    between atoms: C_18  and  O_19
REMARK                            x       y       z     vdW  Elec       q    Type
REMARK                         _______ _______ _______ _____ _____    ______ ____
ROOT
ATOM      1  C   UNK     1      -1.341   0.400   0.298  0.00  0.00    -0.009 C 
ENDROOT
BRANCH   1   2
ATOM      2  C   UNK     1      -0.839  -0.792  -0.530  0.00  0.00    +0.025 C 
BRANCH   2   3
ATOM      3  C   UNK     1       0.536  -1.275  -0.081  0.00  0.00    +0.129 C 
BRANCH   3   4
ATOM      4  N   UNK     1       1.520  -0.206  -0.250  0.00  0.00    -0.240 NA
BRANCH   4   7
ATOM      5  N   UNK     1       3.751   0.522  -0.097  0.00  0.00    -0.317 N 
ATOM      6  N   UNK     1       3.223  -1.687   0.512  0.00  0.00    -0.370 N 
ATOM      7  C   UNK     1       2.761  -0.468   0.048  0.00  0.00    +0.195 C 
ATOM      8  C   UNK     1       5.162   0.307   0.215  0.00  0.00    +0.128 C 
ATOM      9  C   UNK     1       3.387   1.891  -0.461  0.00  0.00    +0.128 C 
ATOM     10  H   UNK     1       2.595  -2.434   0.642  0.00  0.00    +0.159 HD
ATOM     11  H   UNK     1       4.179  -1.807   0.714  0.00  0.00    +0.159 HD
ENDBRANCH   4   7
ENDBRANCH   3   4
ENDBRANCH   2   3
ENDBRANCH   1   2
BRANCH   1  12
ATOM     12  C   UNK     1      -2.734   0.870  -0.146  0.00  0.00    +0.036 C 
BRANCH  12  13
ATOM     13  N   UNK     1      -3.191   1.956   0.717  0.00  0.00    +0.389 N 
ATOM     14  H   UNK     1      -2.523   2.727   0.676  0.00  0.00    -0.088 HD
ATOM     15  H   UNK     1      -3.263   1.621   1.677  0.00  0.00    -0.088 HD
ATOM     16  H   UNK     1      -4.104   2.281   0.400  0.00  0.00    -0.088 HD
ENDBRANCH  12  13
BRANCH  12  18
ATOM     17  O   UNK     1      -4.069  -0.809   1.011  0.00  0.00    -0.253 OA
ATOM     18  C   UNK     1      -3.777  -0.226  -0.025  0.00  0.00    +0.293 C 
BRANCH  18  19
ATOM     19  O   UNK     1      -4.389  -0.484  -1.212  0.00  0.00    -0.482 OA
ATOM     20  H   UNK     1      -4.134  -0.014  -1.981  0.00  0.00    +0.295 HD
ENDBRANCH  18  19
ENDBRANCH  12  18
ENDBRANCH   1  12
TORSDOF 8
