REMARK  Name = 54445
REMARK  4 active torsions:
REMARK  status: ('A' for Active; 'I' for Inactive)
REMARK    1  A    between atoms: C_3  and  O_11
REMARK    2  A    between atoms: C_4  and  O_13
REMARK    3  A    between atoms: C_7  and  O_15
REMARK    4  A    between atoms: C_9  and  O_17
REMARK                            x       y       z     vdW  Elec       q    Type
REMARK                         _______ _______ _______ _____ _____    ______ ____
ROOT
ATOM      1  N   UNL     1       0.638  -1.037   0.215  0.00  0.00    +0.393 N 
ATOM      2  C   UNL     1       0.724   0.256  -0.473  0.00  0.00    -0.001 C 
ATOM      3  C   UNL     1      -0.381   1.193   0.010  0.00  0.00    +0.123 C 
ATOM      4  C   UNL     1       2.171   0.655  -0.187  0.00  0.00    +0.092 C 
ATOM      5  C   UNL     1       1.843  -1.762  -0.174  0.00  0.00    -0.075 C 
ATOM      6  C   UNL     1      -0.604  -1.731  -0.094  0.00  0.00    -0.045 C 
ATOM      7  C   UNL     1      -1.753   0.538  -0.209  0.00  0.00    +0.160 C 
ATOM      8  C   UNL     1       2.925  -0.679  -0.194  0.00  0.00    +0.004 C 
ATOM      9  C   UNL     1      -1.796  -0.884   0.366  0.00  0.00    +0.119 C 
ATOM     10  H   UNL     1       0.605  -0.938   1.229  0.00  0.00    -0.079 HD
ENDROOT
BRANCH   3  11
ATOM     11  O   UNL     1      -0.342   2.405  -0.739  0.00  0.00    -0.384 OA
ATOM     12  H   UNL     1       0.519   2.835  -0.613  0.00  0.00    +0.210 HD
ENDBRANCH   3  11
BRANCH   4  13
ATOM     13  O   UNL     1       2.320   1.258   1.092  0.00  0.00    -0.387 OA
ATOM     14  H   UNL     1       1.846   2.105   1.107  0.00  0.00    +0.210 HD
ENDBRANCH   4  13
BRANCH   7  15
ATOM     15  O   UNL     1      -2.753   1.317   0.451  0.00  0.00    -0.380 OA
ATOM     16  H   UNL     1      -2.742   2.221   0.101  0.00  0.00    +0.211 HD
ENDBRANCH   7  15
BRANCH   9  17
ATOM     17  O   UNL     1      -2.993  -1.531  -0.065  0.00  0.00    -0.384 OA
ATOM     18  H   UNL     1      -3.022  -2.430   0.298  0.00  0.00    +0.210 HD
ENDBRANCH   9  17
TORSDOF 4
