REMARK  Name = 4456
REMARK  3 active torsions:
REMARK  status: ('A' for Active; 'I' for Inactive)
REMARK    1  A    between atoms: C_1  and  N_7
REMARK    2  A    between atoms: C_4  and  O_11
REMARK    3  A    between atoms: O_11  and  C_14
REMARK                            x       y       z     vdW  Elec       q    Type
REMARK                         _______ _______ _______ _____ _____    ______ ____
ROOT
ATOM      1  C   UNL     1       1.897   0.157  -0.046  0.00  0.00    +0.037 C 
ATOM      2  C   UNL     1       0.661  -0.281  -0.389  0.00  0.00    +0.051 C 
ATOM      3  C   UNL     1       2.235   1.431   0.268  0.00  0.00    +0.013 C 
ATOM      4  C   UNL     1      -0.359   0.670  -0.421  0.00  0.00    +0.151 C 
ATOM      5  C   UNL     1       1.215   2.381   0.235  0.00  0.00    +0.004 C 
ATOM      6  C   UNL     1      -0.082   2.001  -0.109  0.00  0.00    +0.038 C 
ENDROOT
BRANCH   1   7
ATOM      7  N   UNL     1       3.016  -0.886  -0.009  0.00  0.00    -0.351 NA
ATOM      8  C   UNL     1       3.591  -0.938   1.403  0.00  0.00    +0.096 C 
ATOM      9  C   UNL     1       4.090  -0.490  -1.019  0.00  0.00    +0.096 C 
ATOM     10  C   UNL     1       2.515  -2.283  -0.371  0.00  0.00    +0.096 C 
ENDBRANCH   1   7
BRANCH   4  11
ATOM     11  O   UNL     1      -1.625   0.298  -0.757  0.00  0.00    -0.410 OA
BRANCH  11  14
ATOM     12  O   UNL     1      -2.044  -0.113   1.481  0.00  0.00    -0.226 OA
ATOM     13  N   UNL     1      -3.741  -0.476  -0.067  0.00  0.00    -0.242 N 
ATOM     14  C   UNL     1      -2.449  -0.102   0.319  0.00  0.00    +0.410 C 
ATOM     15  C   UNL     1      -4.706  -0.913   0.932  0.00  0.00    +0.118 C 
ATOM     16  C   UNL     1      -4.213  -0.456  -1.448  0.00  0.00    +0.118 C 
ENDBRANCH  11  14
ENDBRANCH   4  11
TORSDOF 3
