REMARK  Name = 445768
REMARK  1 active torsions:
REMARK  status: ('A' for Active; 'I' for Inactive)
REMARK    1  A    between atoms: C_2  and  C_5
REMARK                            x       y       z     vdW  Elec       q    Type
REMARK                         _______ _______ _______ _____ _____    ______ ____
ROOT
ATOM      1 CL   UNL     1      -1.228   1.354   0.271  0.00  0.00    -0.114 Cl
ATOM      2  C   UNL     1      -0.618  -0.155  -0.476  0.00  0.00    +0.096 C 
ATOM      3  C   UNL     1      -0.941  -1.340   0.426  0.00  0.00    +0.019 C 
ENDROOT
BRANCH   2   5
ATOM      4 CL   UNL     1       1.919   0.174   0.601  0.00  0.00    -0.112 Cl
ATOM      5  C   UNL     1       0.867  -0.033  -0.822  0.00  0.00    +0.111 C 
ENDBRANCH   2   5
TORSDOF 1
