1522
  -OEChem-10051719463D

 28 30  0     0  0  0  0  0  0999 V2000
    4.6844   -1.9717    0.7448 O   0  0  0  0  0  0  0  0  0  0  0  0
   -2.0189    0.2745    0.0302 N   0  0  0  0  0  0  0  0  0  0  0  0
   -0.3457   -1.2143   -0.1300 N   0  0  0  0  0  0  0  0  0  0  0  0
    2.5584   -0.3491   -0.1810 N   0  0  0  0  0  0  0  0  0  0  0  0
   -0.7059    2.3300    0.1167 N   0  0  0  0  0  0  0  0  0  0  0  0
    1.6859    1.8705   -0.0016 N   0  0  0  0  0  0  0  0  0  0  0  0
    0.1647    0.0568   -0.0651 C   0  0  0  0  0  0  0  0  0  0  0  0
   -0.8503    0.9963    0.0342 C   0  0  0  0  0  0  0  0  0  0  0  0
   -1.6553   -1.0689   -0.0720 C   0  0  0  0  0  0  0  0  0  0  0  0
    1.4709    0.5363   -0.0818 C   0  0  0  0  0  0  0  0  0  0  0  0
   -3.3402    0.7090    0.1083 C   0  0  0  0  0  0  0  0  0  0  0  0
    3.9226    0.0882   -0.2027 C   0  0  0  0  0  0  0  0  0  0  0  0
   -2.7129   -2.0254   -0.0956 C   0  0  0  0  0  0  0  0  0  0  0  0
   -4.3286   -0.1995    0.0856 C   0  0  0  0  0  0  0  0  0  0  0  0
   -3.9917   -1.6097   -0.0206 C   0  0  0  0  0  0  0  0  0  0  0  0
    4.8634   -1.0957   -0.3604 C   0  0  0  0  0  0  0  0  0  0  0  0
    0.5994    2.6729    0.0911 C   0  0  0  0  0  0  0  0  0  0  0  0
    2.3474   -1.3397   -0.2323 H   0  0  0  0  0  0  0  0  0  0  0  0
   -3.5245    1.7736    0.1856 H   0  0  0  0  0  0  0  0  0  0  0  0
    4.1510    0.6065    0.7362 H   0  0  0  0  0  0  0  0  0  0  0  0
    4.0866    0.7876   -1.0301 H   0  0  0  0  0  0  0  0  0  0  0  0
   -2.4745   -3.0802   -0.1742 H   0  0  0  0  0  0  0  0  0  0  0  0
   -5.3712    0.0882    0.1437 H   0  0  0  0  0  0  0  0  0  0  0  0
   -4.8086   -2.3230   -0.0373 H   0  0  0  0  0  0  0  0  0  0  0  0
    5.9042   -0.7586   -0.3764 H   0  0  0  0  0  0  0  0  0  0  0  0
    4.6514   -1.6493   -1.2810 H   0  0  0  0  0  0  0  0  0  0  0  0
    0.8072    3.7357    0.1532 H   0  0  0  0  0  0  0  0  0  0  0  0
    5.2984   -2.7156    0.6210 H   0  0  0  0  0  0  0  0  0  0  0  0
  1 16  1  0  0  0  0
  1 28  1  0  0  0  0
  2  8  1  0  0  0  0
  2  9  1  0  0  0  0
  2 11  1  0  0  0  0
  3  7  1  0  0  0  0
  3  9  2  0  0  0  0
  4 10  1  0  0  0  0
  4 12  1  0  0  0  0
  4 18  1  0  0  0  0
  5  8  2  0  0  0  0
  5 17  1  0  0  0  0
  6 10  1  0  0  0  0
  6 17  2  0  0  0  0
  7  8  1  0  0  0  0
  7 10  2  0  0  0  0
  9 13  1  0  0  0  0
 11 14  2  0  0  0  0
 11 19  1  0  0  0  0
 12 16  1  0  0  0  0
 12 20  1  0  0  0  0
 12 21  1  0  0  0  0
 13 15  2  0  0  0  0
 13 22  1  0  0  0  0
 14 15  1  0  0  0  0
 14 23  1  0  0  0  0
 15 24  1  0  0  0  0
 16 25  1  0  0  0  0
 16 26  1  0  0  0  0
 17 27  1  0  0  0  0
M  END
> <DATABASE_ID>
DB01994

> <DATABASE_NAME>
drugbank

> <ORIGINAL_SOURCE>
PUBCHEM

> <ORIGINAL_SOURCE_URL>
https://pubchem.ncbi.nlm.nih.gov/rest/pug/compound/inchikey/QBILBVYKWQWDQJ-UHFFFAOYSA-N/SDF?record_type=3d

> <SMILES>
OCCNC1=NC=NC2=C1N=C1C=CC=CN21

> <INCHI_IDENTIFIER>
InChI=1S/C11H11N5O/c17-6-4-12-10-9-11(14-7-13-10)16-5-2-1-3-8(16)15-9/h1-3,5,7,17H,4,6H2,(H,12,13,14)

> <INCHI_KEY>
QBILBVYKWQWDQJ-UHFFFAOYSA-N

> <FORMULA>
C11H11N5O

> <MOLECULAR_WEIGHT>
229.2379

> <EXACT_MASS>
229.096359999

> <JCHEM_ACCEPTOR_COUNT>
5

> <JCHEM_AVERAGE_POLARIZABILITY>
23.915926035099794

> <JCHEM_BIOAVAILABILITY>
1

> <JCHEM_DONOR_COUNT>
2

> <JCHEM_FORMAL_CHARGE>
0

> <JCHEM_GHOSE_FILTER>
1

> <JCHEM_IUPAC>
2-({pyrido[2,1-h]purin-4-yl}amino)ethan-1-ol

> <ALOGPS_LOGP>
0.85

> <JCHEM_LOGP>
-0.014637029333333353

> <ALOGPS_LOGS>
-3.06

> <JCHEM_MDDR_LIKE_RULE>
0

> <JCHEM_NUMBER_OF_RINGS>
3

> <JCHEM_PHYSIOLOGICAL_CHARGE>
0

> <JCHEM_PKA>
17.4383338564022

> <JCHEM_PKA_STRONGEST_ACIDIC>
15.334775017201029

> <JCHEM_PKA_STRONGEST_BASIC>
0.5896078532084184

> <JCHEM_POLAR_SURFACE_AREA>
75.34

> <JCHEM_REFRACTIVITY>
65.3086

> <JCHEM_ROTATABLE_BOND_COUNT>
3

> <JCHEM_RULE_OF_FIVE>
1

> <ALOGPS_SOLUBILITY>
1.99e-01 g/l

> <JCHEM_TRADITIONAL_IUPAC>
2-{pyrido[2,1-h]purin-4-ylamino}ethanol

> <JCHEM_VEBER_RULE>
0

> <DRUGBANK_ID>
DB01994

> <SECONDARY_ACCESSION_NUMBERS>
EXPT02650

> <DRUG_GROUPS>
experimental

> <GENERIC_NAME>
2-(Pyrido[1,2-E]Purin-4-Yl)Amino-Ethanol

$$$$
