REMARK  Name = 460612
REMARK  10 active torsions:
REMARK  status: ('A' for Active; 'I' for Inactive)
REMARK    1  A    between atoms: C_1  and  N_7
REMARK    2  A    between atoms: C_2  and  C_14
REMARK    3  A    between atoms: N_7  and  C_8
REMARK    4  A    between atoms: N_7  and  C_11
REMARK    5  A    between atoms: C_8  and  C_10
REMARK    6  A    between atoms: C_11  and  C_13
REMARK    7  A    between atoms: C_14  and  CA_15
REMARK    8  A    between atoms: CA_15  and  N_16
REMARK    9  A    between atoms: CA_15  and  C_21
REMARK   10  A    between atoms: C_21  and  O_22
REMARK                            x       y       z     vdW  Elec       q    Type
REMARK                         _______ _______ _______ _____ _____    ______ ____
ROOT
ATOM      1  C   UNL     1       1.193   0.025   0.319  0.00  0.00    +0.048 C 
ATOM      2  C   UNL     1      -1.499   0.081   0.968  0.00  0.00    -0.024 C 
ATOM      3  C   UNL     1       0.632   1.177   0.870  0.00  0.00    +0.014 C 
ATOM      4  C   UNL     1       0.398  -1.098   0.094  0.00  0.00    +0.014 C 
ATOM      5  C   UNL     1      -0.723   1.206   1.198  0.00  0.00    -0.003 C 
ATOM      6  C   UNL     1      -0.958  -1.070   0.421  0.00  0.00    -0.003 C 
ENDROOT
BRANCH   1   7
ATOM      7  N   UNL     1       2.564  -0.003  -0.013  0.00  0.00    -0.305 N 
BRANCH   7   8
ATOM      8  C   UNL     1       3.156  -1.194  -0.587  0.00  0.00    +0.108 C 
BRANCH   8  10
ATOM      9 CL   UNL     1       4.184  -3.697  -0.207  0.00  0.00    -0.112 Cl
ATOM     10  C   UNL     1       3.465  -2.223   0.489  0.00  0.00    +0.116 C 
ENDBRANCH   8  10
ENDBRANCH   7   8
BRANCH   7  11
ATOM     11  C   UNL     1       3.395   1.165   0.203  0.00  0.00    +0.108 C 
BRANCH  11  13
ATOM     12 CL   UNL     1       4.224   3.622  -0.656  0.00  0.00    -0.112 Cl
ATOM     13  C   UNL     1       3.215   2.178  -0.916  0.00  0.00    +0.116 C 
ENDBRANCH  11  13
ENDBRANCH   7  11
ENDBRANCH   1   7
BRANCH   2  14
ATOM     14  C   UNL     1      -2.968   0.111   1.323  0.00  0.00    +0.015 C 
BRANCH  14  15
ATOM     15  CA  UNL     1      -3.852   0.598   0.164  0.00  0.00    +0.040 C 
BRANCH  15  16
ATOM     16  N   UNL     1      -5.252   0.605   0.581  0.00  0.00    +0.389 N 
ATOM     17  H1  UNL     1      -5.362   1.210   1.395  0.00  0.00    -0.088 HD
ATOM     18  H2  UNL     1      -5.541  -0.343   0.821  0.00  0.00    -0.088 HD
ATOM     19  H3  UNL     1      -5.832   0.954  -0.182  0.00  0.00    -0.088 HD
ENDBRANCH  15  16
BRANCH  15  21
ATOM     20  OXT UNL     1      -4.034  -1.512  -1.040  0.00  0.00    -0.253 OA
ATOM     21  C   UNL     1      -3.764  -0.317  -1.045  0.00  0.00    +0.293 C 
BRANCH  21  22
ATOM     22  O   UNL     1      -3.378   0.344  -2.167  0.00  0.00    -0.482 OA
ATOM     23  H   UNL     1      -3.180   1.259  -2.126  0.00  0.00    +0.295 HD
ENDBRANCH  21  22
ENDBRANCH  15  21
ENDBRANCH  14  15
ENDBRANCH   2  14
TORSDOF 10
