443884
  -OEChem-10051719333D

 47 50  0     1  0  0  0  0  0999 V2000
   -3.1665   -0.1685   -1.3737 O   0  0  0  0  0  0  0  0  0  0  0  0
   -6.2386   -0.4678    0.8389 O   0  0  0  0  0  0  0  0  0  0  0  0
   -0.0849   -2.5522    0.0441 N   0  0  1  0  0  0  0  0  0  0  0  0
    5.2208    0.2468    0.1413 N   0  0  0  0  0  0  0  0  0  0  0  0
   -3.6337    0.6573    0.7521 N   0  0  0  0  0  0  0  0  0  0  0  0
    0.9972   -1.5910   -0.3109 C   0  0  1  0  0  0  0  0  0  0  0  0
    0.6436   -0.1158    0.0453 C   0  0  0  0  0  0  0  0  0  0  0  0
    2.3514   -2.0721    0.3310 C   0  0  0  0  0  0  0  0  0  0  0  0
   -1.7250   -0.7535    0.4365 C   0  0  1  0  0  0  0  0  0  0  0  0
   -1.4021   -2.0286   -0.3463 C   0  0  0  0  0  0  0  0  0  0  0  0
    3.3948   -1.0173    0.2291 C   0  0  0  0  0  0  0  0  0  0  0  0
    1.7323    0.8850   -0.0169 C   0  0  0  0  0  0  0  0  0  0  0  0
    3.0149    0.3317    0.0743 C   0  0  0  0  0  0  0  0  0  0  0  0
   -0.5997    0.2345    0.4184 C   0  0  0  0  0  0  0  0  0  0  0  0
    4.1565    1.1143    0.0242 C   0  0  0  0  0  0  0  0  0  0  0  0
    0.1160   -3.8676   -0.5727 C   0  0  0  0  0  0  0  0  0  0  0  0
    4.7688   -1.0489    0.2687 C   0  0  0  0  0  0  0  0  0  0  0  0
   -2.9126   -0.0745   -0.1757 C   0  0  0  0  0  0  0  0  0  0  0  0
    1.6439    2.2748   -0.1624 C   0  0  0  0  0  0  0  0  0  0  0  0
    4.0861    2.5008   -0.1193 C   0  0  0  0  0  0  0  0  0  0  0  0
    2.8030    3.0627   -0.2113 C   0  0  0  0  0  0  0  0  0  0  0  0
   -4.8107    1.4238    0.4121 C   0  0  2  0  0  0  0  0  0  0  0  0
   -5.9071    0.5134   -0.1370 C   0  0  0  0  0  0  0  0  0  0  0  0
   -4.4483    2.5125   -0.5897 C   0  0  0  0  0  0  0  0  0  0  0  0
    1.1287   -1.5985   -1.4048 H   0  0  0  0  0  0  0  0  0  0  0  0
    2.7126   -2.9773   -0.1697 H   0  0  0  0  0  0  0  0  0  0  0  0
    2.1991   -2.3125    1.3913 H   0  0  0  0  0  0  0  0  0  0  0  0
   -1.9433   -1.0158    1.4799 H   0  0  0  0  0  0  0  0  0  0  0  0
   -2.1853   -2.7661   -0.1247 H   0  0  0  0  0  0  0  0  0  0  0  0
   -1.4278   -1.8646   -1.4327 H   0  0  0  0  0  0  0  0  0  0  0  0
   -0.8216    1.2537    0.7244 H   0  0  0  0  0  0  0  0  0  0  0  0
   -0.7126   -4.5405   -0.3226 H   0  0  0  0  0  0  0  0  0  0  0  0
    1.0166   -4.3568   -0.1905 H   0  0  0  0  0  0  0  0  0  0  0  0
    0.1865   -3.8052   -1.6644 H   0  0  0  0  0  0  0  0  0  0  0  0
    5.4698   -1.8644    0.3783 H   0  0  0  0  0  0  0  0  0  0  0  0
    0.6782    2.7657   -0.2507 H   0  0  0  0  0  0  0  0  0  0  0  0
    6.1937    0.5204    0.1393 H   0  0  0  0  0  0  0  0  0  0  0  0
    4.9761    3.1184   -0.1593 H   0  0  0  0  0  0  0  0  0  0  0  0
    2.7061    4.1401   -0.3270 H   0  0  0  0  0  0  0  0  0  0  0  0
   -3.3266    0.6750    1.7203 H   0  0  0  0  0  0  0  0  0  0  0  0
   -5.1498    1.8814    1.3488 H   0  0  0  0  0  0  0  0  0  0  0  0
   -6.8130    1.0928   -0.3437 H   0  0  0  0  0  0  0  0  0  0  0  0
   -5.6279   -0.0004   -1.0612 H   0  0  0  0  0  0  0  0  0  0  0  0
   -5.3016    3.1809   -0.7483 H   0  0  0  0  0  0  0  0  0  0  0  0
   -4.1637    2.1123   -1.5676 H   0  0  0  0  0  0  0  0  0  0  0  0
   -3.6130    3.1194   -0.2227 H   0  0  0  0  0  0  0  0  0  0  0  0
   -5.4315   -0.9769    1.0260 H   0  0  0  0  0  0  0  0  0  0  0  0
  1 18  2  0  0  0  0
  2 23  1  0  0  0  0
  2 47  1  0  0  0  0
  3  6  1  0  0  0  0
  3 10  1  0  0  0  0
  3 16  1  0  0  0  0
  4 15  1  0  0  0  0
  4 17  1  0  0  0  0
  4 37  1  0  0  0  0
  5 18  1  0  0  0  0
  5 22  1  0  0  0  0
  5 40  1  0  0  0  0
  6  7  1  0  0  0  0
  6  8  1  0  0  0  0
  6 25  1  0  0  0  0
  7 12  1  0  0  0  0
  7 14  2  0  0  0  0
  8 11  1  0  0  0  0
  8 26  1  0  0  0  0
  8 27  1  0  0  0  0
  9 10  1  0  0  0  0
  9 14  1  0  0  0  0
  9 18  1  0  0  0  0
  9 28  1  0  0  0  0
 10 29  1  0  0  0  0
 10 30  1  0  0  0  0
 11 13  1  0  0  0  0
 11 17  2  0  0  0  0
 12 13  2  0  0  0  0
 12 19  1  0  0  0  0
 13 15  1  0  0  0  0
 14 31  1  0  0  0  0
 15 20  2  0  0  0  0
 16 32  1  0  0  0  0
 16 33  1  0  0  0  0
 16 34  1  0  0  0  0
 17 35  1  0  0  0  0
 19 21  2  0  0  0  0
 19 36  1  0  0  0  0
 20 21  1  0  0  0  0
 20 38  1  0  0  0  0
 21 39  1  0  0  0  0
 22 23  1  0  0  0  0
 22 24  1  0  0  0  0
 22 41  1  0  0  0  0
 23 42  1  0  0  0  0
 23 43  1  0  0  0  0
 24 44  1  0  0  0  0
 24 45  1  0  0  0  0
 24 46  1  0  0  0  0
M  END
> <DATABASE_ID>
DB01253

> <DATABASE_NAME>
drugbank

> <ORIGINAL_SOURCE>
PUBCHEM

> <ORIGINAL_SOURCE_URL>
https://pubchem.ncbi.nlm.nih.gov/rest/pug/compound/inchikey/WVVSZNPYNCNODU-XTQGRXLLSA-N/SDF?record_type=3d

> <SMILES>
[H][C@@]12CC3=CNC4=CC=CC(=C34)C1=C[C@H](CN2C)C(=O)N[C@@H](C)CO

> <INCHI_IDENTIFIER>
InChI=1S/C19H23N3O2/c1-11(10-23)21-19(24)13-6-15-14-4-3-5-16-18(14)12(8-20-16)7-17(15)22(2)9-13/h3-6,8,11,13,17,20,23H,7,9-10H2,1-2H3,(H,21,24)/t11-,13+,17+/m0/s1

> <INCHI_KEY>
WVVSZNPYNCNODU-XTQGRXLLSA-N

> <FORMULA>
C19H23N3O2

> <MOLECULAR_WEIGHT>
325.4048

> <EXACT_MASS>
325.179026995

> <JCHEM_ACCEPTOR_COUNT>
3

> <JCHEM_AVERAGE_POLARIZABILITY>
36.53515172912834

> <JCHEM_BIOAVAILABILITY>
1

> <JCHEM_DONOR_COUNT>
3

> <JCHEM_FORMAL_CHARGE>
0

> <JCHEM_GHOSE_FILTER>
1

> <JCHEM_IUPAC>
(4R,7R)-N-[(2S)-1-hydroxypropan-2-yl]-6-methyl-6,11-diazatetracyclo[7.6.1.0²,⁷.0¹²,¹⁶]hexadeca-1(16),2,9,12,14-pentaene-4-carboxamide

> <ALOGPS_LOGP>
1.53

> <JCHEM_LOGP>
1.0706959856666662

> <ALOGPS_LOGS>
-3.01

> <JCHEM_MDDR_LIKE_RULE>
0

> <JCHEM_NUMBER_OF_RINGS>
4

> <JCHEM_PHYSIOLOGICAL_CHARGE>
1

> <JCHEM_PKA>
15.936197047508507

> <JCHEM_PKA_STRONGEST_ACIDIC>
14.998553275855407

> <JCHEM_PKA_STRONGEST_BASIC>
7.9273088332375305

> <JCHEM_POLAR_SURFACE_AREA>
68.36

> <JCHEM_REFRACTIVITY>
95.05190000000002

> <JCHEM_ROTATABLE_BOND_COUNT>
3

> <JCHEM_RULE_OF_FIVE>
1

> <ALOGPS_SOLUBILITY>
3.21e-01 g/l

> <JCHEM_TRADITIONAL_IUPAC>
ergonovine

> <JCHEM_VEBER_RULE>
0

> <DRUGBANK_ID>
DB01253

> <DRUG_GROUPS>
approved

> <GENERIC_NAME>
Ergometrine

> <SYNONYMS>
(6aR,9R)-7-Methyl-4,6,6a,7,8,9-hexahydro-indolo[4,3-fg]quinoline-9-carboxylic acid ((S)-2-hydroxy-1-methyl-ethyl)-amide; [8β(S)]-9,10-didehydro-N-(2-hydroxy-1-methylethyl)-6-methylergoline-8-carboxamide; 9,10-didehydro-N-(2-hydroxy-1-methylethyl)-6-methylergoline-8β(S)-carboxamide; 9,10-didehydro-N-(α-(hydroxymethyl)ethyl)-6-methylergoline-8-β-carboxamide; D-lysergic acid 1-hydroxymethylethylamide; D-lysergic acid-L-propanolamide; Ergobasine; Ergometrina; Ergometrine; Ergométrine; Ergometrinum; Ergonovine; Ergotocine; Margonovine; N-(2-Hydroxy-1-methylethyl)-D-(+)-lysergamide; N-(α-(hydroxymethyl)ethyl)-D-lysergamide

> <PRODUCTS>
Ergonovine Maleate; Ergonovine Maleate Injection; Ergonovine Maleate Injection USP; Ergonovine Maleate Injection USP, 0.25mg/ml; Ergotrate Maleate; Ergotrate Maleate Tablet 1572 0.2mg

> <SALTS>
Ergonovine maleate

$$$$
