REMARK  Name = 446947
REMARK  10 active torsions:
REMARK  status: ('A' for Active; 'I' for Inactive)
REMARK    1  A    between atoms: C_1  and  O_2
REMARK    2  A    between atoms: C_1  and  C_4
REMARK    3  A    between atoms: C_1  and  C_11
REMARK    4  A    between atoms: C_4  and  O_5
REMARK    5  A    between atoms: C_4  and  C_8
REMARK    6  A    between atoms: C_8  and  O_9
REMARK    7  A    between atoms: C_11  and  O_12
REMARK    8  A    between atoms: O_12  and  P_13
REMARK    9  A    between atoms: P_13  and  O_15
REMARK   10  A    between atoms: P_13  and  O_17
REMARK                            x       y       z     vdW  Elec       q    Type
REMARK                         _______ _______ _______ _____ _____    ______ ____
ROOT
ATOM      1  C   UNL     1      -0.793   0.683  -0.497  0.00  0.00    +0.178 C 
ENDROOT
BRANCH   1   2
ATOM      2  O   UNL     1      -1.444   1.941  -0.314  0.00  0.00    -0.379 OA
ATOM      3  H   UNL     1      -2.380   1.858  -0.555  0.00  0.00    +0.211 HD
ENDBRANCH   1   2
BRANCH   1   4
ATOM      4  C   UNL     1      -1.539  -0.420   0.265  0.00  0.00    +0.239 C 
BRANCH   4   5
ATOM      5  O   UNL     1      -1.506  -0.084   1.650  0.00  0.00    -0.373 OA
ATOM      6  H   UNL     1      -0.584   0.001   1.940  0.00  0.00    +0.211 HD
ENDBRANCH   4   5
BRANCH   4   8
ATOM      7  O   UNL     1      -3.941  -0.294   0.623  0.00  0.00    -0.248 OA
ATOM      8  C   UNL     1      -3.001  -0.537  -0.123  0.00  0.00    +0.344 C 
BRANCH   8   9
ATOM      9  O   UNL     1      -3.164  -0.932  -1.411  0.00  0.00    -0.478 OA
ATOM     10  H   UNL     1      -2.415  -1.107  -1.946  0.00  0.00    +0.295 HD
ENDBRANCH   8   9
ENDBRANCH   4   8
ENDBRANCH   1   4
BRANCH   1  11
ATOM     11  C   UNL     1       0.672   0.851  -0.110  0.00  0.00    +0.186 C 
BRANCH  11  12
ATOM     12  O   UNL     1       1.415  -0.326  -0.382  0.00  0.00    -0.271 OA
BRANCH  12  13
ATOM     13  P   UNL     1       2.996  -0.338  -0.036  0.00  0.00    +0.473 P 
ATOM     14  O   UNL     1       3.705  -1.622  -0.355  0.00  0.00    -0.227 OA
BRANCH  13  15
ATOM     15  O   UNL     1       3.053   0.116   1.515  0.00  0.00    -0.303 OA
ATOM     16  H   UNL     1       2.571   0.951   1.625  0.00  0.00    +0.222 HD
ENDBRANCH  13  15
BRANCH  13  17
ATOM     17  O   UNL     1       3.547   0.961  -0.825  0.00  0.00    -0.303 OA
ATOM     18  H   UNL     1       3.036   1.741  -0.560  0.00  0.00    +0.222 HD
ENDBRANCH  13  17
ENDBRANCH  12  13
ENDBRANCH  11  12
ENDBRANCH   1  11
TORSDOF 10
