REMARK  Name = 9571107
REMARK  7 active torsions:
REMARK  status: ('A' for Active; 'I' for Inactive)
REMARK    1  A    between atoms: N_3  and  C_26
REMARK    2  A    between atoms: C_9  and  C_30
REMARK    3  A    between atoms: N_14  and  C_18
REMARK    4  A    between atoms: N_14  and  O_19
REMARK    5  A    between atoms: C_15  and  C_21
REMARK    6  A    between atoms: C_21  and  N_22
REMARK    7  A    between atoms: C_30  and  O_31
REMARK                            x       y       z     vdW  Elec       q    Type
REMARK                         _______ _______ _______ _____ _____    ______ ____
ROOT
ATOM      1  F   UNL     1       1.395  -2.670  -0.183  0.00  0.00    -0.200 F 
ATOM      2  O   UNL     1      -3.664  -2.613  -0.309  0.00  0.00    -0.290 OA
ATOM      3  N   UNL     1      -2.499   1.242   0.244  0.00  0.00    -0.266 N 
ATOM      4  N   UNL     1      -0.170   0.584   0.219  0.00  0.00    -0.373 NA
ATOM      5  C   UNL     1      -1.484   0.246   0.139  0.00  0.00    +0.177 C 
ATOM      6  C   UNL     1      -3.830   0.888   0.197  0.00  0.00    +0.076 C 
ATOM      7  C   UNL     1       0.751  -0.400   0.108  0.00  0.00    +0.212 C 
ATOM      8  C   UNL     1      -1.872  -1.090  -0.051  0.00  0.00    +0.153 C 
ATOM      9  C   UNL     1      -4.297  -0.355   0.022  0.00  0.00    +0.126 C 
ATOM     10  C   UNL     1      -3.309  -1.455  -0.129  0.00  0.00    +0.192 C 
ATOM     11  C   UNL     1       0.443  -1.734  -0.081  0.00  0.00    +0.180 C 
ATOM     12  C   UNL     1      -0.897  -2.083  -0.161  0.00  0.00    +0.023 C 
ATOM     13  N   UNL     1       2.090  -0.062   0.189  0.00  0.00    -0.280 N 
ATOM     14  C   UNL     1       4.082   1.252   0.454  0.00  0.00    +0.018 C 
ATOM     15  C   UNL     1       2.576   1.318   0.169  0.00  0.00    +0.093 C 
ATOM     16  C   UNL     1       3.158  -1.045   0.082  0.00  0.00    +0.113 C 
ATOM     17  C   UNL     1       4.386  -0.193   0.181  0.00  0.00    +0.122 C 
ENDROOT
BRANCH   3  18
ATOM     18  C   UNL     1      -2.126   2.651   0.481  0.00  0.00    +0.079 C 
ATOM     19  C   UNL     1      -2.606   3.735  -0.428  0.00  0.00    +0.022 C 
ATOM     20  C   UNL     1      -1.156   3.350  -0.416  0.00  0.00    +0.022 C 
ENDBRANCH   3  18
BRANCH   9  22
ATOM     21  O   UNL     1      -6.551   0.267  -0.404  0.00  0.00    -0.245 OA
ATOM     22  C   UNL     1      -5.745  -0.558  -0.011  0.00  0.00    +0.342 C 
BRANCH  22  23
ATOM     23  O   UNL     1      -6.042  -1.789   0.458  0.00  0.00    -0.477 OA
ATOM     24  H   UNL     1      -5.355  -2.361   0.741  0.00  0.00    +0.295 HD
ENDBRANCH  22  23
ENDBRANCH   9  22
BRANCH  17  25
ATOM     25  N   UNL     1       5.585  -0.661   0.088  0.00  0.00    -0.083 NA
BRANCH  25  26
ATOM     26  O   UNL     1       5.504  -2.045  -0.112  0.00  0.00    -0.263 OA
ATOM     27  C   UNL     1       6.826  -2.554  -0.214  0.00  0.00    +0.202 C 
ENDBRANCH  25  26
ENDBRANCH  17  25
BRANCH  14  28
ATOM     28  C   UNL     1       4.888   2.205  -0.411  0.00  0.00    -0.083 C 
BRANCH  28  29
ATOM     29  N   UNL     1       4.563   3.570  -0.121  0.00  0.00    +0.381 N 
ATOM     30  H   UNL     1       5.118   4.186  -0.715  0.00  0.00    -0.089 HD
ATOM     31  H   UNL     1       4.769   3.767   0.859  0.00  0.00    -0.089 HD
ATOM     32  H   UNL     1       3.571   3.729  -0.298  0.00  0.00    -0.089 HD
ENDBRANCH  28  29
ENDBRANCH  14  28
TORSDOF 7
