REMARK  Name = 61583
REMARK  4 active torsions:
REMARK  status: ('A' for Active; 'I' for Inactive)
REMARK    1  A    between atoms: C_2  and  C_9
REMARK    2  A    between atoms: C_2  and  O_15
REMARK    3  A    between atoms: O_15  and  C_17
REMARK    4  A    between atoms: C_17  and  C_18
REMARK                            x       y       z     vdW  Elec       q    Type
REMARK                         _______ _______ _______ _____ _____    ______ ____
ROOT
ATOM      1  N   UNL     1       3.191   1.081   0.072  0.00  0.00    +0.386 N 
ATOM      2  C   UNL     1       0.294   0.584  -0.391  0.00  0.00    +0.150 C 
ATOM      3  C   UNL     1       0.848   1.336   0.842  0.00  0.00    +0.022 C 
ATOM      4  C   UNL     1       1.341   0.738  -1.519  0.00  0.00    +0.022 C 
ATOM      5  C   UNL     1       2.279   0.928   1.212  0.00  0.00    -0.074 C 
ATOM      6  C   UNL     1       2.739   0.295  -1.082  0.00  0.00    -0.074 C 
ATOM      7  C   UNL     1       4.553   0.705   0.449  0.00  0.00    -0.101 C 
ATOM      8  H   UNL     1       3.189   2.064  -0.200  0.00  0.00    -0.080 HD
ENDROOT
BRANCH   2   9
ATOM      9  C   UNL     1      -0.134  -0.870  -0.177  0.00  0.00    +0.013 C 
ATOM     10  C   UNL     1      -0.015  -1.452   1.084  0.00  0.00    -0.001 C 
ATOM     11  C   UNL     1      -0.642  -1.610  -1.244  0.00  0.00    -0.001 C 
ATOM     12  C   UNL     1      -0.405  -2.776   1.279  0.00  0.00    -0.000 C 
ATOM     13  C   UNL     1      -1.032  -2.935  -1.048  0.00  0.00    -0.000 C 
ATOM     14  C   UNL     1      -0.914  -3.518   0.213  0.00  0.00    -0.000 C 
ENDBRANCH   2   9
BRANCH   2  15
ATOM     15  O   UNL     1      -0.881   1.297  -0.811  0.00  0.00    -0.452 OA
BRANCH  15  17
ATOM     16  O   UNL     1      -1.936   0.736   1.162  0.00  0.00    -0.250 OA
ATOM     17  C   UNL     1      -1.927   1.289   0.071  0.00  0.00    +0.317 C 
BRANCH  17  18
ATOM     18  C   UNL     1      -3.075   2.076  -0.516  0.00  0.00    +0.110 C 
ATOM     19  C   UNL     1      -4.284   2.096   0.403  0.00  0.00    +0.012 C 
ENDBRANCH  17  18
ENDBRANCH  15  17
ENDBRANCH   2  15
TORSDOF 4
