REMARK  Name = 5289105
REMARK  5 active torsions:
REMARK  status: ('A' for Active; 'I' for Inactive)
REMARK    1  A    between atoms: C_1  and  C_4
REMARK    2  A    between atoms: C_1  and  C_10
REMARK    3  A    between atoms: C_4  and  C_7
REMARK    4  A    between atoms: C_4  and  O_8
REMARK    5  A    between atoms: C_10  and  O_11
REMARK                            x       y       z     vdW  Elec       q    Type
REMARK                         _______ _______ _______ _____ _____    ______ ____
ROOT
ATOM      1  C   UNL     1      -0.787  -0.475  -0.102  0.00  0.00    +0.062 C 
ATOM      2  C   UNL     1      -0.508  -1.825   0.589  0.00  0.00    +0.005 C 
ATOM      3  C   UNL     1      -0.763  -0.717  -1.630  0.00  0.00    +0.005 C 
ENDROOT
BRANCH   1   4
ATOM      4  C   UNL     1       0.292   0.586   0.247  0.00  0.00    +0.216 C 
BRANCH   4   7
ATOM      5  O   UNL     1       2.150  -0.873   0.337  0.00  0.00    -0.243 OA
ATOM      6  O   UNL     1       2.317   1.023  -0.927  0.00  0.00    -0.243 OA
ATOM      7  C   UNL     1       1.727   0.210  -0.161  0.00  0.00    +0.391 C 
ENDBRANCH   4   7
BRANCH   4   8
ATOM      8  O   UNL     1       0.294   0.833   1.655  0.00  0.00    -0.374 OA
ATOM      9  H   UNL     1      -0.601   1.073   1.943  0.00  0.00    +0.211 HD
ENDBRANCH   4   8
ENDBRANCH   1   4
BRANCH   1  10
ATOM     10  C   UNL     1      -2.201  -0.001   0.306  0.00  0.00    +0.140 C 
BRANCH  10  11
ATOM     11  O   UNL     1      -2.521   1.238  -0.314  0.00  0.00    -0.382 OA
ATOM     12  H   UNL     1      -3.411   1.515  -0.043  0.00  0.00    +0.210 HD
ENDBRANCH  10  11
ENDBRANCH   1  10
TORSDOF 5
