REMARK  Name = 5362391
REMARK  10 active torsions:
REMARK  status: ('A' for Active; 'I' for Inactive)
REMARK    1  A    between atoms: N_1  and  O_19
REMARK    2  A    between atoms: C_2  and  C_4
REMARK    3  A    between atoms: C_2  and  C_9
REMARK    4  A    between atoms: C_11  and  C_18
REMARK    5  A    between atoms: O_19  and  C_20
REMARK    6  A    between atoms: C_20  and  C_21
REMARK    7  A    between atoms: C_21  and  C_22
REMARK    8  A    between atoms: C_22  and  C_23
REMARK    9  A    between atoms: C_23  and  C_25
REMARK   10  A    between atoms: C_25  and  O_26
REMARK                            x       y       z     vdW  Elec       q    Type
REMARK                         _______ _______ _______ _____ _____    ______ ____
ROOT
ATOM      1  N   UNL     1      -1.018   2.072   0.101  0.00  0.00    -0.083 NA
ATOM      2  C   UNL     1      -1.681   0.958   0.219  0.00  0.00    +0.121 C 
ENDROOT
BRANCH   2   4
ATOM      3  N   UNL     1      -4.996   2.127  -1.043  0.00  0.00    -0.242 NA
ATOM      4  C   UNL     1      -3.121   0.937  -0.187  0.00  0.00    +0.040 C 
ATOM      5  C   UNL     1      -3.834  -0.226  -0.078  0.00  0.00    +0.005 C 
ATOM      6  C   UNL     1      -3.701   2.077  -0.659  0.00  0.00    +0.100 C 
ATOM      7  C   UNL     1      -5.170  -0.214  -0.463  0.00  0.00    +0.021 C 
ATOM      8  C   UNL     1      -5.699   0.977  -0.934  0.00  0.00    +0.099 C 
ENDBRANCH   2   4
BRANCH   2   9
ATOM      9  C   UNL     1      -1.076  -0.297   0.729  0.00  0.00    +0.021 C 
ATOM     10  C   UNL     1      -0.481  -1.165  -0.164  0.00  0.00    +0.005 C 
ATOM     11  C   UNL     1       0.088  -2.344   0.317  0.00  0.00    +0.071 C 
ATOM     12  C   UNL     1      -1.125  -0.559   2.084  0.00  0.00    +0.002 C 
ATOM     13  C   UNL     1       0.050  -2.631   1.681  0.00  0.00    +0.004 C 
ATOM     14  C   UNL     1      -0.556  -1.738   2.565  0.00  0.00    -0.000 C 
BRANCH  11  18
ATOM     15  F   UNL     1       1.252  -4.407  -0.018  0.00  0.00    -0.166 F 
ATOM     16  F   UNL     1      -0.108  -3.779  -1.587  0.00  0.00    -0.166 F 
ATOM     17  F   UNL     1       1.780  -2.737  -1.306  0.00  0.00    -0.166 F 
ATOM     18  C   UNL     1       0.738  -3.299  -0.628  0.00  0.00    +0.419 C 
ENDBRANCH  11  18
ENDBRANCH   2   9
BRANCH   1  19
ATOM     19  O   UNL     1       0.325   1.931   0.475  0.00  0.00    -0.377 OA
BRANCH  19  20
ATOM     20  C   UNL     1       0.962   3.190   0.314  0.00  0.00    +0.238 C 
BRANCH  20  21
ATOM     21  C   UNL     1       2.430   3.086   0.710  0.00  0.00    +0.051 C 
BRANCH  21  22
ATOM     22  C   UNL     1       3.182   2.047  -0.132  0.00  0.00    +0.016 C 
BRANCH  22  23
ATOM     23  C   UNL     1       4.663   1.955   0.241  0.00  0.00    +0.109 C 
BRANCH  23  25
ATOM     24  O   UNL     1       4.959   0.271  -1.493  0.00  0.00    -0.250 OA
ATOM     25  C   UNL     1       5.424   0.939  -0.581  0.00  0.00    +0.314 C 
BRANCH  25  26
ATOM     26  O   UNL     1       6.713   0.830  -0.165  0.00  0.00    -0.480 OA
ATOM     27  H   UNL     1       7.025   1.364   0.539  0.00  0.00    +0.295 HD
ENDBRANCH  25  26
ENDBRANCH  23  25
ENDBRANCH  22  23
ENDBRANCH  21  22
ENDBRANCH  20  21
ENDBRANCH  19  20
ENDBRANCH   1  19
TORSDOF 10
