REMARK  Name = 5479529
REMARK  9 active torsions:
REMARK  status: ('A' for Active; 'I' for Inactive)
REMARK    1  A    between atoms: CA_5  and  N_11
REMARK    2  A    between atoms: CA_7  and  C_24
REMARK    3  A    between atoms: C_8  and  C_27
REMARK    4  A    between atoms: C_12  and  C_15
REMARK    5  A    between atoms: N_14  and  O_21
REMARK    6  A    between atoms: C_15  and  C_17
REMARK    7  A    between atoms: C_24  and  O_25
REMARK    8  A    between atoms: C_27  and  O_28
REMARK    9  A    between atoms: O_28  and  C_31
REMARK                            x       y       z     vdW  Elec       q    Type
REMARK                         _______ _______ _______ _____ _____    ______ ____
ROOT
ATOM      1  S   UNL     1      -0.703   1.194  -1.696  0.00  0.00    -0.114 S 
ATOM      2  O   UNL     1       0.266   0.080   2.712  0.00  0.00    -0.273 OA
ATOM      3  N   UNL     1      -1.094   0.658   0.875  0.00  0.00    -0.242 N 
ATOM      4  C   UNL     1      -0.679   1.756   0.021  0.00  0.00    +0.155 C 
ATOM      5  CA  UNL     1       0.681   1.681   0.749  0.00  0.00    +0.179 C 
ATOM      6  C   UNL     1      -0.026   0.676   1.702  0.00  0.00    +0.251 C 
ATOM      7  CA  UNL     1      -2.249  -0.036   0.704  0.00  0.00    +0.127 C 
ATOM      8  C   UNL     1      -2.961   0.048  -0.446  0.00  0.00    +0.030 C 
ATOM      9  C   UNL     1      -2.491   0.832  -1.669  0.00  0.00    +0.086 C 
ENDROOT
BRANCH   5  11
ATOM     10  O   UNL     1       3.266   0.819   1.870  0.00  0.00    -0.268 OA
ATOM     11  N   UNL     1       1.825   1.108   0.040  0.00  0.00    -0.291 N 
ATOM     12  C   UNL     1       2.995   0.740   0.682  0.00  0.00    +0.270 C 
ATOM     13  H   UNL     1       1.761   0.979  -0.934  0.00  0.00    +0.150 HD
BRANCH  12  15
ATOM     14  N   UNL     1       4.891   0.934  -0.838  0.00  0.00    -0.075 NA
ATOM     15  C   UNL     1       4.025   0.165  -0.251  0.00  0.00    +0.207 C 
BRANCH  15  17
ATOM     16  O   UNL     1       4.938  -1.804  -1.319  0.00  0.00    -0.449 OA
ATOM     17  C   UNL     1       4.009  -1.281  -0.476  0.00  0.00    +0.171 C 
ATOM     18  C   UNL     1       3.196  -2.272   0.023  0.00  0.00    +0.043 C 
ATOM     19  C   UNL     1       3.655  -3.482  -0.550  0.00  0.00    +0.044 C 
ATOM     20  C   UNL     1       4.716  -3.144  -1.358  0.00  0.00    +0.180 C 
ENDBRANCH  15  17
BRANCH  14  21
ATOM     21  O   UNL     1       4.715   2.278  -0.480  0.00  0.00    -0.373 OA
ATOM     22  C   UNL     1       5.695   3.047  -1.159  0.00  0.00    +0.288 C 
ENDBRANCH  14  21
ENDBRANCH  12  15
ENDBRANCH   5  11
BRANCH   7  24
ATOM     23  OXT UNL     1      -2.761  -2.137   1.690  0.00  0.00    -0.244 OA
ATOM     24  C   UNL     1      -2.657  -0.931   1.796  0.00  0.00    +0.352 C 
BRANCH  24  25
ATOM     25  O   UNL     1      -2.889  -0.205   2.907  0.00  0.00    -0.476 OA
ATOM     26  H   UNL     1      -2.780   0.726   2.889  0.00  0.00    +0.295 HD
ENDBRANCH  24  25
ENDBRANCH   7  24
BRANCH   8  27
ATOM     27  C   UNL     1      -4.291  -0.626  -0.681  0.00  0.00    +0.235 C 
BRANCH  27  28
ATOM     28  O   UNL     1      -5.267   0.353  -0.970  0.00  0.00    -0.430 OA
BRANCH  28  31
ATOM     29  O   UNL     1      -6.871  -1.284  -1.188  0.00  0.00    -0.227 OA
ATOM     30  N   UNL     1      -7.396   0.936  -1.479  0.00  0.00    -0.295 N 
ATOM     31  C   UNL     1      -6.539  -0.103  -1.210  0.00  0.00    +0.399 C 
ATOM     32  H   UNL     1      -7.061   1.862  -1.480  0.00  0.00    +0.148 HD
ATOM     33  H   UNL     1      -8.344   0.755  -1.671  0.00  0.00    +0.148 HD
ENDBRANCH  28  31
ENDBRANCH  27  28
ENDBRANCH   8  27
TORSDOF 9
