REMARK  Name = 439781
REMARK  5 active torsions:
REMARK  status: ('A' for Active; 'I' for Inactive)
REMARK    1  A    between atoms: C_3  and  O_8
REMARK    2  A    between atoms: C_4  and  O_10
REMARK    3  A    between atoms: C_5  and  C_14
REMARK    4  A    between atoms: C_6  and  O_12
REMARK    5  A    between atoms: C_14  and  O_15
REMARK                            x       y       z     vdW  Elec       q    Type
REMARK                         _______ _______ _______ _____ _____    ______ ____
ROOT
ATOM      1  O   UNL     1      -0.816  -1.007  -0.162  0.00  0.00    -0.445 OA
ATOM      2  O   UNL     1       0.777  -2.600  -0.242  0.00  0.00    -0.247 OA
ATOM      3  C   UNL     1      -0.260   1.376   0.175  0.00  0.00    +0.183 C 
ATOM      4  C   UNL     1       1.146   0.927   0.545  0.00  0.00    +0.179 C 
ATOM      5  C   UNL     1      -1.221   0.231   0.472  0.00  0.00    +0.227 C 
ATOM      6  C   UNL     1       1.522  -0.313  -0.247  0.00  0.00    +0.239 C 
ATOM      7  C   UNL     1       0.480  -1.410  -0.177  0.00  0.00    +0.347 C 
ENDROOT
BRANCH   3   8
ATOM      8  O   UNL     1      -0.324   1.704  -1.213  0.00  0.00    -0.378 OA
ATOM      9  H   UNL     1       0.289   2.433  -1.401  0.00  0.00    +0.211 HD
ENDBRANCH   3   8
BRANCH   4  10
ATOM     10  O   UNL     1       2.056   1.984   0.251  0.00  0.00    -0.379 OA
ATOM     11  H   UNL     1       1.810   2.773   0.760  0.00  0.00    +0.211 HD
ENDBRANCH   4  10
BRANCH   6  12
ATOM     12  O   UNL     1       2.743  -0.825   0.269  0.00  0.00    -0.373 OA
ATOM     13  H   UNL     1       3.424  -0.135   0.232  0.00  0.00    +0.211 HD
ENDBRANCH   6  12
BRANCH   5  14
ATOM     14  C   UNL     1      -2.645   0.525   0.011  0.00  0.00    +0.184 C 
BRANCH  14  15
ATOM     15  O   UNL     1      -3.458  -0.593   0.318  0.00  0.00    -0.378 OA
ATOM     16  H   UNL     1      -4.368  -0.420   0.030  0.00  0.00    +0.211 HD
ENDBRANCH  14  15
ENDBRANCH   5  14
TORSDOF 5
