REMARK  Name = 3073
REMARK  4 active torsions:
REMARK  status: ('A' for Active; 'I' for Inactive)
REMARK    1  A    between atoms: P_1  and  O_4
REMARK    2  A    between atoms: P_1  and  O_8
REMARK    3  A    between atoms: O_4  and  C_5
REMARK    4  A    between atoms: O_8  and  C_9
REMARK                            x       y       z     vdW  Elec       q    Type
REMARK                         _______ _______ _______ _____ _____    ______ ____
ROOT
ATOM      1  P   UNL     1       0.005  -0.266   0.159  0.00  0.00    +0.344 P 
ATOM      2  O   UNL     1      -0.007  -1.624  -0.483  0.00  0.00    -0.258 OA
ATOM      3  C   UNL     1       0.020  -0.314   1.941  0.00  0.00    +0.129 C 
ENDROOT
BRANCH   1   4
ATOM      4  O   UNL     1      -1.274   0.644  -0.233  0.00  0.00    -0.297 OA
BRANCH   4   5
ATOM      5  C   UNL     1      -2.582   0.270   0.162  0.00  0.00    +0.124 C 
ATOM      6  C   UNL     1      -3.574   1.307  -0.344  0.00  0.00    +0.033 C 
ATOM      7  C   UNL     1      -2.890  -1.119  -0.376  0.00  0.00    +0.033 C 
ENDBRANCH   4   5
ENDBRANCH   1   4
BRANCH   1   8
ATOM      8  O   UNL     1       1.273   0.655  -0.246  0.00  0.00    -0.297 OA
BRANCH   8   9
ATOM      9  C   UNL     1       2.571   0.252   0.152  0.00  0.00    +0.124 C 
ATOM     10  C   UNL     1       2.879  -1.111  -0.448  0.00  0.00    +0.033 C 
ATOM     11  C   UNL     1       3.579   1.305  -0.286  0.00  0.00    +0.033 C 
ENDBRANCH   8   9
ENDBRANCH   1   8
TORSDOF 4
