REMARK  Name = 1604
REMARK  4 active torsions:
REMARK  status: ('A' for Active; 'I' for Inactive)
REMARK    1  A    between atoms: N_5  and  C_12
REMARK    2  A    between atoms: C_11  and  S_20
REMARK    3  A    between atoms: C_15  and  O_18
REMARK    4  A    between atoms: S_20  and  N_23
REMARK                            x       y       z     vdW  Elec       q    Type
REMARK                         _______ _______ _______ _____ _____    ______ ____
ROOT
ATOM      1  S   UNL     1      -0.131  -0.640   0.609  0.00  0.00    +0.082 S 
ATOM      2  S   UNL     1       2.824  -1.036   0.639  0.00  0.00    -0.048 S 
ATOM      3  O   UNL     1      -0.159  -0.785   2.050  0.00  0.00    -0.149 OA
ATOM      4  O   UNL     1      -0.377  -1.753  -0.286  0.00  0.00    -0.149 OA
ATOM      5  N   UNL     1      -1.078   0.739   0.127  0.00  0.00    -0.190 N 
ATOM      6  C   UNL     1      -0.623   1.391  -1.153  0.00  0.00    +0.121 C 
ATOM      7  C   UNL     1       0.771   2.025  -0.963  0.00  0.00    +0.052 C 
ATOM      8  C   UNL     1       1.814   1.050  -0.493  0.00  0.00    +0.007 C 
ATOM      9  C   UNL     1       1.491  -0.094   0.203  0.00  0.00    +0.152 C 
ATOM     10  C   UNL     1       3.228   1.152  -0.658  0.00  0.00    +0.024 C 
ATOM     11  C   UNL     1       3.897   0.085  -0.091  0.00  0.00    +0.152 C 
ENDROOT
BRANCH   5  12
ATOM     12  C   UNL     1      -2.502   0.554   0.296  0.00  0.00    +0.072 C 
ATOM     13  C   UNL     1      -3.211  -0.221  -0.617  0.00  0.00    +0.053 C 
ATOM     14  C   UNL     1      -3.154   1.151   1.371  0.00  0.00    +0.016 C 
ATOM     15  C   UNL     1      -4.585  -0.400  -0.454  0.00  0.00    +0.140 C 
ATOM     16  C   UNL     1      -4.528   0.971   1.534  0.00  0.00    +0.004 C 
ATOM     17  C   UNL     1      -5.243   0.196   0.621  0.00  0.00    +0.037 C 
BRANCH  15  18
ATOM     18  O   UNL     1      -5.282  -1.157  -1.345  0.00  0.00    -0.471 OA
ATOM     19  C   UNL     1      -6.684  -1.299  -1.119  0.00  0.00    +0.252 C 
ENDBRANCH  15  18
ENDBRANCH   5  12
BRANCH  11  20
ATOM     20  S   UNL     1       5.598  -0.341   0.029  0.00  0.00    +0.063 S 
ATOM     21  O   UNL     1       6.375   0.882  -0.078  0.00  0.00    -0.153 OA
ATOM     22  O   UNL     1       5.764  -1.215   1.177  0.00  0.00    -0.153 OA
BRANCH  20  23
ATOM     23  N   UNL     1       5.795  -1.254  -1.399  0.00  0.00    -0.203 NA
ATOM     24  H   UNL     1       6.761  -1.577  -1.465  0.00  0.00    +0.144 HD
ATOM     25  H   UNL     1       5.574  -0.673  -2.207  0.00  0.00    +0.144 HD
ENDBRANCH  20  23
ENDBRANCH  11  20
TORSDOF 4
