REMARK  Name = 5289108
REMARK  13 active torsions:
REMARK  status: ('A' for Active; 'I' for Inactive)
REMARK    1  A    between atoms: C_1  and  C_2
REMARK    2  A    between atoms: C_1  and  C_14
REMARK    3  A    between atoms: C_1  and  C_20
REMARK    4  A    between atoms: C_2  and  C_3
REMARK    5  A    between atoms: C_2  and  C_9
REMARK    6  A    between atoms: C_3  and  C_4
REMARK    7  A    between atoms: C_4  and  C_6
REMARK    8  A    between atoms: C_6  and  O_7
REMARK    9  A    between atoms: C_9  and  N_10
REMARK   10  A    between atoms: C_14  and  C_15
REMARK   11  A    between atoms: C_15  and  N_16
REMARK   12  A    between atoms: C_20  and  C_22
REMARK   13  A    between atoms: C_22  and  O_23
REMARK                            x       y       z     vdW  Elec       q    Type
REMARK                         _______ _______ _______ _____ _____    ______ ____
ROOT
ATOM      1  C   UNL     1       0.844  -0.001   0.123  0.00  0.00    +0.007 C 
ENDROOT
BRANCH   1   2
ATOM      2  C   UNL     1      -0.174   1.133  -0.259  0.00  0.00    -0.021 C 
BRANCH   2   3
ATOM      3  C   UNL     1      -1.640   0.657  -0.450  0.00  0.00    +0.010 C 
BRANCH   3   4
ATOM      4  C   UNL     1      -2.246  -0.052   0.764  0.00  0.00    +0.109 C 
BRANCH   4   6
ATOM      5  O   UNL     1      -4.311  -0.269  -0.510  0.00  0.00    -0.250 OA
ATOM      6  C   UNL     1      -3.677  -0.475   0.516  0.00  0.00    +0.314 C 
BRANCH   6   7
ATOM      7  O   UNL     1      -4.199  -1.115   1.594  0.00  0.00    -0.480 OA
ATOM      8  H   UNL     1      -3.675  -1.250   2.359  0.00  0.00    +0.295 HD
ENDBRANCH   6   7
ENDBRANCH   4   6
ENDBRANCH   3   4
ENDBRANCH   2   3
BRANCH   2   9
ATOM      9  C   UNL     1       0.317   1.948  -1.481  0.00  0.00    -0.086 C 
BRANCH   9  10
ATOM     10  N   UNL     1      -0.509   3.124  -1.748  0.00  0.00    +0.380 N 
ATOM     11  H   UNL     1      -0.142   3.621  -2.559  0.00  0.00    -0.089 HD
ATOM     12  H   UNL     1      -0.495   3.741  -0.936  0.00  0.00    -0.089 HD
ATOM     13  H   UNL     1      -1.468   2.830  -1.935  0.00  0.00    -0.089 HD
ENDBRANCH   9  10
ENDBRANCH   2   9
ENDBRANCH   1   2
BRANCH   1  14
ATOM     14  C   UNL     1       2.277   0.460   0.495  0.00  0.00    -0.023 C 
BRANCH  14  15
ATOM     15  C   UNL     1       2.368   1.399   1.696  0.00  0.00    -0.086 C 
BRANCH  15  16
ATOM     16  N   UNL     1       3.759   1.774   1.935  0.00  0.00    +0.380 N 
ATOM     17  H   UNL     1       3.808   2.401   2.739  0.00  0.00    -0.089 HD
ATOM     18  H   UNL     1       4.130   2.248   1.111  0.00  0.00    -0.089 HD
ATOM     19  H   UNL     1       4.309   0.937   2.123  0.00  0.00    -0.089 HD
ENDBRANCH  15  16
ENDBRANCH  14  15
ENDBRANCH   1  14
BRANCH   1  20
ATOM     20  C   UNL     1       0.964  -1.037  -1.027  0.00  0.00    +0.109 C 
BRANCH  20  22
ATOM     21  O   UNL     1       2.895  -2.499  -1.328  0.00  0.00    -0.250 OA
ATOM     22  C   UNL     1       1.893  -2.184  -0.703  0.00  0.00    +0.314 C 
BRANCH  22  23
ATOM     23  O   UNL     1       1.440  -2.862   0.383  0.00  0.00    -0.480 OA
ATOM     24  H   UNL     1       0.665  -2.575   0.824  0.00  0.00    +0.295 HD
ENDBRANCH  22  23
ENDBRANCH  20  22
ENDBRANCH   1  20
TORSDOF 13
