REMARK  Name = 444599
REMARK  4 active torsions:
REMARK  status: ('A' for Active; 'I' for Inactive)
REMARK    1  A    between atoms: C_1  and  C_4
REMARK    2  A    between atoms: C_1  and  N_8
REMARK    3  A    between atoms: C_1  and  C_12
REMARK    4  A    between atoms: N_3  and  O_6
REMARK                            x       y       z     vdW  Elec       q    Type
REMARK                         _______ _______ _______ _____ _____    ______ ____
ROOT
ATOM      1  C   UNL     1      -0.467  -0.517   0.378  0.00  0.00    +0.015 C 
ENDROOT
BRANCH   1   4
ATOM      2  O   UNL     1       1.200  -0.358  -1.383  0.00  0.00    -0.275 OA
ATOM      3  N   UNL     1       1.790   0.238   0.766  0.00  0.00    -0.199 N 
ATOM      4  C   UNL     1       0.914  -0.207  -0.196  0.00  0.00    +0.224 C 
ATOM      5  H   UNL     1       1.521   0.345   1.707  0.00  0.00    +0.182 HD
BRANCH   3   6
ATOM      6  O   UNL     1       3.087   0.530   0.326  0.00  0.00    -0.295 OA
ATOM      7  H   UNL     1       3.622   0.835   1.076  0.00  0.00    +0.241 HD
ENDBRANCH   3   6
ENDBRANCH   1   4
BRANCH   1   8
ATOM      8  N   UNL     1      -0.712  -1.950   0.218  0.00  0.00    +0.387 N 
ATOM      9  H   UNL     1      -1.631  -2.182   0.595  0.00  0.00    -0.089 HD
ATOM     10  H   UNL     1       0.004  -2.475   0.720  0.00  0.00    -0.089 HD
ATOM     11  H   UNL     1      -0.680  -2.192  -0.772  0.00  0.00    -0.089 HD
ENDBRANCH   1   8
BRANCH   1  12
ATOM     12  C   UNL     1      -1.557   0.371  -0.271  0.00  0.00    -0.011 C 
ATOM     13  C   UNL     1      -2.954   0.021   0.254  0.00  0.00    -0.002 C 
ATOM     14  C   UNL     1      -1.300   1.872  -0.093  0.00  0.00    -0.002 C 
ENDBRANCH   1  12
TORSDOF 4
