REMARK  Name = 15906
REMARK  7 active torsions:
REMARK  status: ('A' for Active; 'I' for Inactive)
REMARK    1  A    between atoms: S_1  and  S_2
REMARK    2  A    between atoms: S_1  and  C_7
REMARK    3  A    between atoms: S_2  and  C_3
REMARK    4  A    between atoms: C_3  and  C_4
REMARK    5  A    between atoms: C_4  and  O_5
REMARK    6  A    between atoms: C_7  and  C_8
REMARK    7  A    between atoms: C_8  and  O_9
REMARK                            x       y       z     vdW  Elec       q    Type
REMARK                         _______ _______ _______ _____ _____    ______ ____
ROOT
ATOM      1  S   UNL     1       0.455  -0.451  -0.920  0.00  0.00    -0.079 S 
ENDROOT
BRANCH   1   2
ATOM      2  S   UNL     1      -0.458  -0.433   0.920  0.00  0.00    -0.079 S 
BRANCH   2   3
ATOM      3  C   UNL     1      -1.742   0.819   0.682  0.00  0.00    +0.100 C 
BRANCH   3   4
ATOM      4  C   UNL     1      -2.697   0.430  -0.435  0.00  0.00    +0.150 C 
BRANCH   4   5
ATOM      5  O   UNL     1      -3.329  -0.806  -0.128  0.00  0.00    -0.381 OA
ATOM      6  H   UNL     1      -3.936  -1.046  -0.846  0.00  0.00    +0.210 HD
ENDBRANCH   4   5
ENDBRANCH   3   4
ENDBRANCH   2   3
ENDBRANCH   1   2
BRANCH   1   7
ATOM      7  C   UNL     1       1.747   0.810  -0.695  0.00  0.00    +0.100 C 
BRANCH   7   8
ATOM      8  C   UNL     1       2.697   0.436   0.431  0.00  0.00    +0.150 C 
BRANCH   8   9
ATOM      9  O   UNL     1       3.328  -0.805   0.145  0.00  0.00    -0.381 OA
ATOM     10  H   UNL     1       3.932  -1.035   0.868  0.00  0.00    +0.210 HD
ENDBRANCH   8   9
ENDBRANCH   7   8
ENDBRANCH   1   7
TORSDOF 7
