REMARK  Name = 444718
REMARK  5 active torsions:
REMARK  status: ('A' for Active; 'I' for Inactive)
REMARK    1  A    between atoms: C_1  and  C_2
REMARK    2  A    between atoms: C_1  and  C_8
REMARK    3  A    between atoms: C_8  and  O_9
REMARK    4  A    between atoms: C_8  and  C_12
REMARK    5  A    between atoms: C_12  and  O_13
REMARK                            x       y       z     vdW  Elec       q    Type
REMARK                         _______ _______ _______ _____ _____    ______ ____
ROOT
ATOM      1  C   UNL     1       0.555   0.098   0.804  0.00  0.00    +0.067 C 
ENDROOT
BRANCH   1   2
ATOM      2  C   UNL     1      -0.882   0.085   0.404  0.00  0.00    -0.019 C 
ATOM      3  C   UNL     1      -1.494   1.259  -0.036  0.00  0.00    -0.004 C 
ATOM      4  C   UNL     1      -1.615  -1.100   0.471  0.00  0.00    -0.004 C 
ATOM      5  C   UNL     1      -2.838   1.248  -0.410  0.00  0.00    -0.000 C 
ATOM      6  C   UNL     1      -2.958  -1.112   0.097  0.00  0.00    -0.000 C 
ATOM      7  C   UNL     1      -3.570   0.062  -0.343  0.00  0.00    -0.000 C 
ENDBRANCH   1   2
BRANCH   1   8
ATOM      8  C   UNL     1       1.496  -0.204  -0.375  0.00  0.00    +0.214 C 
BRANCH   8   9
ATOM      9  O   UNL     1       1.510  -1.609  -0.598  0.00  0.00    -0.374 OA
ATOM     10  H   UNL     1       0.610  -1.914  -0.792  0.00  0.00    +0.211 HD
ENDBRANCH   8   9
BRANCH   8  12
ATOM     11  O   UNL     1       3.881  -0.523   0.014  0.00  0.00    -0.248 OA
ATOM     12  C   UNL     1       2.917   0.223  -0.077  0.00  0.00    +0.341 C 
BRANCH  12  13
ATOM     13  O   UNL     1       2.997   1.573   0.049  0.00  0.00    -0.479 OA
ATOM     14  H   UNL     1       2.225   2.097  -0.030  0.00  0.00    +0.295 HD
ENDBRANCH  12  13
ENDBRANCH   8  12
ENDBRANCH   1   8
TORSDOF 5
