446696
  -OEChem-10051720043D

 33 34  0     1  0  0  0  0  0999 V2000
   -3.7597   -1.1804    0.1198 P   0  0  0  0  0  0  0  0  0  0  0  0
   -0.3434    1.3091    0.9975 O   0  0  0  0  0  0  0  0  0  0  0  0
   -2.8135    0.0371    0.6107 O   0  0  0  0  0  0  0  0  0  0  0  0
    3.6980    1.5659    0.3884 O   0  0  0  0  0  0  0  0  0  0  0  0
   -2.8699   -1.9299   -1.0035 O   0  0  0  0  0  0  0  0  0  0  0  0
   -4.8958   -0.4253   -0.7486 O   0  0  0  0  0  0  0  0  0  0  0  0
   -4.2816   -2.0607    1.2174 O   0  0  0  0  0  0  0  0  0  0  0  0
    1.6799    0.4681    0.1735 N   0  0  0  0  0  0  0  0  0  0  0  0
    3.7985   -0.6750    0.0431 N   0  0  0  0  0  0  0  0  0  0  0  0
    3.8946   -2.9713   -0.3127 N   0  0  0  0  0  0  0  0  0  0  0  0
   -1.4298    1.9704    0.3260 C   0  0  1  0  0  0  0  0  0  0  0  0
   -0.7998    2.9590   -0.6425 C   0  0  0  0  0  0  0  0  0  0  0  0
    0.8854    1.6491    0.3397 C   0  0  1  0  0  0  0  0  0  0  0  0
    0.5155    2.3012   -0.9785 C   0  0  0  0  0  0  0  0  0  0  0  0
   -2.2801    0.9149   -0.3683 C   0  0  0  0  0  0  0  0  0  0  0  0
    1.0357   -0.7412   -0.0302 C   0  0  0  0  0  0  0  0  0  0  0  0
    3.0954    0.5057    0.2109 C   0  0  0  0  0  0  0  0  0  0  0  0
    1.6936   -1.8873   -0.1948 C   0  0  0  0  0  0  0  0  0  0  0  0
    3.1770   -1.8092   -0.1480 C   0  0  0  0  0  0  0  0  0  0  0  0
   -2.0294    2.4827    1.0863 H   0  0  0  0  0  0  0  0  0  0  0  0
   -0.6062    3.9060   -0.1238 H   0  0  0  0  0  0  0  0  0  0  0  0
   -1.4167    3.1766   -1.5188 H   0  0  0  0  0  0  0  0  0  0  0  0
    1.4114    2.3659    0.9814 H   0  0  0  0  0  0  0  0  0  0  0  0
    0.3665    1.5577   -1.7710 H   0  0  0  0  0  0  0  0  0  0  0  0
    1.2761    3.0053   -1.3285 H   0  0  0  0  0  0  0  0  0  0  0  0
   -1.6937    0.3373   -1.0877 H   0  0  0  0  0  0  0  0  0  0  0  0
   -3.1033    1.3991   -0.9033 H   0  0  0  0  0  0  0  0  0  0  0  0
   -0.0440   -0.7542   -0.0633 H   0  0  0  0  0  0  0  0  0  0  0  0
    1.1986   -2.8354   -0.3572 H   0  0  0  0  0  0  0  0  0  0  0  0
    3.4414   -3.8666   -0.4630 H   0  0  0  0  0  0  0  0  0  0  0  0
    4.9086   -2.9647   -0.2884 H   0  0  0  0  0  0  0  0  0  0  0  0
   -3.2122   -2.7558   -1.4070 H   0  0  0  0  0  0  0  0  0  0  0  0
   -5.6559   -0.9437   -1.0886 H   0  0  0  0  0  0  0  0  0  0  0  0
  1  3  1  0  0  0  0
  1  5  1  0  0  0  0
  1  6  1  0  0  0  0
  1  7  2  0  0  0  0
  2 11  1  0  0  0  0
  2 13  1  0  0  0  0
  3 15  1  0  0  0  0
  4 17  2  0  0  0  0
  5 32  1  0  0  0  0
  6 33  1  0  0  0  0
  8 13  1  0  0  0  0
  8 16  1  0  0  0  0
  8 17  1  0  0  0  0
  9 17  1  0  0  0  0
  9 19  2  0  0  0  0
 10 19  1  0  0  0  0
 10 30  1  0  0  0  0
 10 31  1  0  0  0  0
 11 12  1  0  0  0  0
 11 15  1  0  0  0  0
 11 20  1  0  0  0  0
 12 14  1  0  0  0  0
 12 21  1  0  0  0  0
 12 22  1  0  0  0  0
 13 14  1  0  0  0  0
 13 23  1  0  0  0  0
 14 24  1  0  0  0  0
 14 25  1  0  0  0  0
 15 26  1  0  0  0  0
 15 27  1  0  0  0  0
 16 18  2  0  0  0  0
 16 28  1  0  0  0  0
 18 19  1  0  0  0  0
 18 29  1  0  0  0  0
M  END
> <DATABASE_ID>
DB02883

> <DATABASE_NAME>
drugbank

> <ORIGINAL_SOURCE>
PUBCHEM

> <ORIGINAL_SOURCE_URL>
https://pubchem.ncbi.nlm.nih.gov/rest/pug/compound/inchikey/RAJMXAZJKUGYGW-POYBYMJQSA-N/SDF?record_type=3d

> <SMILES>
NC1=NC(=O)N(C=C1)[C@H]1CC[C@@H](COP(O)(O)=O)O1

> <INCHI_IDENTIFIER>
InChI=1S/C9H14N3O6P/c10-7-3-4-12(9(13)11-7)8-2-1-6(18-8)5-17-19(14,15)16/h3-4,6,8H,1-2,5H2,(H2,10,11,13)(H2,14,15,16)/t6-,8+/m0/s1

> <INCHI_KEY>
RAJMXAZJKUGYGW-POYBYMJQSA-N

> <FORMULA>
C9H14N3O6P

> <MOLECULAR_WEIGHT>
291.1977

> <EXACT_MASS>
291.062021707

> <JCHEM_ACCEPTOR_COUNT>
7

> <JCHEM_AVERAGE_POLARIZABILITY>
25.253190928167186

> <JCHEM_BIOAVAILABILITY>
1

> <JCHEM_DONOR_COUNT>
3

> <JCHEM_FORMAL_CHARGE>
0

> <JCHEM_GHOSE_FILTER>
0

> <JCHEM_IUPAC>
{[(2S,5R)-5-(4-amino-2-oxo-1,2-dihydropyrimidin-1-yl)oxolan-2-yl]methoxy}phosphonic acid

> <ALOGPS_LOGP>
-1.72

> <JCHEM_LOGP>
-1.9839381689850526

> <ALOGPS_LOGS>
-1.42

> <JCHEM_MDDR_LIKE_RULE>
0

> <JCHEM_NUMBER_OF_RINGS>
2

> <JCHEM_PHYSIOLOGICAL_CHARGE>
-2

> <JCHEM_PKA>
6.337503845869348

> <JCHEM_PKA_STRONGEST_ACIDIC>
1.3387439551113989

> <JCHEM_PKA_STRONGEST_BASIC>
0.010959452133692427

> <JCHEM_POLAR_SURFACE_AREA>
134.68

> <JCHEM_REFRACTIVITY>
63.1131

> <JCHEM_ROTATABLE_BOND_COUNT>
4

> <JCHEM_RULE_OF_FIVE>
1

> <ALOGPS_SOLUBILITY>
1.12e+01 g/l

> <JCHEM_TRADITIONAL_IUPAC>
[(2S,5R)-5-(4-amino-2-oxopyrimidin-1-yl)oxolan-2-yl]methoxyphosphonic acid

> <JCHEM_VEBER_RULE>
0

> <DRUGBANK_ID>
DB02883

> <SECONDARY_ACCESSION_NUMBERS>
EXPT01242

> <DRUG_GROUPS>
experimental

> <GENERIC_NAME>
2',3'-Dideoxycytidine-5'-Monophosphate

$$$$
