REMARK  Name = 4290
REMARK  5 active torsions:
REMARK  status: ('A' for Active; 'I' for Inactive)
REMARK    1  A    between atoms: C_1  and  C_9
REMARK    2  A    between atoms: C_2  and  S_19
REMARK    3  A    between atoms: N_8  and  C_11
REMARK    4  A    between atoms: C_11  and  C_13
REMARK    5  A    between atoms: S_19  and  N_22
REMARK                            x       y       z     vdW  Elec       q    Type
REMARK                         _______ _______ _______ _____ _____    ______ ____
ROOT
ATOM      1  C   UNL     1      -0.941  -0.604   0.540  0.00  0.00    +0.053 C 
ATOM      2  C   UNL     1      -3.549   0.088  -0.170  0.00  0.00    +0.122 C 
ATOM      3  C   UNL     1      -1.678  -1.435  -0.303  0.00  0.00    +0.006 C 
ATOM      4  C   UNL     1      -1.508   0.574   1.028  0.00  0.00    +0.006 C 
ATOM      5  C   UNL     1      -2.982  -1.089  -0.658  0.00  0.00    +0.020 C 
ATOM      6  C   UNL     1      -2.812   0.919   0.674  0.00  0.00    +0.020 C 
ENDROOT
BRANCH   1   9
ATOM      7  O   UNL     1       0.778  -2.155   0.911  0.00  0.00    -0.270 OA
ATOM      8  N   UNL     1       1.288   0.084   1.234  0.00  0.00    -0.297 N 
ATOM      9  C   UNL     1       0.419  -0.964   0.910  0.00  0.00    +0.246 C 
ATOM     10  H   UNL     1       0.937   1.004   1.213  0.00  0.00    +0.150 HD
BRANCH   8  11
ATOM     11  C   UNL     1       2.673  -0.110   1.599  0.00  0.00    +0.119 C 
BRANCH  11  13
ATOM     12  F   UNL     1       3.840   2.310   0.725  0.00  0.00    -0.204 F 
ATOM     13  C   UNL     1       3.584  -0.028   0.408  0.00  0.00    +0.025 C 
ATOM     14  C   UNL     1       4.124   1.197   0.035  0.00  0.00    +0.138 C 
ATOM     15  C   UNL     1       3.878  -1.182  -0.309  0.00  0.00    -0.000 C 
ATOM     16  C   UNL     1       4.970   1.270  -1.072  0.00  0.00    +0.029 C 
ATOM     17  C   UNL     1       4.724  -1.109  -1.416  0.00  0.00    -0.000 C 
ATOM     18  C   UNL     1       5.270   0.117  -1.797  0.00  0.00    +0.002 C 
ENDBRANCH  11  13
ENDBRANCH   8  11
ENDBRANCH   1   9
BRANCH   2  19
ATOM     19  S   UNL     1      -5.181   0.520  -0.614  0.00  0.00    +0.057 S 
ATOM     20  O   UNL     1      -5.325   1.964  -0.487  0.00  0.00    -0.153 OA
ATOM     21  O   UNL     1      -5.505  -0.132  -1.875  0.00  0.00    -0.153 OA
BRANCH  19  22
ATOM     22  N   UNL     1      -6.069  -0.234   0.637  0.00  0.00    -0.203 NA
ATOM     23  H   UNL     1      -7.065  -0.059   0.500  0.00  0.00    +0.144 HD
ATOM     24  H   UNL     1      -5.778   0.146   1.538  0.00  0.00    +0.144 HD
ENDBRANCH  19  22
ENDBRANCH   2  19
TORSDOF 5
