REMARK  Name = 17753790
REMARK  6 active torsions:
REMARK  status: ('A' for Active; 'I' for Inactive)
REMARK    1  A    between atoms: C_2  and  C_14
REMARK    2  A    between atoms: C_6  and  N_11
REMARK    3  A    between atoms: C_14  and  CA_15
REMARK    4  A    between atoms: CA_15  and  N_16
REMARK    5  A    between atoms: CA_15  and  C_21
REMARK    6  A    between atoms: C_21  and  O_22
REMARK                            x       y       z     vdW  Elec       q    Type
REMARK                         _______ _______ _______ _____ _____    ______ ____
ROOT
ATOM      1  N   UNL     1      -1.103   2.192   0.371  0.00  0.00    -0.312 N 
ATOM      2  C   UNL     1       0.146   0.384   0.685  0.00  0.00    -0.007 C 
ATOM      3  C   UNL     1      -1.144  -0.036   0.254  0.00  0.00    +0.024 C 
ATOM      4  C   UNL     1      -1.908   1.118   0.064  0.00  0.00    +0.049 C 
ATOM      5  C   UNL     1       0.140   1.758   0.747  0.00  0.00    +0.058 C 
ATOM      6  C   UNL     1      -1.736  -1.290   0.006  0.00  0.00    +0.042 C 
ATOM      7  C   UNL     1      -3.240   1.079  -0.363  0.00  0.00    +0.015 C 
ATOM      8  C   UNL     1      -3.068  -1.344  -0.421  0.00  0.00    +0.014 C 
ATOM      9  C   UNL     1      -3.807  -0.176  -0.602  0.00  0.00    +0.003 C 
ATOM     10  H   UNL     1      -1.381   3.135   0.327  0.00  0.00    +0.152 HD
ENDROOT
BRANCH   6  11
ATOM     11  N   UNL     1      -1.029  -2.500   0.175  0.00  0.00    -0.357 N 
ATOM     12  H   UNL     1      -0.091  -2.484   0.475  0.00  0.00    +0.142 HD
ATOM     13  H   UNL     1      -1.473  -3.359  -0.007  0.00  0.00    +0.142 HD
ENDBRANCH   6  11
BRANCH   2  14
ATOM     14  C   UNL     1       1.299  -0.480   1.012  0.00  0.00    +0.017 C 
BRANCH  14  15
ATOM     15  CA  UNL     1       2.221  -0.786  -0.195  0.00  0.00    +0.040 C 
BRANCH  15  16
ATOM     16  N   UNL     1       3.033  -1.975   0.056  0.00  0.00    +0.389 N 
ATOM     17  H1  UNL     1       2.422  -2.770   0.243  0.00  0.00    -0.088 HD
ATOM     18  H2  UNL     1       3.634  -1.811   0.863  0.00  0.00    -0.088 HD
ATOM     19  H3  UNL     1       3.609  -2.173  -0.762  0.00  0.00    -0.088 HD
ENDBRANCH  15  16
BRANCH  15  21
ATOM     20  OXT UNL     1       4.302   0.458   0.038  0.00  0.00    -0.253 OA
ATOM     21  C   UNL     1       3.191   0.353  -0.464  0.00  0.00    +0.293 C 
BRANCH  21  22
ATOM     22  O   UNL     1       2.702   1.245  -1.364  0.00  0.00    -0.482 OA
ATOM     23  H   UNL     1       1.845   1.127  -1.724  0.00  0.00    +0.295 HD
ENDBRANCH  21  22
ENDBRANCH  15  21
ENDBRANCH  14  15
ENDBRANCH   2  14
TORSDOF 6
