REMARK  Name = 118458
REMARK  0 active torsions:
REMARK  status: ('A' for Active; 'I' for Inactive)
REMARK                            x       y       z     vdW  Elec       q    Type
REMARK                         _______ _______ _______ _____ _____    ______ ____
ROOT
ATOM      1 CL   UNL     1      -2.671  -0.979   0.000  0.00  0.00    -0.046 Cl
ATOM      2  N   UNL     1      -0.074  -1.030   0.000  0.00  0.00    -0.377 NA
ATOM      3  N   UNL     1       0.195   1.762   0.000  0.00  0.00    -0.256 NA
ATOM      4  C   UNL     1       1.133  -0.430   0.000  0.00  0.00    +0.180 C 
ATOM      5  C   UNL     1       1.265   0.942   0.000  0.00  0.00    +0.199 C 
ATOM      6  C   UNL     1      -1.143  -0.210   0.000  0.00  0.00    +0.209 C 
ATOM      7  C   UNL     1      -1.011   1.161   0.000  0.00  0.00    +0.138 C 
ATOM      8  N   UNL     1       2.306  -1.216   0.000  0.00  0.00    -0.335 N 
ATOM      9  H   UNL     1       2.241  -2.198   0.000  0.00  0.00    +0.144 HD
ATOM     10  H   UNL     1       3.190  -0.782   0.000  0.00  0.00    +0.144 HD
ENDROOT
TORSDOF 0
