REMARK  Name = 63306
REMARK  1 active torsions:
REMARK  status: ('A' for Active; 'I' for Inactive)
REMARK    1  A    between atoms: C_6  and  O_14
REMARK                            x       y       z     vdW  Elec       q    Type
REMARK                         _______ _______ _______ _____ _____    ______ ____
ROOT
ATOM      1  O   UNL     1       1.336  -2.604   0.000  0.00  0.00    -0.209 OA
ATOM      2  N   UNL     1       0.768   1.364  -0.001  0.00  0.00    -0.288 N 
ATOM      3  N   UNL     1       2.251  -0.502  -0.001  0.00  0.00    -0.322 NA
ATOM      4  C   UNL     1      -0.367   0.551  -0.001  0.00  0.00    +0.096 C 
ATOM      5  C   UNL     1      -0.202  -0.841   0.000  0.00  0.00    +0.111 C 
ATOM      6  C   UNL     1      -1.657   1.087   0.000  0.00  0.00    +0.148 C 
ATOM      7  C   UNL     1       2.011   0.777   0.001  0.00  0.00    +0.174 C 
ATOM      8  C   UNL     1      -1.311  -1.690   0.001  0.00  0.00    +0.014 C 
ATOM      9  C   UNL     1       1.185  -1.386   0.000  0.00  0.00    +0.207 C 
ATOM     10  C   UNL     1      -2.767   0.241   0.000  0.00  0.00    +0.038 C 
ATOM     11  C   UNL     1      -2.595  -1.143   0.000  0.00  0.00    +0.004 C 
ATOM     12  C   UNL     1       3.197   1.710   0.001  0.00  0.00    +0.085 C 
ATOM     13  H   UNL     1       0.679   2.345  -0.001  0.00  0.00    +0.154 HD
ENDROOT
BRANCH   6  14
ATOM     14  O   UNL     1      -1.850   2.436   0.000  0.00  0.00    -0.504 OA
ATOM     15  H   UNL     1      -1.113   3.015   0.000  0.00  0.00    +0.292 HD
ENDBRANCH   6  14
TORSDOF 1
