REMARK  Name = 8076
REMARK  4 active torsions:
REMARK  status: ('A' for Active; 'I' for Inactive)
REMARK    1  A    between atoms: C_1  and  O_2
REMARK    2  A    between atoms: C_1  and  C_5
REMARK    3  A    between atoms: O_2  and  C_3
REMARK    4  A    between atoms: C_5  and  O_6
REMARK                            x       y       z     vdW  Elec       q    Type
REMARK                         _______ _______ _______ _____ _____    ______ ____
ROOT
ATOM      1  C   UNL     1       0.603  -0.423   0.001  0.00  0.00    +0.174 C 
ENDROOT
BRANCH   1   2
ATOM      2  O   UNL     1      -0.613   0.316   0.007  0.00  0.00    -0.351 OA
BRANCH   2   3
ATOM      3  C   UNL     1      -1.744  -0.544  -0.006  0.00  0.00    +0.142 C 
ATOM      4  C   UNL     1      -3.002   0.297   0.002  0.00  0.00    +0.035 C 
ENDBRANCH   2   3
ENDBRANCH   1   2
BRANCH   1   5
ATOM      5  C   UNL     1       1.770   0.546  -0.009  0.00  0.00    +0.169 C 
BRANCH   5   6
ATOM      6  O   UNL     1       2.986  -0.192   0.005  0.00  0.00    -0.379 OA
ATOM      7  H   UNL     1       3.737   0.422  -0.001  0.00  0.00    +0.211 HD
ENDBRANCH   5   6
ENDBRANCH   1   5
TORSDOF 4
