REMARK  Name = 448431
REMARK  4 active torsions:
REMARK  status: ('A' for Active; 'I' for Inactive)
REMARK    1  A    between atoms: C_2  and  O_7
REMARK    2  A    between atoms: C_4  and  O_9
REMARK    3  A    between atoms: C_5  and  C_12
REMARK    4  A    between atoms: C_12  and  O_13
REMARK                            x       y       z     vdW  Elec       q    Type
REMARK                         _______ _______ _______ _____ _____    ______ ____
ROOT
ATOM      1  O   UNL     1      -0.430  -1.309  -0.105  0.00  0.00    -0.342 OA
ATOM      2  C   UNL     1       1.407   0.888   0.211  0.00  0.00    +0.143 C 
ATOM      3  C   UNL     1      -0.078   1.091  -0.083  0.00  0.00    +0.073 C 
ATOM      4  C   UNL     1       1.860  -0.496  -0.260  0.00  0.00    +0.167 C 
ATOM      5  C   UNL     1      -0.894  -0.080   0.446  0.00  0.00    +0.216 C 
ATOM      6  C   UNL     1       0.921  -1.578   0.261  0.00  0.00    +0.174 C 
ENDROOT
BRANCH   2   7
ATOM      7  O   UNL     1       2.139   1.902  -0.469  0.00  0.00    -0.382 OA
ATOM      8  H   UNL     1       1.844   2.774  -0.164  0.00  0.00    +0.210 HD
ENDBRANCH   2   7
BRANCH   4   9
ATOM      9  O   UNL     1       3.172  -0.773   0.216  0.00  0.00    -0.379 OA
ATOM     10  H   UNL     1       3.783  -0.093  -0.106  0.00  0.00    +0.211 HD
ENDBRANCH   4   9
BRANCH   5  12
ATOM     11  O   UNL     1      -2.880  -0.789  -0.725  0.00  0.00    -0.248 OA
ATOM     12  C   UNL     1      -2.315   0.017   0.000  0.00  0.00    +0.341 C 
BRANCH  12  13
ATOM     13  O   UNL     1      -2.902   1.128   0.508  0.00  0.00    -0.479 OA
ATOM     14  H   UNL     1      -2.412   1.706   1.059  0.00  0.00    +0.295 HD
ENDBRANCH  12  13
ENDBRANCH   5  12
TORSDOF 4
