REMARK  Name = 17753820
REMARK  13 active torsions:
REMARK  status: ('A' for Active; 'I' for Inactive)
REMARK    1  A    between atoms: C_1  and  C_3
REMARK    2  A    between atoms: C_1  and  C_16
REMARK    3  A    between atoms: C_3  and  C_4
REMARK    4  A    between atoms: C_4  and  C_6
REMARK    5  A    between atoms: C_6  and  O_7
REMARK    6  A    between atoms: C_6  and  C_9
REMARK    7  A    between atoms: C_9  and  C_10
REMARK    8  A    between atoms: C_16  and  C_17
REMARK    9  A    between atoms: C_17  and  C_18
REMARK   10  A    between atoms: C_18  and  N_19
REMARK   11  A    between atoms: C_18  and  C_23
REMARK   12  A    between atoms: C_23  and  C_26
REMARK   13  A    between atoms: C_26  and  O_27
REMARK                            x       y       z     vdW  Elec       q    Type
REMARK                         _______ _______ _______ _____ _____    ______ ____
ROOT
ATOM      1  C   UNL     1      -1.478   2.081  -0.316  0.00  0.00    +0.000 C 
ATOM      2  C   UNL     1      -1.417   3.613  -0.262  0.00  0.00    +0.000 C 
ENDROOT
BRANCH   1   3
ATOM      3  C   UNL     1      -0.129   1.437   0.081  0.00  0.00    +0.002 C 
BRANCH   3   4
ATOM      4  C   UNL     1       1.081   1.780  -0.822  0.00  0.00    +0.028 C 
ATOM      5  C   UNL     1       0.836   1.385  -2.282  0.00  0.00    +0.003 C 
BRANCH   4   6
ATOM      6  C   UNL     1       2.399   1.158  -0.287  0.00  0.00    +0.120 C 
BRANCH   6   7
ATOM      7  O   UNL     1       2.608   1.676   1.031  0.00  0.00    -0.353 OA
ATOM      8  C   UNL     1       3.071   3.015   0.987  0.00  0.00    +0.174 C 
ENDBRANCH   6   7
BRANCH   6   9
ATOM      9  C   UNL     1       2.406  -0.379  -0.230  0.00  0.00    +0.056 C 
BRANCH   9  10
ATOM     10  C   UNL     1       3.804  -0.945  -0.112  0.00  0.00    -0.020 C 
ATOM     11  C   UNL     1       4.531  -1.250  -1.262  0.00  0.00    -0.004 C 
ATOM     12  C   UNL     1       4.365  -1.161   1.146  0.00  0.00    -0.004 C 
ATOM     13  C   UNL     1       5.820  -1.772  -1.154  0.00  0.00    -0.000 C 
ATOM     14  C   UNL     1       5.654  -1.683   1.254  0.00  0.00    -0.000 C 
ATOM     15  C   UNL     1       6.382  -1.988   0.104  0.00  0.00    -0.000 C 
ENDBRANCH   9  10
ENDBRANCH   6   9
ENDBRANCH   4   6
ENDBRANCH   3   4
ENDBRANCH   1   3
BRANCH   1  16
ATOM     16  C   UNL     1      -2.632   1.598   0.598  0.00  0.00    -0.002 C 
BRANCH  16  17
ATOM     17  C   UNL     1      -3.065   0.149   0.330  0.00  0.00    -0.021 C 
BRANCH  17  18
ATOM     18  C   UNL     1      -4.271  -0.344   1.167  0.00  0.00    -0.055 C 
BRANCH  18  19
ATOM     19  N   UNL     1      -3.822  -0.618   2.538  0.00  0.00    +0.382 N 
ATOM     20  H   UNL     1      -3.349   0.205   2.911  0.00  0.00    -0.089 HD
ATOM     21  H   UNL     1      -3.177  -1.408   2.533  0.00  0.00    -0.089 HD
ATOM     22  H   UNL     1      -4.629  -0.841   3.121  0.00  0.00    -0.089 HD
ENDBRANCH  18  19
BRANCH  18  23
ATOM     23  C   UNL     1      -4.995  -1.577   0.567  0.00  0.00    +0.079 C 
ATOM     24  C   UNL     1      -4.093  -2.809   0.452  0.00  0.00    +0.009 C 
BRANCH  23  26
ATOM     25  O   UNL     1      -5.177  -1.878  -1.841  0.00  0.00    -0.250 OA
ATOM     26  C   UNL     1      -5.510  -1.269  -0.831  0.00  0.00    +0.311 C 
BRANCH  26  27
ATOM     27  O   UNL     1      -6.369  -0.219  -0.855  0.00  0.00    -0.480 OA
ATOM     28  H   UNL     1      -6.597   0.218  -0.058  0.00  0.00    +0.295 HD
ENDBRANCH  26  27
ENDBRANCH  23  26
ENDBRANCH  18  23
ENDBRANCH  17  18
ENDBRANCH  16  17
ENDBRANCH   1  16
TORSDOF 13
