REMARK  Name = 5289348
REMARK  6 active torsions:
REMARK  status: ('A' for Active; 'I' for Inactive)
REMARK    1  A    between atoms: C_1  and  O_2
REMARK    2  A    between atoms: C_1  and  C_10
REMARK    3  A    between atoms: O_2  and  C_3
REMARK    4  A    between atoms: C_3  and  C_4
REMARK    5  A    between atoms: C_10  and  N_11
REMARK    6  A    between atoms: C_10  and  C_16
REMARK                            x       y       z     vdW  Elec       q    Type
REMARK                         _______ _______ _______ _____ _____    ______ ____
ROOT
ATOM      1  C   UNL     1       1.756   1.234  -0.406  0.00  0.00    +0.128 C 
ENDROOT
BRANCH   1   2
ATOM      2  O   UNL     1       0.526   0.611  -0.052  0.00  0.00    -0.351 OA
BRANCH   2   3
ATOM      3  C   UNL     1      -0.572   1.207  -0.727  0.00  0.00    +0.168 C 
BRANCH   3   4
ATOM      4  C   UNL     1      -1.836   0.511  -0.316  0.00  0.00    +0.007 C 
ATOM      5  C   UNL     1      -2.282  -0.591  -1.037  0.00  0.00    -0.002 C 
ATOM      6  C   UNL     1      -2.551   0.975   0.783  0.00  0.00    -0.002 C 
ATOM      7  C   UNL     1      -3.457  -1.237  -0.655  0.00  0.00    -0.000 C 
ATOM      8  C   UNL     1      -3.726   0.329   1.165  0.00  0.00    -0.000 C 
ATOM      9  C   UNL     1      -4.179  -0.778   0.446  0.00  0.00    -0.000 C 
ENDBRANCH   3   4
ENDBRANCH   2   3
ENDBRANCH   1   2
BRANCH   1  10
ATOM     10  C   UNL     1       2.887   0.596   0.397  0.00  0.00    +0.024 C 
BRANCH  10  11
ATOM     11  N   UNL     1       4.167   1.190   0.028  0.00  0.00    +0.388 N 
ATOM     12  H   UNL     1       4.136   2.195   0.198  0.00  0.00    -0.089 HD
ATOM     13  H   UNL     1       4.349   1.019  -0.961  0.00  0.00    -0.089 HD
ATOM     14  H   UNL     1       4.910   0.773   0.588  0.00  0.00    -0.089 HD
ENDBRANCH  10  11
BRANCH  10  16
ATOM     15  O   UNL     1       2.723  -1.391  -0.976  0.00  0.00    -0.298 OA
ATOM     16  C   UNL     1       3.008  -0.898   0.115  0.00  0.00    +0.133 C 
ATOM     17  C   UNL     1       3.537  -1.758   1.236  0.00  0.00    +0.070 C 
ENDBRANCH  10  16
ENDBRANCH   1  10
TORSDOF 6
