REMARK  Name = 449462
REMARK  6 active torsions:
REMARK  status: ('A' for Active; 'I' for Inactive)
REMARK    1  A    between atoms: C_2  and  O_11
REMARK    2  A    between atoms: C_3  and  O_13
REMARK    3  A    between atoms: C_4  and  N_7
REMARK    4  A    between atoms: C_5  and  C_17
REMARK    5  A    between atoms: C_6  and  O_15
REMARK    6  A    between atoms: C_17  and  O_18
REMARK                            x       y       z     vdW  Elec       q    Type
REMARK                         _______ _______ _______ _____ _____    ______ ____
ROOT
ATOM      1  O   UNL     1       0.820   0.966  -0.234  0.00  0.00    -0.329 OA
ATOM      2  C   UNL     1      -1.146  -0.982   0.524  0.00  0.00    +0.125 C 
ATOM      3  C   UNL     1       0.287  -1.370   0.149  0.00  0.00    +0.165 C 
ATOM      4  C   UNL     1      -1.539   0.351  -0.126  0.00  0.00    +0.022 C 
ATOM      5  C   UNL     1       1.239  -0.212   0.465  0.00  0.00    +0.176 C 
ATOM      6  C   UNL     1      -0.476   1.423   0.160  0.00  0.00    +0.213 C 
ENDROOT
BRANCH   4   7
ATOM      7  N   UNL     1      -2.840   0.788   0.389  0.00  0.00    +0.387 N 
ATOM      8  H   UNL     1      -3.540   0.071   0.196  0.00  0.00    -0.089 HD
ATOM      9  H   UNL     1      -3.111   1.659  -0.066  0.00  0.00    -0.089 HD
ATOM     10  H   UNL     1      -2.775   0.936   1.396  0.00  0.00    -0.089 HD
ENDBRANCH   4   7
BRANCH   2  11
ATOM     11  O   UNL     1      -2.044  -2.006   0.105  0.00  0.00    -0.384 OA
ATOM     12  H   UNL     1      -1.792  -2.846   0.519  0.00  0.00    +0.210 HD
ENDBRANCH   2  11
BRANCH   3  13
ATOM     13  O   UNL     1       0.356  -1.662  -1.248  0.00  0.00    -0.380 OA
ATOM     14  H   UNL     1      -0.245  -2.394  -1.455  0.00  0.00    +0.211 HD
ENDBRANCH   3  13
BRANCH   6  15
ATOM     15  O   UNL     1      -0.807   2.596  -0.581  0.00  0.00    -0.362 OA
ATOM     16  H   UNL     1      -0.145   3.284  -0.411  0.00  0.00    +0.213 HD
ENDBRANCH   6  15
BRANCH   5  17
ATOM     17  C   UNL     1       2.673  -0.507   0.040  0.00  0.00    +0.169 C 
BRANCH  17  18
ATOM     18  O   UNL     1       3.479   0.614   0.357  0.00  0.00    -0.379 OA
ATOM     19  H   UNL     1       4.395   0.439   0.092  0.00  0.00    +0.211 HD
ENDBRANCH  17  18
ENDBRANCH   5  17
TORSDOF 6
