REMARK  Name = 9570
REMARK  6 active torsions:
REMARK  status: ('A' for Active; 'I' for Inactive)
REMARK    1  A    between atoms: C2*_2  and  O2*_17
REMARK    2  A    between atoms: C1*_3  and  N_6
REMARK    3  A    between atoms: C3*_4  and  O3*_19
REMARK    4  A    between atoms: C4*_5  and  C5*_21
REMARK    5  A    between atoms: C_13  and  S_15
REMARK    6  A    between atoms: C5*_21  and  O5*_22
REMARK                            x       y       z     vdW  Elec       q    Type
REMARK                         _______ _______ _______ _____ _____    ______ ____
ROOT
ATOM      1  O4* UNL     1       2.346   0.539   0.930  0.00  0.00    -0.333 OA
ATOM      2  C2* UNL     1       2.042  -0.935  -0.898  0.00  0.00    +0.187 C 
ATOM      3  C1* UNL     1       1.416  -0.419   0.389  0.00  0.00    +0.225 C 
ATOM      4  C3* UNL     1       3.516  -0.917  -0.546  0.00  0.00    +0.171 C 
ATOM      5  C4* UNL     1       3.633   0.348   0.298  0.00  0.00    +0.175 C 
ENDROOT
BRANCH   3   6
ATOM      6  N   UNL     1       0.111   0.210   0.205  0.00  0.00    -0.247 N 
ATOM      7  N   UNL     1      -1.398   1.798  -0.220  0.00  0.00    -0.243 NA
ATOM      8  N   UNL     1      -1.372  -1.665   0.638  0.00  0.00    -0.228 NA
ATOM      9  N   UNL     1      -3.714  -1.013   0.425  0.00  0.00    -0.236 NA
ATOM     10  C   UNL     1      -1.114  -0.386   0.327  0.00  0.00    +0.151 C 
ATOM     11  C   UNL     1      -0.114   1.522  -0.124  0.00  0.00    +0.223 C 
ATOM     12  C   UNL     1      -2.034   0.614   0.059  0.00  0.00    +0.132 C 
ATOM     13  C   UNL     1      -3.379   0.263   0.116  0.00  0.00    +0.124 C 
ATOM     14  C   UNL     1      -2.705  -1.885   0.663  0.00  0.00    +0.252 C 
BRANCH  13  15
ATOM     15  S   UNL     1      -4.629   1.459  -0.207  0.00  0.00    -0.093 S 
ATOM     16  C   UNL     1      -5.971   0.445  -0.901  0.00  0.00    +0.076 C 
ENDBRANCH  13  15
ENDBRANCH   3   6
BRANCH   2  17
ATOM     17  O2* UNL     1       1.569  -2.223  -1.235  0.00  0.00    -0.378 OA
ATOM     18  H2* UNL     1       0.624  -2.175  -1.450  0.00  0.00    +0.211 HD
ENDBRANCH   2  17
BRANCH   4  19
ATOM     19  O3* UNL     1       3.823  -2.046   0.272  0.00  0.00    -0.379 OA
ATOM     20  H3* UNL     1       3.752  -2.857  -0.256  0.00  0.00    +0.211 HD
ENDBRANCH   4  19
BRANCH   5  21
ATOM     21  C5* UNL     1       3.950   1.586  -0.529  0.00  0.00    +0.169 C 
BRANCH  21  22
ATOM     22  O5* UNL     1       4.027   2.704   0.338  0.00  0.00    -0.379 OA
ATOM     23  H5* UNL     1       4.229   3.500  -0.178  0.00  0.00    +0.211 HD
ENDBRANCH  21  22
ENDBRANCH   5  21
TORSDOF 6
