REMARK  Name = 5288150
REMARK  9 active torsions:
REMARK  status: ('A' for Active; 'I' for Inactive)
REMARK    1  A    between atoms: C_2  and  O_7
REMARK    2  A    between atoms: C_3  and  O_9
REMARK    3  A    between atoms: C_4  and  O_11
REMARK    4  A    between atoms: C_5  and  C_19
REMARK    5  A    between atoms: C_6  and  O_13
REMARK    6  A    between atoms: O_13  and  C_14
REMARK    7  A    between atoms: C_14  and  C_15
REMARK    8  A    between atoms: C_15  and  C_17
REMARK    9  A    between atoms: C_19  and  O_20
REMARK                            x       y       z     vdW  Elec       q    Type
REMARK                         _______ _______ _______ _____ _____    ______ ____
ROOT
ATOM      1  O   UNL     1      -0.741  -0.554  -1.415  0.00  0.00    -0.326 OA
ATOM      2  C   UNL     1      -2.103   0.694   0.804  0.00  0.00    +0.172 C 
ATOM      3  C   UNL     1      -2.083  -0.824   0.609  0.00  0.00    +0.169 C 
ATOM      4  C   UNL     1      -1.864   1.409  -0.524  0.00  0.00    +0.196 C 
ATOM      5  C   UNL     1      -0.841  -1.266  -0.177  0.00  0.00    +0.176 C 
ATOM      6  C   UNL     1      -0.633   0.861  -1.248  0.00  0.00    +0.266 C 
ENDROOT
BRANCH   2   7
ATOM      7  O   UNL     1      -3.388   1.064   1.310  0.00  0.00    -0.379 OA
ATOM      8  H   UNL     1      -3.545   0.613   2.154  0.00  0.00    +0.211 HD
ENDBRANCH   2   7
BRANCH   3   9
ATOM      9  O   UNL     1      -2.097  -1.434   1.897  0.00  0.00    -0.379 OA
ATOM     10  H   UNL     1      -2.886  -1.147   2.383  0.00  0.00    +0.211 HD
ENDBRANCH   3   9
BRANCH   4  11
ATOM     11  O   UNL     1      -1.717   2.805  -0.288  0.00  0.00    -0.378 OA
ATOM     12  H   UNL     1      -2.503   3.140   0.170  0.00  0.00    +0.211 HD
ENDBRANCH   4  11
BRANCH   6  13
ATOM     13  O   UNL     1       0.588   1.238  -0.614  0.00  0.00    -0.329 OA
BRANCH  13  14
ATOM     14  C   UNL     1       1.712   0.716  -1.306  0.00  0.00    +0.147 C 
BRANCH  14  15
ATOM     15  C   UNL     1       2.988   1.096  -0.566  0.00  0.00    +0.064 C 
BRANCH  15  17
ATOM     16  O   UNL     1       4.316   0.286   1.331  0.00  0.00    -0.351 OA
ATOM     17  C   UNL     1       3.009   0.570   0.838  0.00  0.00    +0.147 C 
ATOM     18  C   UNL     1       3.442  -0.830   1.118  0.00  0.00    +0.172 C 
ENDBRANCH  15  17
ENDBRANCH  14  15
ENDBRANCH  13  14
ENDBRANCH   6  13
BRANCH   5  19
ATOM     19  C   UNL     1      -0.879  -2.753  -0.519  0.00  0.00    +0.169 C 
BRANCH  19  20
ATOM     20  O   UNL     1       0.290  -3.077  -1.249  0.00  0.00    -0.379 OA
ATOM     21  H   UNL     1       0.280  -4.020  -1.474  0.00  0.00    +0.211 HD
ENDBRANCH  19  20
ENDBRANCH   5  19
TORSDOF 9
