REMARK  Name = 445528
REMARK  2 active torsions:
REMARK  status: ('A' for Active; 'I' for Inactive)
REMARK    1  A    between atoms: C_3  and  O_7
REMARK    2  A    between atoms: C_4  and  O_9
REMARK                            x       y       z     vdW  Elec       q    Type
REMARK                         _______ _______ _______ _____ _____    ______ ____
ROOT
ATOM      1  S   UNL     1      -1.825  -0.994   0.125  0.00  0.00    -0.079 S 
ATOM      2  S   UNL     1      -1.801   1.036  -0.125  0.00  0.00    -0.079 S 
ATOM      3  C   UNL     1       0.953  -0.755   0.194  0.00  0.00    +0.150 C 
ATOM      4  C   UNL     1       0.970   0.733  -0.194  0.00  0.00    +0.150 C 
ATOM      5  C   UNL     1      -0.257  -1.223   1.015  0.00  0.00    +0.100 C 
ATOM      6  C   UNL     1      -0.229   1.229  -1.015  0.00  0.00    +0.100 C 
ENDROOT
BRANCH   3   7
ATOM      7  O   UNL     1       1.076  -1.542  -0.991  0.00  0.00    -0.381 OA
ATOM      8  H   UNL     1       1.842  -1.238  -1.502  0.00  0.00    +0.210 HD
ENDBRANCH   3   7
BRANCH   4   9
ATOM      9  O   UNL     1       1.112   1.516   0.991  0.00  0.00    -0.381 OA
ATOM     10  H   UNL     1       1.872   1.195   1.502  0.00  0.00    +0.210 HD
ENDBRANCH   4   9
TORSDOF 2
