REMARK  Name = 445328
REMARK  8 active torsions:
REMARK  status: ('A' for Active; 'I' for Inactive)
REMARK    1  A    between atoms: C_2  and  O_7
REMARK    2  A    between atoms: C_3  and  O_9
REMARK    3  A    between atoms: C_4  and  O_11
REMARK    4  A    between atoms: C_5  and  C_23
REMARK    5  A    between atoms: C_6  and  O_13
REMARK    6  A    between atoms: O_13  and  C_14
REMARK    7  A    between atoms: C_17  and  N_22
REMARK    8  A    between atoms: C_23  and  O_24
REMARK                            x       y       z     vdW  Elec       q    Type
REMARK                         _______ _______ _______ _____ _____    ______ ____
ROOT
ATOM      1  O   UNL     1      -1.165   0.841   0.628  0.00  0.00    -0.316 OA
ATOM      2  C   UNL     1      -3.301  -0.772  -0.429  0.00  0.00    +0.173 C 
ATOM      3  C   UNL     1      -3.347   0.757  -0.471  0.00  0.00    +0.169 C 
ATOM      4  C   UNL     1      -2.417  -1.243   0.726  0.00  0.00    +0.210 C 
ATOM      5  C   UNL     1      -1.924   1.331  -0.488  0.00  0.00    +0.177 C 
ATOM      6  C   UNL     1      -1.038  -0.584   0.653  0.00  0.00    +0.318 C 
ENDROOT
BRANCH   2   7
ATOM      7  O   UNL     1      -4.616  -1.295  -0.258  0.00  0.00    -0.379 OA
ATOM      8  H   UNL     1      -5.179  -0.999  -0.989  0.00  0.00    +0.211 HD
ENDBRANCH   2   7
BRANCH   3   9
ATOM      9  O   UNL     1      -4.029   1.247   0.686  0.00  0.00    -0.379 OA
ATOM     10  H   UNL     1      -4.930   0.889   0.706  0.00  0.00    +0.211 HD
ENDBRANCH   3   9
BRANCH   4  11
ATOM     11  O   UNL     1      -2.265  -2.658   0.687  0.00  0.00    -0.377 OA
ATOM     12  H   UNL     1      -3.138  -3.078   0.733  0.00  0.00    +0.211 HD
ENDBRANCH   4  11
BRANCH   6  13
ATOM     13  O   UNL     1      -0.318  -1.073  -0.478  0.00  0.00    -0.451 OA
BRANCH  13  14
ATOM     14  C   UNL     1       1.044  -1.133  -0.358  0.00  0.00    +0.143 C 
ATOM     15  C   UNL     1       1.768   0.029  -0.111  0.00  0.00    +0.061 C 
ATOM     16  C   UNL     1       1.694  -2.356  -0.486  0.00  0.00    +0.037 C 
ATOM     17  C   UNL     1       3.156  -0.032   0.010  0.00  0.00    +0.146 C 
ATOM     18  C   UNL     1       3.083  -2.418  -0.365  0.00  0.00    +0.005 C 
ATOM     19  C   UNL     1       3.813  -1.256  -0.118  0.00  0.00    +0.024 C 
BRANCH  17  22
ATOM     20  O   UNL     1       5.148   1.073   0.366  0.00  0.00    -0.126 OA
ATOM     21  O   UNL     1       3.289   2.241   0.372  0.00  0.00    -0.126 OA
ATOM     22  N   UNL     1       3.900   1.151   0.262  0.00  0.00    +0.058 N 
ENDBRANCH  17  22
ENDBRANCH  13  14
ENDBRANCH   6  13
BRANCH   5  23
ATOM     23  C   UNL     1      -1.911   2.854  -0.409  0.00  0.00    +0.169 C 
BRANCH  23  24
ATOM     24  O   UNL     1      -0.565   3.295  -0.420  0.00  0.00    -0.379 OA
ATOM     25  H   UNL     1      -0.542   4.264  -0.370  0.00  0.00    +0.211 HD
ENDBRANCH  23  24
ENDBRANCH   5  23
TORSDOF 8
