REMARK  Name = 673
REMARK  3 active torsions:
REMARK  status: ('A' for Active; 'I' for Inactive)
REMARK    1  A    between atoms: C_1  and  N_2
REMARK    2  A    between atoms: C_1  and  C_7
REMARK    3  A    between atoms: C_7  and  O_8
REMARK                            x       y       z     vdW  Elec       q    Type
REMARK                         _______ _______ _______ _____ _____    ______ ____
ROOT
ATOM      1  C   UNL     1       0.092  -0.469  -0.704  0.00  0.00    +0.034 C 
ENDROOT
BRANCH   1   2
ATOM      2  N   UNL     1       1.162  -0.145   0.239  0.00  0.00    +0.391 N 
ATOM      3  C   UNL     1       1.103   1.267   0.613  0.00  0.00    -0.100 C 
ATOM      4  C   UNL     1       2.466  -0.468  -0.337  0.00  0.00    -0.100 C 
ATOM      5  H   UNL     1       1.032  -0.708   1.080  0.00  0.00    -0.079 HD
ENDBRANCH   1   2
BRANCH   1   7
ATOM      6  O   UNL     1      -1.615  -0.723   0.979  0.00  0.00    -0.253 OA
ATOM      7  C   UNL     1      -1.230  -0.180  -0.050  0.00  0.00    +0.293 C 
BRANCH   7   8
ATOM      8  O   UNL     1      -1.978   0.719  -0.740  0.00  0.00    -0.482 OA
ATOM      9  H   UNL     1      -1.639   1.107  -1.522  0.00  0.00    +0.295 HD
ENDBRANCH   7   8
ENDBRANCH   1   7
TORSDOF 3
