REMARK  Name = 447196
REMARK  5 active torsions:
REMARK  status: ('A' for Active; 'I' for Inactive)
REMARK    1  A    between atoms: N_4  and  C_11
REMARK    2  A    between atoms: C_11  and  CA_12
REMARK    3  A    between atoms: CA_12  and  N_13
REMARK    4  A    between atoms: CA_12  and  C_18
REMARK    5  A    between atoms: C_18  and  O_19
REMARK                            x       y       z     vdW  Elec       q    Type
REMARK                         _______ _______ _______ _____ _____    ______ ____
ROOT
ATOM      1  I   UNL     1       3.713  -2.142   0.591  0.00  0.00    -0.036 I 
ATOM      2  O   UNL     1      -0.627   1.904  -0.990  0.00  0.00    -0.252 OA
ATOM      3  O   UNL     1       3.650   1.097   0.475  0.00  0.00    -0.269 OA
ATOM      4  N   UNL     1       0.041  -0.312  -0.698  0.00  0.00    -0.243 N 
ATOM      5  N   UNL     1       1.504   1.478  -0.258  0.00  0.00    -0.235 N 
ATOM      6  C   UNL     1       0.230   1.076  -0.675  0.00  0.00    +0.314 C 
ATOM      7  C   UNL     1       1.043  -1.189  -0.335  0.00  0.00    +0.079 C 
ATOM      8  C   UNL     1       2.260  -0.798   0.063  0.00  0.00    +0.099 C 
ATOM      9  C   UNL     1       2.559   0.659   0.121  0.00  0.00    +0.259 C 
ATOM     10  H   UNL     1       1.670   2.448  -0.230  0.00  0.00    +0.159 HD
ENDROOT
BRANCH   4  11
ATOM     11  C   UNL     1      -1.239  -0.877  -1.112  0.00  0.00    +0.089 C 
BRANCH  11  12
ATOM     12  CA  UNL     1      -2.190  -1.058   0.072  0.00  0.00    +0.056 C 
BRANCH  12  13
ATOM     13  N   UNL     1      -3.477  -1.571  -0.394  0.00  0.00    +0.390 N 
ATOM     14  H1  UNL     1      -3.332  -2.450  -0.890  0.00  0.00    -0.088 HD
ATOM     15  H2  UNL     1      -3.905  -0.892  -1.024  0.00  0.00    -0.088 HD
ATOM     16  H3  UNL     1      -4.090  -1.728   0.405  0.00  0.00    -0.088 HD
ENDBRANCH  12  13
BRANCH  12  18
ATOM     17  OXT UNL     1      -3.381   1.023   0.521  0.00  0.00    -0.253 OA
ATOM     18  C   UNL     1      -2.477   0.246   0.797  0.00  0.00    +0.295 C 
BRANCH  18  19
ATOM     19  O   UNL     1      -1.609   0.463   1.822  0.00  0.00    -0.482 OA
ATOM     20  H   UNL     1      -0.930  -0.157   2.000  0.00  0.00    +0.295 HD
ENDBRANCH  18  19
ENDBRANCH  12  18
ENDBRANCH  11  12
ENDBRANCH   4  11
TORSDOF 5
