REMARK  Name = 446833
REMARK  6 active torsions:
REMARK  status: ('A' for Active; 'I' for Inactive)
REMARK    1  A    between atoms: C_1  and  C_2
REMARK    2  A    between atoms: C_1  and  P_12
REMARK    3  A    between atoms: C_1  and  C_19
REMARK    4  A    between atoms: P_12  and  O_14
REMARK    5  A    between atoms: P_12  and  O_16
REMARK    6  A    between atoms: C_19  and  C_20
REMARK                            x       y       z     vdW  Elec       q    Type
REMARK                         _______ _______ _______ _____ _____    ______ ____
ROOT
ATOM      1  C   UNL     1      -1.504   1.081  -0.548  0.00  0.00    +0.188 C 
ENDROOT
BRANCH   1   2
ATOM      2  C   UNL     1      -1.709  -0.090   0.388  0.00  0.00    -0.004 C 
ATOM      3  C   UNL     1      -1.495  -1.404  -0.030  0.00  0.00    -0.003 C 
ATOM      4  C   UNL     1      -1.705  -2.455   0.894  0.00  0.00    -0.000 C 
ATOM      5  C   UNL     1      -2.119   0.209   1.680  0.00  0.00    -0.003 C 
ATOM      6  C   UNL     1      -1.079  -1.711  -1.336  0.00  0.00    -0.000 C 
ATOM      7  C   UNL     1      -2.121  -2.149   2.200  0.00  0.00    -0.000 C 
ATOM      8  C   UNL     1      -2.326  -0.825   2.589  0.00  0.00    -0.000 C 
ATOM      9  C   UNL     1      -1.494  -3.782   0.484  0.00  0.00    -0.000 C 
ATOM     10  C   UNL     1      -0.873  -3.035  -1.726  0.00  0.00    -0.000 C 
ATOM     11  C   UNL     1      -1.080  -4.069  -0.817  0.00  0.00    -0.000 C 
ENDBRANCH   1   2
BRANCH   1  12
ATOM     12  P   UNL     1      -3.088   1.943  -0.886  0.00  0.00    +0.348 P 
ATOM     13  O   UNL     1      -3.719   2.476   0.339  0.00  0.00    -0.257 OA
BRANCH  12  14
ATOM     14  O   UNL     1      -3.895   0.819  -1.698  0.00  0.00    -0.323 OA
ATOM     15  H   UNL     1      -4.770   1.160  -1.939  0.00  0.00    +0.220 HD
ENDBRANCH  12  14
BRANCH  12  16
ATOM     16  O   UNL     1      -2.642   3.004  -2.003  0.00  0.00    -0.323 OA
ATOM     17  H   UNL     1      -3.410   3.533  -2.271  0.00  0.00    +0.220 HD
ENDBRANCH  12  16
ENDBRANCH   1  12
BRANCH   1  19
ATOM     18  O   UNL     1      -0.748   3.229   0.232  0.00  0.00    -0.290 OA
ATOM     19  C   UNL     1      -0.425   2.052  -0.024  0.00  0.00    +0.188 C 
BRANCH  19  20
ATOM     20  C   UNL     1       0.949   1.614   0.164  0.00  0.00    +0.036 C 
ATOM     21  C   UNL     1       1.477   0.608  -0.646  0.00  0.00    +0.003 C 
ATOM     22  C   UNL     1       2.802   0.174  -0.476  0.00  0.00    +0.000 C 
ATOM     23  C   UNL     1       1.736   2.198   1.153  0.00  0.00    +0.003 C 
ATOM     24  C   UNL     1       3.602   0.768   0.529  0.00  0.00    +0.000 C 
ATOM     25  C   UNL     1       3.054   1.778   1.335  0.00  0.00    +0.000 C 
ATOM     26  C   UNL     1       3.350  -0.837  -1.283  0.00  0.00    +0.000 C 
ATOM     27  C   UNL     1       4.927   0.333   0.698  0.00  0.00    +0.000 C 
ATOM     28  C   UNL     1       4.669  -1.256  -1.100  0.00  0.00    +0.000 C 
ATOM     29  C   UNL     1       5.455  -0.672  -0.112  0.00  0.00    +0.000 C 
ENDBRANCH  19  20
ENDBRANCH   1  19
TORSDOF 6
