REMARK  Name = 78386
REMARK  5 active torsions:
REMARK  status: ('A' for Active; 'I' for Inactive)
REMARK    1  A    between atoms: C_1  and  C_2
REMARK    2  A    between atoms: C_1  and  C_8
REMARK    3  A    between atoms: C_2  and  C_4
REMARK    4  A    between atoms: C_8  and  C_10
REMARK    5  A    between atoms: C_10  and  O_11
REMARK                            x       y       z     vdW  Elec       q    Type
REMARK                         _______ _______ _______ _____ _____    ______ ____
ROOT
ATOM      1  C   UNL     1      -1.022   1.681   0.220  0.00  0.00    +0.017 C 
ENDROOT
BRANCH   1   2
ATOM      2  C   UNL     1      -0.037   1.271  -0.884  0.00  0.00    +0.034 C 
BRANCH   2   4
ATOM      3  S   UNL     1       1.419  -1.068  -1.038  0.00  0.00    -0.091 S 
ATOM      4  C   UNL     1       1.153   0.484  -0.399  0.00  0.00    +0.007 C 
ATOM      5  C   UNL     1       2.081   0.864   0.520  0.00  0.00    +0.003 C 
ATOM      6  C   UNL     1       3.057  -0.155   0.717  0.00  0.00    +0.007 C 
ATOM      7  C   UNL     1       2.817  -1.260  -0.069  0.00  0.00    +0.035 C 
ENDBRANCH   2   4
ENDBRANCH   1   2
BRANCH   1   8
ATOM      8  C   UNL     1      -1.609   0.499   0.999  0.00  0.00    +0.110 C 
BRANCH   8  10
ATOM      9  O   UNL     1      -2.994  -0.160  -0.892  0.00  0.00    -0.250 OA
ATOM     10  C   UNL     1      -2.411  -0.456   0.143  0.00  0.00    +0.314 C 
BRANCH  10  11
ATOM     11  O   UNL     1      -2.454  -1.701   0.683  0.00  0.00    -0.480 OA
ATOM     12  H   UNL     1      -1.992  -1.883   1.478  0.00  0.00    +0.295 HD
ENDBRANCH  10  11
ENDBRANCH   8  10
ENDBRANCH   1   8
TORSDOF 5
