REMARK  Name = 5287850
REMARK  6 active torsions:
REMARK  status: ('A' for Active; 'I' for Inactive)
REMARK    1  A    between atoms: C_1  and  C_3
REMARK    2  A    between atoms: C_1  and  C_6
REMARK    3  A    between atoms: C_1  and  C_13
REMARK    4  A    between atoms: C_3  and  O_4
REMARK    5  A    between atoms: C_6  and  C_7
REMARK    6  A    between atoms: C_13  and  S_14
REMARK                            x       y       z     vdW  Elec       q    Type
REMARK                         _______ _______ _______ _____ _____    ______ ____
ROOT
ATOM      1  C   UNL     1      -1.631  -0.228   0.717  0.00  0.00    +0.114 C 
ENDROOT
BRANCH   1   3
ATOM      2  O   UNL     1      -1.475   0.994  -1.392  0.00  0.00    -0.250 OA
ATOM      3  C   UNL     1      -1.834   0.956  -0.223  0.00  0.00    +0.314 C 
BRANCH   3   4
ATOM      4  O   UNL     1      -2.481   1.985   0.382  0.00  0.00    -0.480 OA
ATOM      5  H   UNL     1      -2.739   1.914   1.280  0.00  0.00    +0.295 HD
ENDBRANCH   3   4
ENDBRANCH   1   3
BRANCH   1   6
ATOM      6  C   UNL     1      -0.327  -0.061   1.527  0.00  0.00    +0.038 C 
BRANCH   6   7
ATOM      7  C   UNL     1       0.950  -0.050   0.720  0.00  0.00    -0.022 C 
ATOM      8  C   UNL     1       1.606  -1.245   0.472  0.00  0.00    -0.004 C 
ATOM      9  C   UNL     1       1.440   1.155   0.243  0.00  0.00    -0.004 C 
ATOM     10  C   UNL     1       2.785  -1.235  -0.272  0.00  0.00    -0.000 C 
ATOM     11  C   UNL     1       2.619   1.165  -0.502  0.00  0.00    -0.000 C 
ATOM     12  C   UNL     1       3.292  -0.030  -0.760  0.00  0.00    -0.000 C 
ENDBRANCH   6   7
ENDBRANCH   1   6
BRANCH   1  13
ATOM     13  C   UNL     1      -1.680  -1.575  -0.024  0.00  0.00    +0.065 C 
BRANCH  13  14
ATOM     14  S   UNL     1      -3.265  -1.830  -0.888  0.00  0.00    -0.167 S 
ATOM     15  H   UNL     1      -3.247  -3.033  -1.522  0.00  0.00    +0.102 HD
ENDBRANCH  13  14
ENDBRANCH   1  13
TORSDOF 6
