REMARK  Name = 445245
REMARK  5 active torsions:
REMARK  status: ('A' for Active; 'I' for Inactive)
REMARK    1  A    between atoms: C_5  and  C_16
REMARK    2  A    between atoms: C_6  and  O_10
REMARK    3  A    between atoms: C_7  and  O_12
REMARK    4  A    between atoms: C_8  and  O_14
REMARK    5  A    between atoms: C_16  and  O_17
REMARK                            x       y       z     vdW  Elec       q    Type
REMARK                         _______ _______ _______ _____ _____    ______ ____
ROOT
ATOM      1  N   UNL     1      -0.505  -0.847  -0.227  0.00  0.00    -0.212 N 
ATOM      2  N   UNL     1      -1.212  -1.974  -0.394  0.00  0.00    -0.043 NA
ATOM      3  N   UNL     1      -2.515  -0.351   0.414  0.00  0.00    -0.110 NA
ATOM      4  N   UNL     1      -2.439  -1.666   0.007  0.00  0.00    -0.023 NA
ATOM      5  C   UNL     1       0.917  -0.764  -0.511  0.00  0.00    +0.167 C 
ATOM      6  C   UNL     1       1.389   0.711  -0.543  0.00  0.00    +0.165 C 
ATOM      7  C   UNL     1       0.715   1.605   0.518  0.00  0.00    +0.173 C 
ATOM      8  C   UNL     1      -0.822   1.528   0.488  0.00  0.00    +0.200 C 
ATOM      9  C   UNL     1      -1.307   0.146   0.256  0.00  0.00    +0.190 A 
ENDROOT
BRANCH   6  10
ATOM     10  O   UNL     1       1.139   1.252  -1.843  0.00  0.00    -0.380 OA
ATOM     11  H   UNL     1       1.561   0.692  -2.513  0.00  0.00    +0.211 HD
ENDBRANCH   6  10
BRANCH   7  12
ATOM     12  O   UNL     1       1.186   1.230   1.810  0.00  0.00    -0.379 OA
ATOM     13  H   UNL     1       2.154   1.280   1.828  0.00  0.00    +0.211 HD
ENDBRANCH   7  12
BRANCH   8  14
ATOM     14  O   UNL     1      -1.329   2.302  -0.593  0.00  0.00    -0.375 OA
ATOM     15  H   UNL     1      -1.042   3.223  -0.494  0.00  0.00    +0.211 HD
ENDBRANCH   8  14
BRANCH   5  16
ATOM     16  C   UNL     1       1.711  -1.599   0.497  0.00  0.00    +0.164 C 
BRANCH  16  17
ATOM     17  O   UNL     1       3.074  -1.575   0.120  0.00  0.00    -0.380 OA
ATOM     18  H   UNL     1       3.592  -2.101   0.750  0.00  0.00    +0.211 HD
ENDBRANCH  16  17
ENDBRANCH   5  16
TORSDOF 5
