REMARK  Name = 5289091
REMARK  14 active torsions:
REMARK  status: ('A' for Active; 'I' for Inactive)
REMARK    1  A    between atoms: C_1  and  C_4
REMARK    2  A    between atoms: C_1  and  N_21
REMARK    3  A    between atoms: C_1  and  C_32
REMARK    4  A    between atoms: N_3  and  C_6
REMARK    5  A    between atoms: C_6  and  C_8
REMARK    6  A    between atoms: C_6  and  C_12
REMARK    7  A    between atoms: C_8  and  C_9
REMARK    8  A    between atoms: C_9  and  O_10
REMARK    9  A    between atoms: C_12  and  C_13
REMARK   10  A    between atoms: C_13  and  C_14
REMARK   11  A    between atoms: C_22  and  O_24
REMARK   12  A    between atoms: O_24  and  C_25
REMARK   13  A    between atoms: C_25  and  C_27
REMARK   14  A    between atoms: C_32  and  C_33
REMARK                            x       y       z     vdW  Elec       q    Type
REMARK                         _______ _______ _______ _____ _____    ______ ____
ROOT
ATOM      1  C   UNL     1      -0.163   1.575  -0.200  0.00  0.00    +0.155 C 
ENDROOT
BRANCH   1   4
ATOM      2  O   UNL     1      -1.116   0.059  -1.833  0.00  0.00    -0.273 OA
ATOM      3  N   UNL     1      -2.418   0.711  -0.024  0.00  0.00    -0.298 N 
ATOM      4  C   UNL     1      -1.265   0.710  -0.802  0.00  0.00    +0.241 C 
ATOM      5  H   UNL     1      -2.433   1.270   0.787  0.00  0.00    +0.150 HD
BRANCH   3   6
ATOM      6  C   UNL     1      -3.591  -0.061  -0.340  0.00  0.00    +0.132 C 
BRANCH   6   8
ATOM      7  O   UNL     1      -4.515   2.004  -1.185  0.00  0.00    -0.292 OA
ATOM      8  C   UNL     1      -4.424   0.781  -1.296  0.00  0.00    +0.198 C 
BRANCH   8   9
ATOM      9  C   UNL     1      -5.176   0.020  -2.371  0.00  0.00    +0.204 C 
BRANCH   9  10
ATOM     10  O   UNL     1      -5.922   0.905  -3.181  0.00  0.00    -0.375 OA
ATOM     11  H   UNL     1      -6.395   0.400  -3.861  0.00  0.00    +0.211 HD
ENDBRANCH   9  10
ENDBRANCH   8   9
ENDBRANCH   6   8
BRANCH   6  12
ATOM     12  C   UNL     1      -4.415  -0.418   0.900  0.00  0.00    +0.032 C 
BRANCH  12  13
ATOM     13  C   UNL     1      -3.638  -1.200   1.968  0.00  0.00    +0.029 C 
BRANCH  13  14
ATOM     14  C   UNL     1      -3.160  -2.552   1.504  0.00  0.00    -0.022 C 
ATOM     15  C   UNL     1      -1.907  -2.681   0.903  0.00  0.00    -0.004 C 
ATOM     16  C   UNL     1      -3.970  -3.675   1.675  0.00  0.00    -0.004 C 
ATOM     17  C   UNL     1      -1.465  -3.932   0.473  0.00  0.00    -0.000 C 
ATOM     18  C   UNL     1      -3.527  -4.926   1.245  0.00  0.00    -0.000 C 
ATOM     19  C   UNL     1      -2.275  -5.055   0.644  0.00  0.00    -0.000 C 
ENDBRANCH  13  14
ENDBRANCH  12  13
ENDBRANCH   6  12
ENDBRANCH   3   6
ENDBRANCH   1   4
BRANCH   1  21
ATOM     20  O   UNL     1       1.110  -0.470   1.423  0.00  0.00    -0.226 OA
ATOM     21  N   UNL     1       1.089   0.904  -0.446  0.00  0.00    -0.264 N 
ATOM     22  C   UNL     1       1.620  -0.062   0.385  0.00  0.00    +0.402 C 
ATOM     23  H   UNL     1       1.594   1.148  -1.255  0.00  0.00    +0.153 HD
BRANCH  22  24
ATOM     24  O   UNL     1       2.811  -0.504  -0.120  0.00  0.00    -0.430 OA
BRANCH  24  25
ATOM     25  C   UNL     1       3.478  -1.514   0.646  0.00  0.00    +0.238 C 
BRANCH  25  27
ATOM     26  N   UNL     1       7.127  -1.501  -0.344  0.00  0.00    -0.243 NA
ATOM     27  C   UNL     1       4.759  -1.884  -0.043  0.00  0.00    +0.040 C 
ATOM     28  C   UNL     1       4.796  -2.905  -0.985  0.00  0.00    +0.002 C 
ATOM     29  C   UNL     1       5.941  -1.218   0.240  0.00  0.00    +0.098 C 
ATOM     30  C   UNL     1       5.998  -3.225  -1.608  0.00  0.00    +0.020 C 
ATOM     31  C   UNL     1       7.124  -2.499  -1.255  0.00  0.00    +0.099 C 
ENDBRANCH  25  27
ENDBRANCH  24  25
ENDBRANCH  22  24
ENDBRANCH   1  21
BRANCH   1  32
ATOM     32  C   UNL     1      -0.196   2.981  -0.809  0.00  0.00    +0.055 C 
BRANCH  32  33
ATOM     33  C   UNL     1       0.537   3.998   0.030  0.00  0.00    -0.020 C 
ATOM     34  C   UNL     1      -0.143   4.706   1.021  0.00  0.00    -0.004 C 
ATOM     35  C   UNL     1       1.896   4.231  -0.185  0.00  0.00    -0.004 C 
ATOM     36  C   UNL     1       0.534   5.646   1.797  0.00  0.00    -0.000 C 
ATOM     37  C   UNL     1       2.574   5.172   0.591  0.00  0.00    -0.000 C 
ATOM     38  C   UNL     1       1.893   5.879   1.582  0.00  0.00    -0.000 C 
ENDBRANCH  32  33
ENDBRANCH   1  32
TORSDOF 14
