REMARK  Name = 446102
REMARK  6 active torsions:
REMARK  status: ('A' for Active; 'I' for Inactive)
REMARK    1  A    between atoms: C_2  and  O_7
REMARK    2  A    between atoms: C_3  and  O_9
REMARK    3  A    between atoms: C_4  and  O_11
REMARK    4  A    between atoms: C_5  and  C_16
REMARK    5  A    between atoms: C_6  and  O_13
REMARK    6  A    between atoms: C_16  and  O_17
REMARK                            x       y       z     vdW  Elec       q    Type
REMARK                         _______ _______ _______ _____ _____    ______ ____
ROOT
ATOM      1  O   UNL     1      -0.187   1.172  -0.472  0.00  0.00    -0.317 OA
ATOM      2  C   UNL     1       1.325  -1.129   0.402  0.00  0.00    +0.172 C 
ATOM      3  C   UNL     1      -0.196  -1.169   0.210  0.00  0.00    +0.178 C 
ATOM      4  C   UNL     1       1.969   0.009  -0.403  0.00  0.00    +0.196 C 
ATOM      5  C   UNL     1      -0.789   0.226   0.403  0.00  0.00    +0.245 C 
ATOM      6  C   UNL     1       1.217   1.338  -0.248  0.00  0.00    +0.263 C 
ENDROOT
BRANCH   2   7
ATOM      7  O   UNL     1       1.624  -0.939   1.782  0.00  0.00    -0.379 OA
ATOM      8  H   UNL     1       1.223  -1.653   2.301  0.00  0.00    +0.211 HD
ENDBRANCH   2   7
BRANCH   3   9
ATOM      9  O   UNL     1      -0.492  -1.633  -1.107  0.00  0.00    -0.379 OA
ATOM     10  H   UNL     1      -0.115  -2.519  -1.230  0.00  0.00    +0.211 HD
ENDBRANCH   3   9
BRANCH   4  11
ATOM     11  O   UNL     1       1.981  -0.360  -1.780  0.00  0.00    -0.378 OA
ATOM     12  H   UNL     1       2.455  -1.200  -1.886  0.00  0.00    +0.211 HD
ENDBRANCH   4  11
BRANCH   6  13
ATOM     13  O   UNL     1       1.494   1.902   1.031  0.00  0.00    -0.358 OA
ATOM     14  H   UNL     1       1.017   2.741   1.125  0.00  0.00    +0.213 HD
ENDBRANCH   6  13
BRANCH   5  16
ATOM     15  O   UNL     1      -2.762   0.912  -0.808  0.00  0.00    -0.247 OA
ATOM     16  C   UNL     1      -2.249   0.247   0.080  0.00  0.00    +0.344 C 
BRANCH  16  17
ATOM     17  O   UNL     1      -2.935  -0.576   0.910  0.00  0.00    -0.478 OA
ATOM     18  H   UNL     1      -2.480  -1.059   1.572  0.00  0.00    +0.295 HD
ENDBRANCH  16  17
ENDBRANCH   5  16
TORSDOF 6
