REMARK  Name = 17754207
REMARK  8 active torsions:
REMARK  status: ('A' for Active; 'I' for Inactive)
REMARK    1  A    between atoms: C_1  and  C_14
REMARK    2  A    between atoms: C_2  and  O_10
REMARK    3  A    between atoms: C_4  and  N_7
REMARK    4  A    between atoms: C_6  and  O_12
REMARK    5  A    between atoms: C_14  and  CA_15
REMARK    6  A    between atoms: CA_15  and  N_16
REMARK    7  A    between atoms: CA_15  and  C_21
REMARK    8  A    between atoms: C_21  and  O_22
REMARK                            x       y       z     vdW  Elec       q    Type
REMARK                         _______ _______ _______ _____ _____    ______ ____
ROOT
ATOM      1  C   UNL     1       0.102   0.495   0.518  0.00  0.00    +0.011 C 
ATOM      2  C   UNL     1       0.895   1.510  -0.019  0.00  0.00    +0.133 C 
ATOM      3  C   UNL     1       0.628  -0.785   0.687  0.00  0.00    +0.016 C 
ATOM      4  C   UNL     1       1.947  -1.052   0.319  0.00  0.00    +0.076 C 
ATOM      5  C   UNL     1       2.214   1.243  -0.387  0.00  0.00    +0.074 C 
ATOM      6  C   UNL     1       2.740  -0.038  -0.219  0.00  0.00    +0.149 C 
ENDROOT
BRANCH   4   7
ATOM      7  N   UNL     1       2.467  -2.353   0.494  0.00  0.00    -0.355 N 
ATOM      8  H   UNL     1       1.900  -3.062   0.874  0.00  0.00    +0.142 HD
ATOM      9  H   UNL     1       3.396  -2.551   0.237  0.00  0.00    +0.142 HD
ENDBRANCH   4   7
BRANCH   2  10
ATOM     10  O   UNL     1       0.397   2.766  -0.190  0.00  0.00    -0.506 OA
ATOM     11  H   UNL     1      -0.487   2.957   0.054  0.00  0.00    +0.292 HD
ENDBRANCH   2  10
BRANCH   6  12
ATOM     12  O   UNL     1       4.031  -0.278  -0.585  0.00  0.00    -0.504 OA
ATOM     13  H   UNL     1       4.397  -1.133  -0.477  0.00  0.00    +0.292 HD
ENDBRANCH   6  12
BRANCH   1  14
ATOM     14  C   UNL     1      -1.328   0.766   0.923  0.00  0.00    +0.018 C 
BRANCH  14  15
ATOM     15  CA  UNL     1      -2.328   0.524  -0.218  0.00  0.00    +0.040 C 
BRANCH  15  16
ATOM     16  N   UNL     1      -3.574   1.235   0.057  0.00  0.00    +0.389 N 
ATOM     17  H1  UNL     1      -3.381   2.231   0.161  0.00  0.00    -0.088 HD
ATOM     18  H2  UNL     1      -3.987   0.878   0.919  0.00  0.00    -0.088 HD
ATOM     19  H3  UNL     1      -4.225   1.093  -0.715  0.00  0.00    -0.088 HD
ENDBRANCH  15  16
BRANCH  15  21
ATOM     20  OXT UNL     1      -3.599  -1.503   0.240  0.00  0.00    -0.253 OA
ATOM     21  C   UNL     1      -2.689  -0.945  -0.359  0.00  0.00    +0.293 C 
BRANCH  21  22
ATOM     22  O   UNL     1      -1.903  -1.586  -1.263  0.00  0.00    -0.482 OA
ATOM     23  H   UNL     1      -1.216  -1.121  -1.700  0.00  0.00    +0.295 HD
ENDBRANCH  21  22
ENDBRANCH  15  21
ENDBRANCH  14  15
ENDBRANCH   1  14
TORSDOF 8
