REMARK  Name = 91665
REMARK  0 active torsions:
REMARK  status: ('A' for Active; 'I' for Inactive)
REMARK                            x       y       z     vdW  Elec       q    Type
REMARK                         _______ _______ _______ _____ _____    ______ ____
ROOT
ATOM      1  O   UNL     1      -3.297   0.361  -0.093  0.00  0.00    -0.274 OA
ATOM      2  N   UNL     1      -1.010   0.654  -0.018  0.00  0.00    -0.236 N 
ATOM      3  C   UNL     1       0.261   0.097   0.002  0.00  0.00    +0.054 C 
ATOM      4  C   UNL     1      -0.883   2.113  -0.121  0.00  0.00    +0.072 C 
ATOM      5  C   UNL     1       0.618   2.436   0.069  0.00  0.00    +0.018 C 
ATOM      6  C   UNL     1       1.242   1.075   0.037  0.00  0.00    +0.015 C 
ATOM      7  C   UNL     1       0.517  -1.258  -0.049  0.00  0.00    -0.008 C 
ATOM      8  C   UNL     1      -0.646  -2.185  -0.217  0.00  0.00    +0.037 C 
ATOM      9  C   UNL     1      -1.937  -1.578   0.350  0.00  0.00    +0.091 C 
ATOM     10  C   UNL     1      -2.162  -0.100   0.021  0.00  0.00    +0.233 C 
ATOM     11  C   UNL     1       2.570   0.699   0.056  0.00  0.00    +0.001 C 
ATOM     12  C   UNL     1       1.855  -1.645  -0.050  0.00  0.00    -0.003 C 
ATOM     13  C   UNL     1       2.873  -0.671   0.013  0.00  0.00    -0.000 C 
ENDROOT
TORSDOF 0
