REMARK  Name = 449157
REMARK  1 active torsions:
REMARK  status: ('A' for Active; 'I' for Inactive)
REMARK    1  A    between atoms: C_10  and  C_22
REMARK                            x       y       z     vdW  Elec       q    Type
REMARK                         _______ _______ _______ _____ _____    ______ ____
ROOT
ATOM      1  F   UNL     1       4.064  -1.886   0.191  0.00  0.00    -0.204 F 
ATOM      2  O   UNL     1      -1.430  -1.666   0.131  0.00  0.00    -0.470 OA
ATOM      3  O   UNL     1       0.780   1.482  -2.408  0.00  0.00    -0.273 OA
ATOM      4  O   UNL     1       1.050   3.824   1.524  0.00  0.00    -0.252 OA
ATOM      5  N   UNL     1       0.197   1.708   1.012  0.00  0.00    -0.281 N 
ATOM      6  N   UNL     1       1.056   2.943  -0.628  0.00  0.00    -0.238 N 
ATOM      7  C   UNL     1       0.017   0.873  -0.162  0.00  0.00    +0.153 C 
ATOM      8  C   UNL     1      -1.470   0.695  -0.488  0.00  0.00    +0.084 C 
ATOM      9  C   UNL     1       0.702  -0.465  -0.003  0.00  0.00    +0.038 C 
ATOM     10  C   UNL     1      -2.045  -0.405   0.390  0.00  0.00    +0.243 C 
ATOM     11  C   UNL     1       0.656   1.771  -1.225  0.00  0.00    +0.249 C 
ATOM     12  C   UNL     1      -0.057  -1.640   0.134  0.00  0.00    +0.137 C 
ATOM     13  C   UNL     1       0.797   2.934   0.724  0.00  0.00    +0.307 C 
ATOM     14  C   UNL     1       2.103  -0.568   0.031  0.00  0.00    +0.030 C 
ATOM     15  C   UNL     1       0.571  -2.884   0.254  0.00  0.00    +0.039 C 
ATOM     16  C   UNL     1       2.727  -1.810   0.167  0.00  0.00    +0.140 C 
ATOM     17  C   UNL     1       1.961  -2.967   0.272  0.00  0.00    +0.033 C 
ATOM     18  H   UNL     1      -0.077   1.437   1.919  0.00  0.00    +0.152 HD
ATOM     19  H   UNL     1       1.474   3.694  -1.107  0.00  0.00    +0.159 HD
ENDROOT
BRANCH  10  22
ATOM     20  O   UNL     1      -3.840  -1.400  -0.828  0.00  0.00    -0.271 OA
ATOM     21  N   UNL     1      -4.352   0.096   0.844  0.00  0.00    -0.326 N 
ATOM     22  C   UNL     1      -3.485  -0.635   0.067  0.00  0.00    +0.260 C 
ATOM     23  H   UNL     1      -5.324   0.015   0.708  0.00  0.00    +0.145 HD
ATOM     24  H   UNL     1      -4.001   0.702   1.536  0.00  0.00    +0.145 HD
ENDBRANCH  10  22
TORSDOF 1
