REMARK  Name = 446242
REMARK  5 active torsions:
REMARK  status: ('A' for Active; 'I' for Inactive)
REMARK    1  A    between atoms: N_2  and  C_17
REMARK    2  A    between atoms: C_3  and  C_5
REMARK    3  A    between atoms: C_6  and  S_11
REMARK    4  A    between atoms: S_11  and  N_14
REMARK    5  A    between atoms: C_17  and  C_21
REMARK                            x       y       z     vdW  Elec       q    Type
REMARK                         _______ _______ _______ _____ _____    ______ ____
ROOT
ATOM      1  O   UNL     1       0.167   2.405   0.233  0.00  0.00    -0.270 OA
ATOM      2  N   UNL     1       0.571   0.840  -1.430  0.00  0.00    -0.297 N 
ATOM      3  C   UNL     1      -0.231   1.450  -0.458  0.00  0.00    +0.246 C 
ATOM      4  H   UNL     1       0.193   0.088  -1.941  0.00  0.00    +0.150 HD
ENDROOT
BRANCH   3   5
ATOM      5  C   UNL     1      -1.563   0.901  -0.262  0.00  0.00    +0.053 C 
ATOM      6  C   UNL     1      -4.118  -0.154   0.115  0.00  0.00    +0.122 C 
ATOM      7  C   UNL     1      -2.193   1.025   0.976  0.00  0.00    +0.006 C 
ATOM      8  C   UNL     1      -2.210   0.249  -1.311  0.00  0.00    +0.006 C 
ATOM      9  C   UNL     1      -3.471   0.498   1.165  0.00  0.00    +0.020 C 
ATOM     10  C   UNL     1      -3.488  -0.278  -1.123  0.00  0.00    +0.020 C 
BRANCH   6  11
ATOM     11  S   UNL     1      -5.718  -0.812   0.350  0.00  0.00    +0.057 S 
ATOM     12  O   UNL     1      -6.358  -0.087   1.439  0.00  0.00    -0.153 OA
ATOM     13  O   UNL     1      -6.377  -0.900  -0.945  0.00  0.00    -0.153 OA
BRANCH  11  14
ATOM     14  N   UNL     1      -5.345  -2.392   0.884  0.00  0.00    -0.203 NA
ATOM     15  H   UNL     1      -6.209  -2.903   1.064  0.00  0.00    +0.144 HD
ATOM     16  H   UNL     1      -4.796  -2.339   1.742  0.00  0.00    +0.144 HD
ENDBRANCH  11  14
ENDBRANCH   6  11
ENDBRANCH   3   5
BRANCH   2  17
ATOM     17  C   UNL     1       1.924   1.255  -1.725  0.00  0.00    +0.117 C 
BRANCH  17  21
ATOM     18  F   UNL     1       4.619   0.874   2.311  0.00  0.00    -0.202 F 
ATOM     19  F   UNL     1       4.933  -2.501  -0.996  0.00  0.00    -0.202 F 
ATOM     20  F   UNL     1       5.693  -1.479   1.423  0.00  0.00    -0.199 F 
ATOM     21  C   UNL     1       2.931   0.525  -0.884  0.00  0.00    +0.002 C 
ATOM     22  C   UNL     1       3.472  -0.670  -1.343  0.00  0.00    +0.029 C 
ATOM     23  C   UNL     1       3.312   1.052   0.344  0.00  0.00    +0.029 C 
ATOM     24  C   UNL     1       4.248   0.374   1.125  0.00  0.00    +0.169 C 
ATOM     25  C   UNL     1       4.408  -1.348  -0.562  0.00  0.00    +0.169 C 
ATOM     26  C   UNL     1       4.796  -0.827   0.672  0.00  0.00    +0.195 C 
ENDBRANCH  17  21
ENDBRANCH   2  17
TORSDOF 5
