REMARK  Name = 448436
REMARK  6 active torsions:
REMARK  status: ('A' for Active; 'I' for Inactive)
REMARK    1  A    between atoms: C_4  and  C_28
REMARK    2  A    between atoms: C_5  and  C_12
REMARK    3  A    between atoms: C_6  and  C_18
REMARK    4  A    between atoms: C_21  and  O_24
REMARK    5  A    between atoms: C_22  and  O_26
REMARK    6  A    between atoms: C_28  and  N_29
REMARK                            x       y       z     vdW  Elec       q    Type
REMARK                         _______ _______ _______ _____ _____    ______ ____
ROOT
ATOM      1  N   UNL     1       0.307   0.002   0.042  0.00  0.00    -0.344 NA
ATOM      2  N   UNL     1      -0.690   2.152  -0.391  0.00  0.00    -0.329 NA
ATOM      3  N   UNL     1       0.676   4.058  -0.735  0.00  0.00    -0.335 N 
ATOM      4  C   UNL     1       1.705   1.931  -0.304  0.00  0.00    +0.099 C 
ATOM      5  C   UNL     1       1.516   0.590  -0.050  0.00  0.00    +0.128 C 
ATOM      6  C   UNL     1      -0.739   0.831  -0.137  0.00  0.00    +0.139 C 
ATOM      7  C   UNL     1       0.552   2.672  -0.468  0.00  0.00    +0.170 C 
ATOM      8  H   UNL     1      -0.130   4.610  -0.856  0.00  0.00    +0.144 HD
ATOM      9  H   UNL     1       1.568   4.469  -0.799  0.00  0.00    +0.144 HD
ENDROOT
BRANCH   5  12
ATOM     10 CL   UNL     1       2.654  -0.819  -2.546  0.00  0.00    -0.082 Cl
ATOM     11 CL   UNL     1       6.085  -3.120   0.893  0.00  0.00    -0.082 Cl
ATOM     12  C   UNL     1       2.629  -0.320   0.145  0.00  0.00    +0.037 C 
ATOM     13  C   UNL     1       3.214  -1.005  -0.920  0.00  0.00    +0.061 C 
ATOM     14  C   UNL     1       3.112  -0.500   1.440  0.00  0.00    +0.004 C 
ATOM     15  C   UNL     1       4.282  -1.871  -0.689  0.00  0.00    +0.023 C 
ATOM     16  C   UNL     1       4.181  -1.366   1.671  0.00  0.00    +0.012 C 
ATOM     17  C   UNL     1       4.766  -2.051   0.607  0.00  0.00    +0.059 C 
ENDBRANCH   5  12
BRANCH   6  18
ATOM     18  C   UNL     1      -2.049   0.242  -0.046  0.00  0.00    +0.092 C 
ATOM     19  C   UNL     1      -2.248  -1.095  -0.406  0.00  0.00    +0.049 C 
ATOM     20  C   UNL     1      -3.134   1.001   0.404  0.00  0.00    +0.049 C 
ATOM     21  C   UNL     1      -4.403   0.430   0.493  0.00  0.00    +0.142 C 
ATOM     22  C   UNL     1      -3.517  -1.666  -0.318  0.00  0.00    +0.142 C 
ATOM     23  C   UNL     1      -4.595  -0.903   0.132  0.00  0.00    +0.074 C 
BRANCH  21  24
ATOM     24  O   UNL     1      -5.455   1.174   0.932  0.00  0.00    -0.471 OA
ATOM     25  C   UNL     1      -6.715   0.516   0.992  0.00  0.00    +0.252 C 
ENDBRANCH  21  24
BRANCH  22  26
ATOM     26  O   UNL     1      -3.704  -2.968  -0.668  0.00  0.00    -0.471 OA
ATOM     27  C   UNL     1      -5.029  -3.472  -0.548  0.00  0.00    +0.252 C 
ENDBRANCH  22  26
ENDBRANCH   6  18
BRANCH   4  28
ATOM     28  C   UNL     1       3.061   2.540  -0.398  0.00  0.00    -0.070 C 
BRANCH  28  29
ATOM     29  N   UNL     1       3.538   3.016   0.876  0.00  0.00    +0.381 N 
ATOM     30  H   UNL     1       4.467   3.423   0.761  0.00  0.00    -0.089 HD
ATOM     31  H   UNL     1       3.587   2.238   1.534  0.00  0.00    -0.089 HD
ATOM     32  H   UNL     1       2.899   3.725   1.235  0.00  0.00    -0.089 HD
ENDBRANCH  28  29
ENDBRANCH   4  28
TORSDOF 6
