REMARK  Name = 5288266
REMARK  13 active torsions:
REMARK  status: ('A' for Active; 'I' for Inactive)
REMARK    1  A    between atoms: C_1  and  C_2
REMARK    2  A    between atoms: C_1  and  C_11
REMARK    3  A    between atoms: C_2  and  C_3
REMARK    4  A    between atoms: C_3  and  C_4
REMARK    5  A    between atoms: C_4  and  C_5
REMARK    6  A    between atoms: C_5  and  C_6
REMARK    7  A    between atoms: C_7  and  C_8
REMARK    8  A    between atoms: C_8  and  C_9
REMARK    9  A    between atoms: C_11  and  C_12
REMARK   10  A    between atoms: C_12  and  O_13
REMARK   11  A    between atoms: C_12  and  C_15
REMARK   12  A    between atoms: C_15  and  C_17
REMARK   13  A    between atoms: C_17  and  O_18
REMARK                            x       y       z     vdW  Elec       q    Type
REMARK                         _______ _______ _______ _____ _____    ______ ____
ROOT
ATOM      1  C   UNL     1       2.011  -0.882   0.210  0.00  0.00    +0.002 C 
ENDROOT
BRANCH   1   2
ATOM      2  C   UNL     1       0.798   0.038   0.371  0.00  0.00    +0.000 C 
BRANCH   2   3
ATOM      3  C   UNL     1      -0.535  -0.653   0.074  0.00  0.00    +0.000 C 
BRANCH   3   4
ATOM      4  C   UNL     1      -1.752   0.245   0.307  0.00  0.00    +0.005 C 
BRANCH   4   5
ATOM      5  C   UNL     1      -3.054  -0.493  -0.016  0.00  0.00    +0.026 C 
BRANCH   5   6
ATOM      6  C   UNL     1      -4.306   0.369   0.170  0.00  0.00    -0.031 C 
ATOM      7  C   UNL     1      -5.638  -0.311  -0.160  0.00  0.00    -0.031 C 
BRANCH   7   8
ATOM      8  C   UNL     1      -6.893   0.534   0.079  0.00  0.00    +0.026 C 
BRANCH   8   9
ATOM      9  C   UNL     1      -8.186  -0.166  -0.343  0.00  0.00    +0.005 C 
ATOM     10  C   UNL     1      -9.400   0.715  -0.092  0.00  0.00    +0.000 C 
ENDBRANCH   8   9
ENDBRANCH   7   8
ENDBRANCH   5   6
ENDBRANCH   4   5
ENDBRANCH   3   4
ENDBRANCH   2   3
ENDBRANCH   1   2
BRANCH   1  11
ATOM     11  C   UNL     1       3.314  -0.146   0.546  0.00  0.00    +0.030 C 
BRANCH  11  12
ATOM     12  C   UNL     1       4.545  -1.040   0.353  0.00  0.00    +0.122 C 
BRANCH  12  13
ATOM     13  O   UNL     1       4.565  -1.577  -0.968  0.00  0.00    -0.384 OA
ATOM     14  H   UNL     1       3.724  -2.027  -1.147  0.00  0.00    +0.210 HD
ENDBRANCH  12  13
BRANCH  12  15
ATOM     15  C   UNL     1       5.867  -0.329   0.642  0.00  0.00    +0.138 C 
BRANCH  15  17
ATOM     16  O   UNL     1       5.655   1.032  -1.351  0.00  0.00    -0.250 OA
ATOM     17  C   UNL     1       6.107   0.881  -0.225  0.00  0.00    +0.316 C 
BRANCH  17  18
ATOM     18  O   UNL     1       6.902   1.784   0.400  0.00  0.00    -0.480 OA
ATOM     19  H   UNL     1       7.218   1.610   1.265  0.00  0.00    +0.295 HD
ENDBRANCH  17  18
ENDBRANCH  15  17
ENDBRANCH  12  15
ENDBRANCH  11  12
ENDBRANCH   1  11
TORSDOF 13
