REMARK  Name = 444719
REMARK  7 active torsions:
REMARK  status: ('A' for Active; 'I' for Inactive)
REMARK    1  A    between atoms: C_1  and  N_2
REMARK    2  A    between atoms: C_1  and  P_6
REMARK    3  A    between atoms: C_1  and  C_12
REMARK    4  A    between atoms: P_6  and  O_8
REMARK    5  A    between atoms: P_6  and  O_10
REMARK    6  A    between atoms: C_12  and  C_13
REMARK    7  A    between atoms: C_13  and  S_14
REMARK                            x       y       z     vdW  Elec       q    Type
REMARK                         _______ _______ _______ _____ _____    ______ ____
ROOT
ATOM      1  C   UNL     1       0.780   0.868   0.507  0.00  0.00    +0.042 C 
ENDROOT
BRANCH   1   2
ATOM      2  N   UNL     1       1.720   1.919   0.122  0.00  0.00    +0.389 N 
ATOM      3  H   UNL     1       2.640   1.711   0.511  0.00  0.00    -0.088 HD
ATOM      4  H   UNL     1       1.393   2.815   0.482  0.00  0.00    -0.088 HD
ATOM      5  H   UNL     1       1.783   1.963  -0.895  0.00  0.00    -0.088 HD
ENDBRANCH   1   2
BRANCH   1   6
ATOM      6  P   UNL     1       1.616  -0.573  -0.145  0.00  0.00    +0.317 P 
ATOM      7  O   UNL     1       1.882  -0.544  -1.621  0.00  0.00    -0.260 OA
BRANCH   6   8
ATOM      8  O   UNL     1       0.722  -1.823   0.364  0.00  0.00    -0.325 OA
ATOM      9  H   UNL     1       1.115  -2.651   0.048  0.00  0.00    +0.220 HD
ENDBRANCH   6   8
BRANCH   6  10
ATOM     10  O   UNL     1       2.938  -0.700   0.778  0.00  0.00    -0.325 OA
ATOM     11  H   UNL     1       3.460  -1.466   0.491  0.00  0.00    +0.220 HD
ENDBRANCH   6  10
ENDBRANCH   1   6
BRANCH   1  12
ATOM     12  C   UNL     1      -0.603   1.171  -0.073  0.00  0.00    +0.002 C 
BRANCH  12  13
ATOM     13  C   UNL     1      -1.630   0.101   0.290  0.00  0.00    +0.056 C 
BRANCH  13  14
ATOM     14  S   UNL     1      -3.260   0.516  -0.400  0.00  0.00    -0.139 S 
ATOM     15  C   UNL     1      -4.165  -0.936   0.179  0.00  0.00    +0.069 C 
ENDBRANCH  13  14
ENDBRANCH  12  13
ENDBRANCH   1  12
TORSDOF 7
