REMARK  Name = 51351707
REMARK  9 active torsions:
REMARK  status: ('A' for Active; 'I' for Inactive)
REMARK    1  A    between atoms: C_1  and  C_2
REMARK    2  A    between atoms: C_1  and  C_11
REMARK    3  A    between atoms: C_2  and  CA_3
REMARK    4  A    between atoms: CA_3  and  N_4
REMARK    5  A    between atoms: CA_3  and  C_10
REMARK    6  A    between atoms: C_11  and  N_12
REMARK    7  A    between atoms: N_12  and  C_15
REMARK    8  A    between atoms: N_13  and  C_15
REMARK    9  A    between atoms: N_14  and  C_15
REMARK                            x       y       z     vdW  Elec       q    Type
REMARK                         _______ _______ _______ _____ _____    ______ ____
ROOT
ATOM      1  C   UNL     1      -0.640   0.874   0.398  0.00  0.00    +0.016 C 
ENDROOT
BRANCH   1   2
ATOM      2  C   UNL     1      -1.259  -0.501   0.693  0.00  0.00    -0.009 C 
BRANCH   2   3
ATOM      3  CA  UNL     1      -2.457  -0.860  -0.197  0.00  0.00    +0.040 C 
BRANCH   3   4
ATOM      4  N   UNL     1      -1.946  -1.023  -1.595  0.00  0.00    +0.389 N 
ATOM      5  H1  UNL     1      -1.140  -1.648  -1.592  0.00  0.00    -0.088 HD
ATOM      6  H2  UNL     1      -1.669  -0.113  -1.964  0.00  0.00    -0.088 HD
ATOM      7  H3  UNL     1      -2.681  -1.418  -2.181  0.00  0.00    -0.088 HD
ENDBRANCH   3   4
BRANCH   3  10
ATOM      8  O   UNL     1      -4.406   0.161  -1.102  0.00  0.00    -0.248 OA
ATOM      9  OXT UNL     1      -3.829   0.609   1.060  0.00  0.00    -0.248 OA
ATOM     10  C   UNL     1      -3.679   0.067  -0.073  0.00  0.00    +0.345 C 
ENDBRANCH   3  10
ENDBRANCH   2   3
ENDBRANCH   1   2
BRANCH   1  11
ATOM     11  C   UNL     1       0.578   1.167   1.272  0.00  0.00    +0.071 C 
BRANCH  11  12
ATOM     12  N   UNL     1       1.607   0.177   1.063  0.00  0.00    -0.273 NA
ATOM     13  H   UNL     1       1.576  -0.615   1.648  0.00  0.00    +0.126 HD
BRANCH  12  14
ATOM     14  C   UNL     1       2.640   0.213   0.129  0.00  0.00    +0.174 C 
BRANCH  14  15
ATOM     15  N   UNL     1       3.484  -0.890   0.163  0.00  0.00    -0.272 NA
ATOM     16  C   UNL     1       3.079  -2.219   0.558  0.00  0.00    +0.088 C 
ATOM     17  H   UNL     1       4.423  -0.756  -0.101  0.00  0.00    +0.126 HD
ENDBRANCH  14  15
BRANCH  14  18
ATOM     18  N   UNL     1       2.848   1.174  -0.730  0.00  0.00    -0.272 NA
ATOM     19  C   UNL     1       3.979   1.051  -1.638  0.00  0.00    +0.088 C 
ATOM     20  H   UNL     1       2.256   1.960  -0.762  0.00  0.00    +0.126 HD
ENDBRANCH  14  18
ENDBRANCH  12  14
ENDBRANCH  11  12
ENDBRANCH   1  11
TORSDOF 9
