REMARK  Name = 5288604
REMARK  6 active torsions:
REMARK  status: ('A' for Active; 'I' for Inactive)
REMARK    1  A    between atoms: C_3  and  C_22
REMARK    2  A    between atoms: C_4  and  O_16
REMARK    3  A    between atoms: C_5  and  O_18
REMARK    4  A    between atoms: C_6  and  O_20
REMARK    5  A    between atoms: C_9  and  C_10
REMARK    6  A    between atoms: C_22  and  O_23
REMARK                            x       y       z     vdW  Elec       q    Type
REMARK                         _______ _______ _______ _____ _____    ______ ____
ROOT
ATOM      1  N   UNL     1      -0.854  -0.406   0.255  0.00  0.00    -0.275 N 
ATOM      2  N   UNL     1       0.555   1.149  -0.457  0.00  0.00    -0.392 NA
ATOM      3  C   UNL     1      -2.118  -1.076   0.543  0.00  0.00    +0.134 C 
ATOM      4  C   UNL     1      -3.301  -0.081   0.559  0.00  0.00    +0.161 C 
ATOM      5  C   UNL     1      -3.220   0.991  -0.542  0.00  0.00    +0.174 C 
ATOM      6  C   UNL     1      -1.881   1.741  -0.549  0.00  0.00    +0.207 C 
ATOM      7  C   UNL     1      -0.717   0.852  -0.279  0.00  0.00    +0.190 C 
ATOM      8  C   UNL     1       0.396  -0.916   0.460  0.00  0.00    +0.152 C 
ATOM      9  C   UNL     1       1.249   0.058   0.001  0.00  0.00    +0.130 C 
ENDROOT
BRANCH   9  10
ATOM     10  C   UNL     1       2.676  -0.040  -0.001  0.00  0.00    +0.027 C 
ATOM     11  C   UNL     1       3.295  -1.287  -0.128  0.00  0.00    +0.002 C 
ATOM     12  C   UNL     1       3.461   1.110   0.125  0.00  0.00    +0.002 C 
ATOM     13  C   UNL     1       4.687  -1.383  -0.130  0.00  0.00    +0.000 C 
ATOM     14  C   UNL     1       4.852   1.014   0.123  0.00  0.00    +0.000 C 
ATOM     15  C   UNL     1       5.465  -0.232  -0.004  0.00  0.00    +0.000 C 
ENDBRANCH   9  10
BRANCH   4  16
ATOM     16  O   UNL     1      -3.361   0.555   1.839  0.00  0.00    -0.380 OA
ATOM     17  H   UNL     1      -3.412  -0.120   2.533  0.00  0.00    +0.211 HD
ENDBRANCH   4  16
BRANCH   5  18
ATOM     18  O   UNL     1      -3.432   0.378  -1.810  0.00  0.00    -0.379 OA
ATOM     19  H   UNL     1      -4.278  -0.096  -1.802  0.00  0.00    +0.211 HD
ENDBRANCH   5  18
BRANCH   6  20
ATOM     20  O   UNL     1      -1.893   2.720   0.488  0.00  0.00    -0.374 OA
ATOM     21  H   UNL     1      -2.639   3.325   0.352  0.00  0.00    +0.211 HD
ENDBRANCH   6  20
BRANCH   3  22
ATOM     22  C   UNL     1      -2.347  -2.225  -0.444  0.00  0.00    +0.159 C 
BRANCH  22  23
ATOM     23  O   UNL     1      -3.512  -2.923  -0.051  0.00  0.00    -0.380 OA
ATOM     24  H   UNL     1      -3.673  -3.655  -0.666  0.00  0.00    +0.211 HD
ENDBRANCH  22  23
ENDBRANCH   3  22
TORSDOF 6
