REMARK  Name = 158376
REMARK  11 active torsions:
REMARK  status: ('A' for Active; 'I' for Inactive)
REMARK    1  A    between atoms: C_1  and  N_22
REMARK    2  A    between atoms: C_2  and  C_9
REMARK    3  A    between atoms: N_8  and  CA_11
REMARK    4  A    between atoms: CA_11  and  C_13
REMARK    5  A    between atoms: CA_11  and  CB_16
REMARK    6  A    between atoms: C_13  and  O_14
REMARK    7  A    between atoms: CB_16  and  CG_17
REMARK    8  A    between atoms: CG_17  and  CD_19
REMARK    9  A    between atoms: CD_19  and  OE1_20
REMARK   10  A    between atoms: N_22  and  C_24
REMARK   11  A    between atoms: C_24  and  C_29
REMARK                            x       y       z     vdW  Elec       q    Type
REMARK                         _______ _______ _______ _____ _____    ______ ____
ROOT
ATOM      1  C   UNL     1      -0.854   2.426   0.373  0.00  0.00    +0.048 C 
ATOM      2  C   UNL     1       1.849   1.948  -0.128  0.00  0.00    +0.053 C 
ATOM      3  C   UNL     1       0.121   3.150   1.060  0.00  0.00    +0.015 C 
ATOM      4  C   UNL     1      -0.478   1.464  -0.564  0.00  0.00    +0.015 C 
ATOM      5  C   UNL     1       1.472   2.911   0.809  0.00  0.00    +0.006 C 
ATOM      6  C   UNL     1       0.874   1.225  -0.814  0.00  0.00    +0.006 C 
ENDROOT
BRANCH   2   9
ATOM      7  O   UNL     1       4.103   2.590  -0.191  0.00  0.00    -0.270 OA
ATOM      8  N   UNL     1       3.607   0.420  -0.844  0.00  0.00    -0.293 N 
ATOM      9  C   ACE A   0       3.288   1.694  -0.395  0.00  0.00    +0.246 C 
ATOM     10  H   UNL     1       2.881  -0.231  -0.978  0.00  0.00    +0.150 HD
BRANCH   8  11
ATOM     11  CA  UNL     1       4.961   0.013  -1.123  0.00  0.00    +0.172 C 
BRANCH  11  13
ATOM     12  OXT UNL     1       3.902  -1.379  -2.818  0.00  0.00    -0.248 OA
ATOM     13  C   UNL     1       4.921  -0.935  -2.304  0.00  0.00    +0.332 C 
BRANCH  13  14
ATOM     14  O   UNL     1       6.166  -1.219  -2.769  0.00  0.00    -0.479 OA
ATOM     15  H   UNL     1       6.918  -0.858  -2.344  0.00  0.00    +0.295 HD
ENDBRANCH  13  14
ENDBRANCH  11  13
BRANCH  11  16
ATOM     16  CB  UNL     1       5.673  -0.561   0.108  0.00  0.00    +0.043 C 
BRANCH  16  17
ATOM     17  CG  UNL     1       5.060  -1.836   0.700  0.00  0.00    +0.112 C 
BRANCH  17  19
ATOM     18  OE2 UNL     1       6.775  -1.839   2.431  0.00  0.00    -0.250 OA
ATOM     19  CD  UNL     1       5.791  -2.355   1.919  0.00  0.00    +0.314 C 
BRANCH  19  20
ATOM     20  OE1 UNL     1       5.244  -3.513   2.375  0.00  0.00    -0.480 OA
ATOM     21  HE1 UNL     1       4.489  -3.872   1.952  0.00  0.00    +0.295 HD
ENDBRANCH  19  20
ENDBRANCH  17  19
ENDBRANCH  16  17
ENDBRANCH  11  16
ENDBRANCH   8  11
ENDBRANCH   2   9
BRANCH   1  22
ATOM     22  N   UNL     1      -2.220   2.668   0.625  0.00  0.00    -0.302 N 
ATOM     23  C   UNL     1      -2.622   3.667   1.595  0.00  0.00    +0.112 C 
BRANCH  22  24
ATOM     24  C   UNL     1      -3.241   1.931  -0.094  0.00  0.00    +0.118 C 
BRANCH  24  29
ATOM     25  O   UNL     1      -3.538  -1.239   1.784  0.00  0.00    -0.427 OA
ATOM     26  N   UNL     1      -5.202  -2.572   0.709  0.00  0.00    -0.294 NA
ATOM     27  N   UNL     1      -6.198  -1.514  -1.246  0.00  0.00    -0.317 NA
ATOM     28  N   UNL     1      -6.861  -3.646  -0.543  0.00  0.00    -0.283 N 
ATOM     29  C   UNL     1      -3.574   0.579   0.457  0.00  0.00    +0.031 C 
ATOM     30  C   UNL     1      -4.522  -0.348  -0.039  0.00  0.00    +0.180 C 
ATOM     31  C   UNL     1      -4.467  -1.451   0.808  0.00  0.00    +0.281 C 
ATOM     32  C   UNL     1      -3.004  -0.010   1.562  0.00  0.00    +0.176 C 
ATOM     33  C   UNL     1      -5.430  -0.411  -1.094  0.00  0.00    +0.181 C 
ATOM     34  C   UNL     1      -6.039  -2.512  -0.347  0.00  0.00    +0.200 C 
ATOM     35  H   UNL     1      -6.798  -4.411   0.074  0.00  0.00    +0.156 HD
ATOM     36  H   UNL     1      -7.495  -3.670  -1.295  0.00  0.00    +0.156 HD
ATOM     37  N   UNL     1      -5.558   0.654  -2.004  0.00  0.00    -0.335 N 
ATOM     38  H   UNL     1      -6.204   0.594  -2.744  0.00  0.00    +0.144 HD
ATOM     39  H   UNL     1      -5.002   1.460  -1.901  0.00  0.00    +0.144 HD
ENDBRANCH  24  29
ENDBRANCH  22  24
ENDBRANCH   1  22
TORSDOF 11
