REMARK  Name = 104406
REMARK  3 active torsions:
REMARK  status: ('A' for Active; 'I' for Inactive)
REMARK    1  A    between atoms: C_8  and  C_10
REMARK    2  A    between atoms: C_10  and  O_11
REMARK    3  A    between atoms: O_11  and  C_12
REMARK                            x       y       z     vdW  Elec       q    Type
REMARK                         _______ _______ _______ _____ _____    ______ ____
ROOT
ATOM      1  O   UNL     1      -0.277  -2.170   0.928  0.00  0.00    -0.263 OA
ATOM      2  N   UNL     1       1.001  -0.550  -0.197  0.00  0.00    -0.271 N 
ATOM      3  C   UNL     1       3.165   1.353  -0.008  0.00  0.00    +0.004 C 
ATOM      4  C   UNL     1       3.042   0.184   0.969  0.00  0.00    +0.022 C 
ATOM      5  C   UNL     1       1.795   1.756  -0.552  0.00  0.00    +0.022 C 
ATOM      6  C   UNL     1       2.290  -0.985   0.340  0.00  0.00    +0.094 C 
ATOM      7  C   UNL     1       1.062   0.560  -1.155  0.00  0.00    +0.094 C 
ATOM      8  C   UNL     1      -0.159  -1.214   0.173  0.00  0.00    +0.325 C 
ENDROOT
BRANCH   8  10
ATOM      9  O   UNL     1      -1.846  -1.136  -1.471  0.00  0.00    -0.240 OA
ATOM     10  C   UNL     1      -1.419  -0.707  -0.416  0.00  0.00    +0.396 C 
BRANCH  10  11
ATOM     11  O   UNL     1      -1.920   0.232   0.407  0.00  0.00    -0.442 OA
BRANCH  11  12
ATOM     12  C   UNL     1      -3.150   0.824  -0.020  0.00  0.00    +0.209 C 
ATOM     13  C   UNL     1      -3.584   1.853   1.002  0.00  0.00    +0.051 C 
ENDBRANCH  11  12
ENDBRANCH  10  11
ENDBRANCH   8  10
TORSDOF 3
