REMARK  Name = 6029
REMARK  5 active torsions:
REMARK  status: ('A' for Active; 'I' for Inactive)
REMARK    1  A    between atoms: C2*_2  and  O2*_15
REMARK    2  A    between atoms: C3*_3  and  O3*_17
REMARK    3  A    between atoms: C1*_4  and  N1_8
REMARK    4  A    between atoms: C4*_5  and  C5*_19
REMARK    5  A    between atoms: C5*_19  and  O5*_20
REMARK                            x       y       z     vdW  Elec       q    Type
REMARK                         _______ _______ _______ _____ _____    ______ ____
ROOT
ATOM      1  O4* U   A   1      -1.365  -0.541   1.022  0.00  0.00    -0.333 OA
ATOM      2  C2* U   A   1      -1.367   0.971  -0.802  0.00  0.00    +0.187 C 
ATOM      3  C3* U   A   1      -2.797   0.576  -0.499  0.00  0.00    +0.171 C 
ATOM      4  C1* U   A   1      -0.654   0.585   0.482  0.00  0.00    +0.229 C 
ATOM      5  C4* U   A   1      -2.610  -0.701   0.308  0.00  0.00    +0.175 C 
ENDROOT
BRANCH   4   8
ATOM      6  O2  U   A   1       1.541   2.348   0.709  0.00  0.00    -0.252 OA
ATOM      7  O4  U   A   1       4.549  -0.963  -0.401  0.00  0.00    -0.270 OA
ATOM      8  N1  U   A   1       0.713   0.210   0.259  0.00  0.00    -0.217 N 
ATOM      9  N3  U   A   1       3.037   0.698   0.156  0.00  0.00    -0.236 N 
ATOM     10  C2  U   A   1       1.741   1.172   0.398  0.00  0.00    +0.315 C 
ATOM     11  C6  U   A   1       1.025  -1.098  -0.094  0.00  0.00    +0.076 C 
ATOM     12  C5  U   A   1       2.265  -1.535  -0.322  0.00  0.00    +0.074 C 
ATOM     13  C4  U   A   1       3.397  -0.594  -0.198  0.00  0.00    +0.254 C 
ATOM     14  H3  U   A   1       3.769   1.350   0.246  0.00  0.00    +0.159 HD
ENDBRANCH   4   8
BRANCH   2  15
ATOM     15  O2* U   A   1      -1.243   2.347  -1.101  0.00  0.00    -0.378 OA
ATOM     16  H2* U   A   1      -1.713   2.542  -1.926  0.00  0.00    +0.211 HD
ENDBRANCH   2  15
BRANCH   3  17
ATOM     17  O3* U   A   1      -3.409   1.547   0.350  0.00  0.00    -0.379 OA
ATOM     18  H3* U   A   1      -3.539   2.372  -0.144  0.00  0.00    +0.211 HD
ENDBRANCH   3  17
BRANCH   5  19
ATOM     19  C5* U   A   1      -2.503  -1.950  -0.557  0.00  0.00    +0.169 C 
BRANCH  19  20
ATOM     20  O5* U   A   1      -2.321  -3.073   0.288  0.00  0.00    -0.379 OA
ATOM     21  H5* U   A   1      -2.252  -3.876  -0.252  0.00  0.00    +0.211 HD
ENDBRANCH  19  20
ENDBRANCH   5  19
TORSDOF 5
