REMARK  Name = 3013848
REMARK  5 active torsions:
REMARK  status: ('A' for Active; 'I' for Inactive)
REMARK    1  A    between atoms: N_5  and  C_12
REMARK    2  A    between atoms: C_6  and  N_20
REMARK    3  A    between atoms: C_11  and  S_24
REMARK    4  A    between atoms: C_15  and  O_18
REMARK    5  A    between atoms: S_24  and  N_27
REMARK                            x       y       z     vdW  Elec       q    Type
REMARK                         _______ _______ _______ _____ _____    ______ ____
ROOT
ATOM      1  S   UNL     1      -0.155   0.969   0.556  0.00  0.00    +0.082 S 
ATOM      2  S   UNL     1       2.797   1.370   0.568  0.00  0.00    -0.048 S 
ATOM      3  O   UNL     1      -0.400   2.018  -0.414  0.00  0.00    -0.149 OA
ATOM      4  O   UNL     1      -0.183   1.213   1.983  0.00  0.00    -0.149 OA
ATOM      5  N   UNL     1      -1.101  -0.436   0.169  0.00  0.00    -0.192 N 
ATOM      6  C   UNL     1       0.756  -1.798  -0.851  0.00  0.00    -0.015 C 
ATOM      7  C   UNL     1      -0.649  -1.180  -1.063  0.00  0.00    +0.099 C 
ATOM      8  C   UNL     1       1.796  -0.790  -0.431  0.00  0.00    -0.013 C 
ATOM      9  C   UNL     1       1.469   0.397   0.189  0.00  0.00    +0.150 C 
ATOM     10  C   UNL     1       3.212  -0.889  -0.596  0.00  0.00    +0.022 C 
ATOM     11  C   UNL     1       3.876   0.212  -0.094  0.00  0.00    +0.152 C 
ENDROOT
BRANCH   5  12
ATOM     12  C   UNL     1      -2.525  -0.244   0.331  0.00  0.00    +0.072 C 
ATOM     13  C   UNL     1      -3.240   0.461  -0.633  0.00  0.00    +0.053 C 
ATOM     14  C   UNL     1      -3.170  -0.764   1.449  0.00  0.00    +0.016 C 
ATOM     15  C   UNL     1      -4.614   0.647  -0.477  0.00  0.00    +0.140 C 
ATOM     16  C   UNL     1      -4.544  -0.577   1.605  0.00  0.00    +0.004 C 
ATOM     17  C   UNL     1      -5.266   0.128   0.642  0.00  0.00    +0.037 C 
BRANCH  15  18
ATOM     18  O   UNL     1      -5.318   1.336  -1.416  0.00  0.00    -0.471 OA
ATOM     19  C   UNL     1      -6.719   1.491  -1.193  0.00  0.00    +0.252 C 
ENDBRANCH  15  18
ENDBRANCH   5  12
BRANCH   6  20
ATOM     20  N   UNL     1       0.709  -2.849   0.169  0.00  0.00    +0.387 N 
ATOM     21  C   UNL     1      -0.286  -3.852  -0.173  0.00  0.00    -0.105 C 
ATOM     22  H   UNL     1       0.469  -2.433   1.069  0.00  0.00    -0.084 HD
ATOM     23  H   UNL     1       1.624  -3.298   0.221  0.00  0.00    -0.084 HD
ENDBRANCH   6  20
BRANCH  11  24
ATOM     24  S   UNL     1       5.575   0.655  -0.005  0.00  0.00    +0.063 S 
ATOM     25  O   UNL     1       5.691   1.571   1.124  0.00  0.00    -0.153 OA
ATOM     26  O   UNL     1       6.297  -0.611  -0.010  0.00  0.00    -0.153 OA
BRANCH  24  27
ATOM     27  N   UNL     1       5.992   1.522  -1.428  0.00  0.00    -0.203 NA
ATOM     28  H   UNL     1       6.977   1.786  -1.389  0.00  0.00    +0.144 HD
ATOM     29  H   UNL     1       5.418   2.363  -1.495  0.00  0.00    +0.144 HD
ENDBRANCH  24  27
ENDBRANCH  11  24
TORSDOF 5
