REMARK  Name = 6323374
REMARK  6 active torsions:
REMARK  status: ('A' for Active; 'I' for Inactive)
REMARK    1  A    between atoms: C_1  and  C_4
REMARK    2  A    between atoms: C_1  and  C_9
REMARK    3  A    between atoms: C_1  and  C_12
REMARK    4  A    between atoms: N_3  and  O_6
REMARK    5  A    between atoms: C_9  and  O_10
REMARK    6  A    between atoms: C_12  and  C_13
REMARK                            x       y       z     vdW  Elec       q    Type
REMARK                         _______ _______ _______ _____ _____    ______ ____
ROOT
ATOM      1  C   UNL     1      -0.247  -0.465  -0.322  0.00  0.00    +0.177 C 
ENDROOT
BRANCH   1   4
ATOM      2  O   UNL     1      -1.175   0.941   1.422  0.00  0.00    -0.272 OA
ATOM      3  N   UNL     1      -1.133   1.740  -0.744  0.00  0.00    -0.197 N 
ATOM      4  C   UNL     1      -0.909   0.797   0.231  0.00  0.00    +0.255 C 
ATOM      5  H   UNL     1      -0.903   1.580  -1.687  0.00  0.00    +0.182 HD
BRANCH   3   6
ATOM      6  O   UNL     1      -1.709   2.942  -0.311  0.00  0.00    -0.295 OA
ATOM      7  H   UNL     1      -1.825   3.536  -1.069  0.00  0.00    +0.241 HD
ENDBRANCH   3   6
ENDBRANCH   1   4
BRANCH   1   9
ATOM      8  O   UNL     1      -2.244  -1.661   0.398  0.00  0.00    -0.250 OA
ATOM      9  C   UNL     1      -1.148  -1.678  -0.148  0.00  0.00    +0.322 C 
BRANCH   9  10
ATOM     10  O   UNL     1      -0.604  -2.806  -0.674  0.00  0.00    -0.480 OA
ATOM     11  H   UNL     1       0.239  -2.773  -1.083  0.00  0.00    +0.295 HD
ENDBRANCH   9  10
ENDBRANCH   1   9
BRANCH   1  12
ATOM     12  C   UNL     1       1.096  -0.741   0.381  0.00  0.00    +0.020 C 
BRANCH  12  13
ATOM     13  C   UNL     1       2.167   0.353   0.186  0.00  0.00    +0.001 C 
ATOM     14  C   UNL     1       2.423   0.562  -1.310  0.00  0.00    +0.000 C 
ATOM     15  C   UNL     1       3.482   0.015   0.890  0.00  0.00    +0.000 C 
ENDBRANCH  12  13
ENDBRANCH   1  12
TORSDOF 6
