REMARK  Name = 4849
REMARK  7 active torsions:
REMARK  status: ('A' for Active; 'I' for Inactive)
REMARK    1  A    between atoms: C_1  and  N_7
REMARK    2  A    between atoms: C_2  and  O_22
REMARK    3  A    between atoms: C_4  and  S_12
REMARK    4  A    between atoms: C_5  and  C_19
REMARK    5  A    between atoms: S_12  and  N_15
REMARK    6  A    between atoms: C_19  and  O_20
REMARK    7  A    between atoms: O_22  and  C_23
REMARK                            x       y       z     vdW  Elec       q    Type
REMARK                         _______ _______ _______ _____ _____    ______ ____
ROOT
ATOM      1  C   UNL     1      -0.631   1.153  -0.299  0.00  0.00    +0.084 C 
ATOM      2  C   UNL     1      -0.186  -0.166  -0.605  0.00  0.00    +0.177 C 
ATOM      3  C   UNL     1      -1.979   1.269   0.145  0.00  0.00    +0.024 C 
ATOM      4  C   UNL     1      -1.020  -1.276  -0.477  0.00  0.00    +0.157 C 
ATOM      5  C   UNL     1      -2.814   0.159   0.274  0.00  0.00    +0.078 C 
ATOM      6  C   UNL     1      -2.334  -1.114  -0.037  0.00  0.00    +0.030 C 
ENDROOT
BRANCH   1   7
ATOM      7  N   UNL     1       0.181   2.260  -0.421  0.00  0.00    -0.305 N 
ATOM      8  C   UNL     1       0.063   3.459   0.405  0.00  0.00    +0.091 C 
ATOM      9  C   UNL     1       1.268   2.377  -1.390  0.00  0.00    +0.091 C 
ATOM     10  C   UNL     1       1.343   4.237   0.103  0.00  0.00    +0.023 C 
ATOM     11  C   UNL     1       1.647   3.856  -1.335  0.00  0.00    +0.023 C 
ENDBRANCH   1   7
BRANCH   4  12
ATOM     12  S   UNL     1      -0.445  -2.883  -0.860  0.00  0.00    +0.060 S 
ATOM     13  O   UNL     1      -1.594  -3.711  -1.196  0.00  0.00    -0.153 OA
ATOM     14  O   UNL     1       0.662  -2.764  -1.797  0.00  0.00    -0.153 OA
BRANCH  12  15
ATOM     15  N   UNL     1       0.167  -3.376   0.656  0.00  0.00    -0.203 NA
ATOM     16  H   UNL     1       0.545  -4.321   0.580  0.00  0.00    +0.144 HD
ATOM     17  H   UNL     1      -0.584  -3.365   1.346  0.00  0.00    +0.144 HD
ENDBRANCH  12  15
ENDBRANCH   4  12
BRANCH   5  19
ATOM     18  O   UNL     1      -5.006  -0.582   0.881  0.00  0.00    -0.245 OA
ATOM     19  C   UNL     1      -4.184   0.328   0.732  0.00  0.00    +0.338 C 
BRANCH  19  20
ATOM     20  O   UNL     1      -4.489   1.628   0.992  0.00  0.00    -0.477 OA
ATOM     21  H   UNL     1      -3.842   2.295   0.869  0.00  0.00    +0.295 HD
ENDBRANCH  19  20
ENDBRANCH   5  19
BRANCH   2  22
ATOM     22  O   UNL     1       1.100  -0.322  -1.035  0.00  0.00    -0.451 OA
BRANCH  22  23
ATOM     23  C   UNL     1       2.073  -0.539  -0.076  0.00  0.00    +0.145 C 
ATOM     24  C   UNL     1       1.708  -0.589   1.258  0.00  0.00    +0.037 C 
ATOM     25  C   UNL     1       3.389  -0.702  -0.475  0.00  0.00    +0.037 C 
ATOM     26  C   UNL     1       2.690  -0.807   2.224  0.00  0.00    +0.003 C 
ATOM     27  C   UNL     1       4.370  -0.921   0.492  0.00  0.00    +0.003 C 
ATOM     28  C   UNL     1       4.021  -0.973   1.841  0.00  0.00    +0.000 C 
ENDBRANCH  22  23
ENDBRANCH   2  22
TORSDOF 7
