REMARK  Name = 446250
REMARK  9 active torsions:
REMARK  status: ('A' for Active; 'I' for Inactive)
REMARK    1  A    between atoms: C_1  and  CA_2
REMARK    2  A    between atoms: C_1  and  C_11
REMARK    3  A    between atoms: CA_2  and  N_3
REMARK    4  A    between atoms: CA_2  and  C_8
REMARK    5  A    between atoms: C_8  and  O_9
REMARK    6  A    between atoms: C_11  and  O_12
REMARK    7  A    between atoms: O_12  and  C_13
REMARK    8  A    between atoms: C_13  and  C_14
REMARK    9  A    between atoms: C_14  and  N_15
REMARK                            x       y       z     vdW  Elec       q    Type
REMARK                         _______ _______ _______ _____ _____    ______ ____
ROOT
ATOM      1  C   UNL     1       0.825   0.351   1.035  0.00  0.00    +0.021 C 
ENDROOT
BRANCH   1   2
ATOM      2  CA  UNL     1       1.461  -0.225  -0.239  0.00  0.00    +0.038 C 
BRANCH   2   3
ATOM      3  N   UNL     1       1.445  -1.688  -0.254  0.00  0.00    +0.389 N 
ATOM      4  H1  UNL     1       0.482  -2.018  -0.191  0.00  0.00    -0.088 HD
ATOM      5  H2  UNL     1       1.979  -2.042   0.539  0.00  0.00    -0.088 HD
ATOM      6  H3  UNL     1       1.863  -2.023  -1.122  0.00  0.00    -0.088 HD
ENDBRANCH   2   3
BRANCH   2   8
ATOM      7  OXT UNL     1       3.882  -0.538  -0.339  0.00  0.00    -0.253 OA
ATOM      8  C   UNL     1       2.914   0.210  -0.335  0.00  0.00    +0.293 C 
BRANCH   8   9
ATOM      9  O   UNL     1       3.032   1.562  -0.432  0.00  0.00    -0.482 OA
ATOM     10  H   UNL     1       2.266   2.101  -0.425  0.00  0.00    +0.295 HD
ENDBRANCH   8   9
ENDBRANCH   2   8
ENDBRANCH   1   2
BRANCH   1  11
ATOM     11  C   UNL     1      -0.618  -0.081   1.287  0.00  0.00    +0.140 C 
BRANCH  11  12
ATOM     12  O   UNL     1      -1.459   0.289   0.204  0.00  0.00    -0.356 OA
BRANCH  12  13
ATOM     13  C   UNL     1      -2.805  -0.110   0.427  0.00  0.00    +0.118 C 
BRANCH  13  14
ATOM     14  C   UNL     1      -3.645   0.317  -0.766  0.00  0.00    -0.054 C 
BRANCH  14  15
ATOM     15  N   UNL     1      -5.032  -0.087  -0.589  0.00  0.00    +0.382 N 
ATOM     16  H   UNL     1      -5.578   0.208  -1.398  0.00  0.00    -0.089 HD
ATOM     17  H   UNL     1      -5.408   0.350   0.252  0.00  0.00    -0.089 HD
ATOM     18  H   UNL     1      -5.082  -1.101  -0.496  0.00  0.00    -0.089 HD
ENDBRANCH  14  15
ENDBRANCH  13  14
ENDBRANCH  12  13
ENDBRANCH  11  12
ENDBRANCH   1  11
TORSDOF 9
