REMARK  Name = 6919011
REMARK  4 active torsions:
REMARK  status: ('A' for Active; 'I' for Inactive)
REMARK    1  A    between atoms: CA_1  and  N_2
REMARK    2  A    between atoms: CA_1  and  C_8
REMARK    3  A    between atoms: CA_1  and  CB_9
REMARK    4  A    between atoms: CB_9  and  CG_10
REMARK                            x       y       z     vdW  Elec       q    Type
REMARK                         _______ _______ _______ _____ _____    ______ ____
ROOT
ATOM      1  CA  PHE A   1      -1.756   0.726   0.256  0.00  0.00    +0.045 C 
ENDROOT
BRANCH   1   2
ATOM      2  N   PHE A   1      -3.005   1.455  -0.132  0.00  0.00    +0.389 N 
ATOM      3  H1  PHE A   1      -2.816   2.457  -0.168  0.00  0.00    -0.088 HD
ATOM      4  H2  PHE A   1      -3.734   1.271   0.557  0.00  0.00    -0.088 HD
ATOM      5  H3  PHE A   1      -3.315   1.134  -1.049  0.00  0.00    -0.088 HD
ENDBRANCH   1   2
BRANCH   1   8
ATOM      6  O   PHE A   1      -2.271  -1.336  -0.776  0.00  0.00    -0.248 OA
ATOM      7  OXT PHE A   1      -1.840  -1.313   1.469  0.00  0.00    -0.248 OA
ATOM      8  C   PHE A   1      -1.980  -0.792   0.327  0.00  0.00    +0.345 C 
ENDBRANCH   1   8
BRANCH   1   9
ATOM      9  CB  PHE A   1      -0.671   1.099  -0.760  0.00  0.00    +0.016 C 
BRANCH   9  10
ATOM     10  CG  PHE A   1       0.684   0.538  -0.396  0.00  0.00    -0.024 C 
ATOM     11  CD1 PHE A   1       1.538   1.288   0.397  0.00  0.00    -0.004 C 
ATOM     12  CD2 PHE A   1       1.047  -0.715  -0.862  0.00  0.00    -0.004 C 
ATOM     13  CE1 PHE A   1       2.789   0.771   0.733  0.00  0.00    -0.000 C 
ATOM     14  CE2 PHE A   1       2.298  -1.232  -0.526  0.00  0.00    -0.000 C 
ATOM     15  CZ  PHE A   1       3.169  -0.489   0.271  0.00  0.00    -0.000 C 
ENDBRANCH   9  10
ENDBRANCH   1   9
TORSDOF 4
