REMARK  Name = 446308
REMARK  13 active torsions:
REMARK  status: ('A' for Active; 'I' for Inactive)
REMARK    1  A    between atoms: C_1  and  C_7
REMARK    2  A    between atoms: C_6  and  O_15
REMARK    3  A    between atoms: C_7  and  C_10
REMARK    4  A    between atoms: C_10  and  C_11
REMARK    5  A    between atoms: O_15  and  C_16
REMARK    6  A    between atoms: C_16  and  C_17
REMARK    7  A    between atoms: C_17  and  O_18
REMARK    8  A    between atoms: O_18  and  C_19
REMARK    9  A    between atoms: C_19  and  C_20
REMARK   10  A    between atoms: C_20  and  O_21
REMARK   11  A    between atoms: O_21  and  C_22
REMARK   12  A    between atoms: C_22  and  C_23
REMARK   13  A    between atoms: C_23  and  O_24
REMARK                            x       y       z     vdW  Elec       q    Type
REMARK                         _______ _______ _______ _____ _____    ______ ____
ROOT
ATOM      1  C   UNL     1       2.571  -0.754  -0.685  0.00  0.00    -0.023 C 
ATOM      2  C   UNL     1       2.307  -1.957  -0.030  0.00  0.00    -0.001 C 
ATOM      3  C   UNL     1       1.549  -0.090  -1.363  0.00  0.00    -0.001 C 
ATOM      4  C   UNL     1       1.021  -2.496  -0.054  0.00  0.00    +0.037 C 
ATOM      5  C   UNL     1       0.263  -0.629  -1.387  0.00  0.00    +0.037 C 
ATOM      6  C   UNL     1      -0.001  -1.832  -0.732  0.00  0.00    +0.139 C 
ENDROOT
BRANCH   1   7
ATOM      7  C   UNL     1       3.994  -0.159  -0.659  0.00  0.00    +0.019 C 
ATOM      8  C   UNL     1       4.460  -0.062  -2.141  0.00  0.00    +0.004 C 
ATOM      9  C   UNL     1       5.032  -1.058   0.044  0.00  0.00    +0.004 C 
BRANCH   7  10
ATOM     10  C   UNL     1       4.039   1.298  -0.071  0.00  0.00    +0.004 C 
BRANCH  10  11
ATOM     11  C   UNL     1       3.497   1.646   1.355  0.00  0.00    +0.000 C 
ATOM     12  C   UNL     1       3.627   3.179   1.530  0.00  0.00    +0.000 C 
ATOM     13  C   UNL     1       4.348   1.000   2.466  0.00  0.00    +0.000 C 
ATOM     14  C   UNL     1       2.025   1.276   1.569  0.00  0.00    +0.000 C 
ENDBRANCH  10  11
ENDBRANCH   7  10
ENDBRANCH   1   7
BRANCH   6  15
ATOM     15  O   UNL     1      -1.256  -2.359  -0.755  0.00  0.00    -0.473 OA
BRANCH  15  16
ATOM     16  C   UNL     1      -1.653  -3.140   0.371  0.00  0.00    +0.237 C 
BRANCH  16  17
ATOM     17  C   UNL     1      -3.150  -2.994   0.571  0.00  0.00    +0.189 C 
BRANCH  17  18
ATOM     18  O   UNL     1      -3.454  -1.627   0.820  0.00  0.00    -0.347 OA
BRANCH  18  19
ATOM     19  C   UNL     1      -4.847  -1.431   1.016  0.00  0.00    +0.174 C 
BRANCH  19  20
ATOM     20  C   UNL     1      -5.105   0.036   1.300  0.00  0.00    +0.174 C 
BRANCH  20  21
ATOM     21  O   UNL     1      -4.640   0.811   0.201  0.00  0.00    -0.348 OA
BRANCH  21  22
ATOM     22  C   UNL     1      -4.877   2.197   0.404  0.00  0.00    +0.174 C 
BRANCH  22  23
ATOM     23  C   UNL     1      -4.361   2.967  -0.796  0.00  0.00    +0.174 C 
BRANCH  23  24
ATOM     24  O   UNL     1      -2.962   2.747  -0.923  0.00  0.00    -0.348 OA
ATOM     25  C   UNL     1      -2.427   3.430  -2.049  0.00  0.00    +0.174 C 
ENDBRANCH  23  24
ENDBRANCH  22  23
ENDBRANCH  21  22
ENDBRANCH  20  21
ENDBRANCH  19  20
ENDBRANCH  18  19
ENDBRANCH  17  18
ENDBRANCH  16  17
ENDBRANCH  15  16
ENDBRANCH   6  15
TORSDOF 13
