REMARK  Name = 155448
REMARK  14 active torsions:
REMARK  status: ('A' for Active; 'I' for Inactive)
REMARK    1  A    between atoms: C_2  and  O_7
REMARK    2  A    between atoms: C_3  and  O_9
REMARK    3  A    between atoms: C_4  and  O_11
REMARK    4  A    between atoms: C_5  and  C_23
REMARK    5  A    between atoms: C_6  and  O_13
REMARK    6  A    between atoms: O_13  and  C_14
REMARK    7  A    between atoms: C_14  and  C_15
REMARK    8  A    between atoms: C_15  and  C_16
REMARK    9  A    between atoms: C_16  and  C_17
REMARK   10  A    between atoms: C_17  and  C_18
REMARK   11  A    between atoms: C_18  and  C_19
REMARK   12  A    between atoms: C_19  and  C_20
REMARK   13  A    between atoms: C_20  and  C_21
REMARK   14  A    between atoms: C_23  and  O_24
REMARK                            x       y       z     vdW  Elec       q    Type
REMARK                         _______ _______ _______ _____ _____    ______ ____
ROOT
ATOM      1  O   UNL     1       2.727   0.801  -0.334  0.00  0.00    -0.326 OA
ATOM      2  C   UNL     1       4.785  -1.109   0.269  0.00  0.00    +0.172 C 
ATOM      3  C   UNL     1       5.097   0.320  -0.174  0.00  0.00    +0.169 C 
ATOM      4  C   UNL     1       3.383  -1.531  -0.171  0.00  0.00    +0.196 C 
ATOM      5  C   UNL     1       3.961   1.270   0.214  0.00  0.00    +0.176 C 
ATOM      6  C   UNL     1       2.344  -0.469   0.188  0.00  0.00    +0.266 C 
ENDROOT
BRANCH   2   7
ATOM      7  O   UNL     1       5.751  -1.977  -0.326  0.00  0.00    -0.379 OA
ATOM      8  H   UNL     1       6.641  -1.709  -0.046  0.00  0.00    +0.211 HD
ENDBRANCH   2   7
BRANCH   3   9
ATOM      9  O   UNL     1       6.305   0.753   0.448  0.00  0.00    -0.379 OA
ATOM     10  H   UNL     1       7.027   0.153   0.204  0.00  0.00    +0.211 HD
ENDBRANCH   3   9
BRANCH   4  11
ATOM     11  O   UNL     1       3.026  -2.747   0.486  0.00  0.00    -0.378 OA
ATOM     12  H   UNL     1       3.675  -3.434   0.270  0.00  0.00    +0.211 HD
ENDBRANCH   4  11
BRANCH   6  13
ATOM     13  O   UNL     1       1.096  -0.866  -0.378  0.00  0.00    -0.329 OA
BRANCH  13  14
ATOM     14  C   UNL     1       0.004  -0.219   0.260  0.00  0.00    +0.145 C 
BRANCH  14  15
ATOM     15  C   UNL     1      -1.308  -0.673  -0.369  0.00  0.00    +0.032 C 
BRANCH  15  16
ATOM     16  C   UNL     1      -2.522   0.011   0.268  0.00  0.00    +0.003 C 
BRANCH  16  17
ATOM     17  C   UNL     1      -3.825  -0.441  -0.397  0.00  0.00    +0.000 C 
BRANCH  17  18
ATOM     18  C   UNL     1      -5.039   0.220   0.259  0.00  0.00    +0.000 C 
BRANCH  18  19
ATOM     19  C   UNL     1      -6.375  -0.221  -0.347  0.00  0.00    +0.000 C 
BRANCH  19  20
ATOM     20  C   UNL     1      -7.630   0.391   0.284  0.00  0.00    +0.000 C 
BRANCH  20  21
ATOM     21  C   UNL     1      -8.932  -0.128  -0.324  0.00  0.00    +0.000 C 
ATOM     22  C   UNL     1     -10.146   0.440   0.397  0.00  0.00    +0.000 C 
ENDBRANCH  20  21
ENDBRANCH  19  20
ENDBRANCH  18  19
ENDBRANCH  17  18
ENDBRANCH  16  17
ENDBRANCH  15  16
ENDBRANCH  14  15
ENDBRANCH  13  14
ENDBRANCH   6  13
BRANCH   5  23
ATOM     23  C   UNL     1       4.195   2.679  -0.320  0.00  0.00    +0.169 C 
BRANCH  23  24
ATOM     24  O   UNL     1       3.104   3.495   0.066  0.00  0.00    -0.379 OA
ATOM     25  H   UNL     1       3.240   4.396  -0.267  0.00  0.00    +0.211 HD
ENDBRANCH  23  24
ENDBRANCH   5  23
TORSDOF 14
