REMARK  Name = 447561
REMARK  8 active torsions:
REMARK  status: ('A' for Active; 'I' for Inactive)
REMARK    1  A    between atoms: C_2  and  O_11
REMARK    2  A    between atoms: C_3  and  O_7
REMARK    3  A    between atoms: C_4  and  O_16
REMARK    4  A    between atoms: C_5  and  C_21
REMARK    5  A    between atoms: C_6  and  O_9
REMARK    6  A    between atoms: O_11  and  S_12
REMARK    7  A    between atoms: O_16  and  S_17
REMARK    8  A    between atoms: C_21  and  O_22
REMARK                            x       y       z     vdW  Elec       q    Type
REMARK                         _______ _______ _______ _____ _____    ______ ____
ROOT
ATOM      1  O   UNL     1      -0.850   2.066   1.080  0.00  0.00    -0.326 OA
ATOM      2  C   UNL     1      -0.201  -0.149  -0.661  0.00  0.00    +0.211 C 
ATOM      3  C   UNL     1      -0.785   1.161  -1.206  0.00  0.00    +0.172 C 
ATOM      4  C   UNL     1       0.447   0.043   0.712  0.00  0.00    +0.235 C 
ATOM      5  C   UNL     1      -1.569   1.968  -0.156  0.00  0.00    +0.176 C 
ATOM      6  C   UNL     1      -0.475   0.817   1.658  0.00  0.00    +0.265 C 
ENDROOT
BRANCH   3   7
ATOM      7  O   UNL     1       0.307   1.963  -1.666  0.00  0.00    -0.379 OA
ATOM      8  H   UNL     1       0.813   1.469  -2.330  0.00  0.00    +0.211 HD
ENDBRANCH   3   7
BRANCH   6   9
ATOM      9  O   UNL     1       0.214   1.025   2.889  0.00  0.00    -0.358 OA
ATOM     10  H   UNL     1      -0.358   1.515   3.501  0.00  0.00    +0.213 HD
ENDBRANCH   6   9
BRANCH   2  11
ATOM     11  O   UNL     1      -1.228  -1.129  -0.542  0.00  0.00    -0.198 OA
BRANCH  11  12
ATOM     12  S   UNL     1      -0.859  -2.615   0.018  0.00  0.00    +0.239 S 
ATOM     13  O   UNL     1      -2.246  -3.452  -0.171  0.00  0.00    -0.116 OA
ATOM     14  O   UNL     1       0.122  -3.185  -0.886  0.00  0.00    -0.116 OA
ATOM     15  O   UNL     1      -0.579  -2.531   1.440  0.00  0.00    -0.022 OA
ENDBRANCH  11  12
ENDBRANCH   2  11
BRANCH   4  16
ATOM     16  O   UNL     1       1.680   0.748   0.563  0.00  0.00    -0.195 OA
BRANCH  16  17
ATOM     17  S   UNL     1       2.872   0.110  -0.355  0.00  0.00    +0.239 S 
ATOM     18  O   UNL     1       4.126   1.125  -0.114  0.00  0.00    -0.116 OA
ATOM     19  O   UNL     1       3.229  -1.172   0.225  0.00  0.00    -0.022 OA
ATOM     20  O   UNL     1       2.489   0.197  -1.752  0.00  0.00    -0.116 OA
ENDBRANCH  16  17
ENDBRANCH   4  16
BRANCH   5  21
ATOM     21  C   UNL     1      -2.992   1.461   0.072  0.00  0.00    +0.169 C 
BRANCH  21  22
ATOM     22  O   UNL     1      -3.702   1.550  -1.149  0.00  0.00    -0.379 OA
ATOM     23  H   UNL     1      -4.609   1.231  -1.020  0.00  0.00    +0.211 HD
ENDBRANCH  21  22
ENDBRANCH   5  21
TORSDOF 8
