REMARK  Name = 7419
REMARK  3 active torsions:
REMARK  status: ('A' for Active; 'I' for Inactive)
REMARK    1  A    between atoms: C_1  and  C_11
REMARK    2  A    between atoms: C_2  and  N_7
REMARK    3  A    between atoms: C_11  and  O_12
REMARK                            x       y       z     vdW  Elec       q    Type
REMARK                         _______ _______ _______ _____ _____    ______ ____
ROOT
ATOM      1  C   UNL     1       0.595  -0.057   0.000  0.00  0.00    +0.077 C 
ATOM      2  C   UNL     1      -1.748   0.534   0.000  0.00  0.00    +0.042 C 
ATOM      3  C   UNL     1      -0.406   0.915   0.000  0.00  0.00    +0.021 C 
ATOM      4  C   UNL     1       0.254  -1.410   0.000  0.00  0.00    +0.007 C 
ATOM      5  C   UNL     1      -2.089  -0.818   0.000  0.00  0.00    +0.014 C 
ATOM      6  C   UNL     1      -1.088  -1.790   0.000  0.00  0.00    +0.001 C 
ENDROOT
BRANCH   2   7
ATOM      7  N   UNL     1      -2.760   1.517   0.000  0.00  0.00    -0.357 N 
ATOM      8  H   UNL     1      -2.519   2.471   0.000  0.00  0.00    +0.142 HD
ATOM      9  H   UNL     1      -3.707   1.248   0.000  0.00  0.00    +0.142 HD
ENDBRANCH   2   7
BRANCH   1  11
ATOM     10  O   UNL     1       2.409   1.502   0.000  0.00  0.00    -0.245 OA
ATOM     11  C   UNL     1       1.994   0.339   0.000  0.00  0.00    +0.338 C 
BRANCH  11  12
ATOM     12  O   UNL     1       2.838  -0.730   0.001  0.00  0.00    -0.477 OA
ATOM     13  H   UNL     1       2.491  -1.601   0.001  0.00  0.00    +0.295 HD
ENDBRANCH  11  12
ENDBRANCH   1  11
TORSDOF 3
