REMARK  Name = 8019
REMARK  3 active torsions:
REMARK  status: ('A' for Active; 'I' for Inactive)
REMARK    1  A    between atoms: C_1  and  O_2
REMARK    2  A    between atoms: C_1  and  C_4
REMARK    3  A    between atoms: C_4  and  O_5
REMARK                            x       y       z     vdW  Elec       q    Type
REMARK                         _______ _______ _______ _____ _____    ______ ____
ROOT
ATOM      1  C   UNL     1      -0.027  -0.362   0.001  0.00  0.00    +0.174 C 
ENDROOT
BRANCH   1   2
ATOM      2  O   UNL     1      -1.179   0.472   0.009  0.00  0.00    -0.348 OA
ATOM      3  C   UNL     1      -2.376  -0.294  -0.005  0.00  0.00    +0.174 C 
ENDBRANCH   1   2
BRANCH   1   4
ATOM      4  C   UNL     1       1.215   0.509  -0.008  0.00  0.00    +0.169 C 
BRANCH   4   5
ATOM      5  O   UNL     1       2.367  -0.325   0.004  0.00  0.00    -0.379 OA
ATOM      6  H   UNL     1       3.165   0.226  -0.002  0.00  0.00    +0.211 HD
ENDBRANCH   4   5
ENDBRANCH   1   4
TORSDOF 3
