REMARK  Name = 54688261
REMARK  5 active torsions:
REMARK  status: ('A' for Active; 'I' for Inactive)
REMARK    1  A    between atoms: C_3  and  C_14
REMARK    2  A    between atoms: C_4  and  O_12
REMARK    3  A    between atoms: C_14  and  C_15
REMARK    4  A    between atoms: C_14  and  C_21
REMARK    5  A    between atoms: C_21  and  C_23
REMARK                            x       y       z     vdW  Elec       q    Type
REMARK                         _______ _______ _______ _____ _____    ______ ____
ROOT
ATOM      1  O   UNL     1       2.099  -0.533  -1.647  0.00  0.00    -0.421 OA
ATOM      2  O   UNL     1       0.159  -1.432  -2.425  0.00  0.00    -0.245 OA
ATOM      3  C   UNL     1       0.044  -0.357  -0.303  0.00  0.00    +0.092 A 
ATOM      4  C   UNL     1       0.718   0.317   0.648  0.00  0.00    +0.139 A 
ATOM      5  C   UNL     1       2.146   0.604   0.499  0.00  0.00    +0.068 A 
ATOM      6  C   UNL     1       0.745  -0.820  -1.536  0.00  0.00    +0.345 A 
ATOM      7  C   UNL     1       2.797   0.167  -0.650  0.00  0.00    +0.152 A 
ATOM      8  C   UNL     1       2.900   1.298   1.455  0.00  0.00    +0.006 C 
ATOM      9  C   UNL     1       4.155   0.399  -0.870  0.00  0.00    +0.038 C 
ATOM     10  C   UNL     1       4.263   1.538   1.251  0.00  0.00    +0.000 C 
ATOM     11  C   UNL     1       4.890   1.089   0.089  0.00  0.00    +0.003 C 
ENDROOT
BRANCH   4  12
ATOM     12  O   UNL     1       0.158   0.791   1.816  0.00  0.00    -0.506 OA
ATOM     13  H   UNL     1      -0.752   0.651   1.990  0.00  0.00    +0.292 HD
ENDBRANCH   4  12
BRANCH   3  14
ATOM     14  C   UNL     1      -1.416  -0.718  -0.254  0.00  0.00    +0.061 C 
BRANCH  14  15
ATOM     15  C   UNL     1      -2.289   0.527  -0.210  0.00  0.00    -0.018 C 
ATOM     16  C   UNL     1      -2.657   1.163  -1.395  0.00  0.00    -0.004 C 
ATOM     17  C   UNL     1      -2.721   1.032   1.016  0.00  0.00    -0.004 C 
ATOM     18  C   UNL     1      -3.458   2.305  -1.355  0.00  0.00    -0.000 C 
ATOM     19  C   UNL     1      -3.522   2.174   1.057  0.00  0.00    -0.000 C 
ATOM     20  C   UNL     1      -3.890   2.810  -0.129  0.00  0.00    -0.000 C 
ENDBRANCH  14  15
BRANCH  14  21
ATOM     21  C   UNL     1      -1.687  -1.680   0.919  0.00  0.00    +0.074 C 
BRANCH  21  23
ATOM     22  O   UNL     1      -0.754  -3.473  -0.416  0.00  0.00    -0.296 OA
ATOM     23  C   UNL     1      -1.233  -3.110   0.657  0.00  0.00    +0.152 C 
ATOM     24  C   UNL     1      -1.446  -4.090   1.781  0.00  0.00    +0.072 C 
ENDBRANCH  21  23
ENDBRANCH  14  21
ENDBRANCH   3  14
TORSDOF 5
