REMARK  Name = 446056
REMARK  6 active torsions:
REMARK  status: ('A' for Active; 'I' for Inactive)
REMARK    1  A    between atoms: CA_1  and  N_3
REMARK    2  A    between atoms: CA_1  and  C_11
REMARK    3  A    between atoms: CA_1  and  CB_14
REMARK    4  A    between atoms: N_4  and  O_8
REMARK    5  A    between atoms: C_11  and  O_12
REMARK    6  A    between atoms: CB_14  and  CG_15
REMARK                            x       y       z     vdW  Elec       q    Type
REMARK                         _______ _______ _______ _____ _____    ______ ____
ROOT
ATOM      1  CA  UNL     1      -0.657   0.952   0.010  0.00  0.00    +0.177 C 
ENDROOT
BRANCH   1   3
ATOM      2  O   UNL     1      -2.265  -0.922   1.462  0.00  0.00    -0.251 OA
ATOM      3  N   UNL     1      -1.277  -0.237  -0.520  0.00  0.00    -0.279 N 
ATOM      4  N   UNL     1      -2.537  -2.151  -0.473  0.00  0.00    -0.181 N 
ATOM      5  C   ACE A   0      -2.045  -1.094   0.264  0.00  0.00    +0.323 C 
ATOM      6  H   UNL     1      -1.152  -0.452  -1.472  0.00  0.00    +0.151 HD
ATOM      7  H   UNL     1      -2.340  -2.257  -1.432  0.00  0.00    +0.184 HD
BRANCH   4   8
ATOM      8  O   UNL     1      -3.336  -3.064   0.228  0.00  0.00    -0.294 OA
ATOM      9  H   UNL     1      -3.631  -3.765  -0.374  0.00  0.00    +0.241 HD
ENDBRANCH   4   8
ENDBRANCH   1   3
BRANCH   1  11
ATOM     10  OXT UNL     1      -1.345   3.227   0.457  0.00  0.00    -0.248 OA
ATOM     11  C   UNL     1      -1.620   2.130  -0.017  0.00  0.00    +0.332 C 
BRANCH  11  12
ATOM     12  O   UNL     1      -2.809   1.879  -0.614  0.00  0.00    -0.479 OA
ATOM     13  H   UNL     1      -2.987   1.030  -0.966  0.00  0.00    +0.295 HD
ENDBRANCH  11  12
ENDBRANCH   1  11
BRANCH   1  14
ATOM     14  CB  UNL     1       0.621   1.301  -0.763  0.00  0.00    +0.057 C 
BRANCH  14  15
ATOM     15  CG  UNL     1       1.800   0.445  -0.367  0.00  0.00    -0.020 C 
ATOM     16  CD1 UNL     1       2.627   0.863   0.663  0.00  0.00    -0.004 C 
ATOM     17  CD2 UNL     1       2.035  -0.742  -1.042  0.00  0.00    -0.004 C 
ATOM     18  CE1 UNL     1       3.717   0.073   1.029  0.00  0.00    -0.000 C 
ATOM     19  CE2 UNL     1       3.124  -1.533  -0.677  0.00  0.00    -0.000 C 
ATOM     20  CZ  UNL     1       3.966  -1.125   0.359  0.00  0.00    -0.000 C 
ENDBRANCH  14  15
ENDBRANCH   1  14
TORSDOF 6
