REMARK  Name = 5289140
REMARK  9 active torsions:
REMARK  status: ('A' for Active; 'I' for Inactive)
REMARK    1  A    between atoms: C_1  and  C_4
REMARK    2  A    between atoms: C_1  and  O_10
REMARK    3  A    between atoms: C_1  and  C_12
REMARK    4  A    between atoms: C_1  and  C_18
REMARK    5  A    between atoms: C_12  and  C_13
REMARK    6  A    between atoms: C_13  and  C_14
REMARK    7  A    between atoms: C_14  and  C_15
REMARK    8  A    between atoms: C_15  and  C_16
REMARK    9  A    between atoms: C_18  and  N_19
REMARK                            x       y       z     vdW  Elec       q    Type
REMARK                         _______ _______ _______ _____ _____    ______ ____
ROOT
ATOM      1  C   UNL     1       0.245   1.074   0.112  0.00  0.00    +0.126 C 
ENDROOT
BRANCH   1   4
ATOM      2 CL   UNL     1       0.072  -0.427  -2.574  0.00  0.00    -0.082 Cl
ATOM      3 CL   UNL     1       1.030  -4.877   0.299  0.00  0.00    -0.082 Cl
ATOM      4  C   UNL     1       0.441  -0.443   0.127  0.00  0.00    +0.014 C 
ATOM      5  C   UNL     1       0.375  -1.165  -1.044  0.00  0.00    +0.057 C 
ATOM      6  C   UNL     1       0.681  -1.033   1.349  0.00  0.00    -0.000 C 
ATOM      7  C   UNL     1       0.558  -2.547  -0.991  0.00  0.00    +0.023 C 
ATOM      8  C   UNL     1       0.865  -2.415   1.402  0.00  0.00    +0.011 C 
ATOM      9  C   UNL     1       0.803  -3.172   0.232  0.00  0.00    +0.058 C 
ENDBRANCH   1   4
BRANCH   1  10
ATOM     10  O   UNL     1       0.322   1.604   1.443  0.00  0.00    -0.381 OA
ATOM     11  H   UNL     1       0.197   2.565   1.416  0.00  0.00    +0.211 HD
ENDBRANCH   1  10
BRANCH   1  12
ATOM     12  C   UNL     1      -1.153   1.476  -0.442  0.00  0.00    +0.033 C 
BRANCH  12  13
ATOM     13  C   UNL     1      -2.332   0.834   0.307  0.00  0.00    +0.003 C 
BRANCH  13  14
ATOM     14  C   UNL     1      -3.695   1.149  -0.321  0.00  0.00    +0.000 C 
BRANCH  14  15
ATOM     15  C   UNL     1      -4.869   0.485   0.403  0.00  0.00    +0.000 C 
BRANCH  15  16
ATOM     16  C   UNL     1      -6.227   0.801  -0.229  0.00  0.00    +0.000 C 
ATOM     17  C   UNL     1      -7.392   0.089   0.440  0.00  0.00    +0.000 C 
ENDBRANCH  15  16
ENDBRANCH  14  15
ENDBRANCH  13  14
ENDBRANCH  12  13
ENDBRANCH   1  12
BRANCH   1  18
ATOM     18  C   UNL     1       1.339   1.778  -0.740  0.00  0.00    +0.128 C 
BRANCH  18  19
ATOM     19  N   UNL     1       2.716   1.526  -0.311  0.00  0.00    -0.265 N 
ATOM     20  N   UNL     1       4.620   1.787   0.761  0.00  0.00    -0.225 NA
ATOM     21  C   UNL     1       3.503   0.514  -0.745  0.00  0.00    +0.088 C 
ATOM     22  C   UNL     1       3.409   2.268   0.586  0.00  0.00    +0.168 C 
ATOM     23  C   UNL     1       4.685   0.694  -0.066  0.00  0.00    +0.117 C 
ENDBRANCH  18  19
ENDBRANCH   1  18
TORSDOF 9
