REMARK  Name = 6406
REMARK  2 active torsions:
REMARK  status: ('A' for Active; 'I' for Inactive)
REMARK    1  A    between atoms: C_1  and  O_4
REMARK    2  A    between atoms: C_1  and  C_7
REMARK                            x       y       z     vdW  Elec       q    Type
REMARK                         _______ _______ _______ _____ _____    ______ ____
ROOT
ATOM      1  C   UNL     1      -0.432   0.000   0.012  0.00  0.00    +0.166 C 
ATOM      2  C   UNL     1      -0.976   1.258  -0.663  0.00  0.00    +0.045 C 
ATOM      3  C   UNL     1      -0.974  -1.258  -0.665  0.00  0.00    +0.045 C 
ENDROOT
BRANCH   1   4
ATOM      4  O   UNL     1      -0.858  -0.001   1.375  0.00  0.00    -0.373 OA
ATOM      5  H   UNL     1      -1.828  -0.002   1.410  0.00  0.00    +0.212 HD
ENDBRANCH   1   4
BRANCH   1   7
ATOM      6  N   UNL     1       2.200   0.000  -0.041  0.00  0.00    -0.194 NA
ATOM      7  C   UNL     1       1.040   0.001  -0.018  0.00  0.00    +0.099 C 
ENDBRANCH   1   7
TORSDOF 2
