REMARK  Name = 637090
REMARK  2 active torsions:
REMARK  status: ('A' for Active; 'I' for Inactive)
REMARK    1  A    between atoms: C_2  and  C_5
REMARK    2  A    between atoms: C_2  and  O_6
REMARK                            x       y       z     vdW  Elec       q    Type
REMARK                         _______ _______ _______ _____ _____    ______ ____
ROOT
ATOM      1  O   UNL     1       1.367  -1.228   0.000  0.00  0.00    -0.245 OA
ATOM      2  C   UNL     1       1.090  -0.038   0.000  0.00  0.00    +0.338 C 
ENDROOT
BRANCH   2   5
ATOM      3  C   UNL     1      -1.380  -0.335   0.000  0.00  0.00    -0.019 C 
ATOM      4  C   UNL     1      -2.781   0.186   0.000  0.00  0.00    +0.031 C 
ATOM      5  C   UNL     1      -0.301   0.459   0.000  0.00  0.00    +0.077 C 
ENDBRANCH   2   5
BRANCH   2   6
ATOM      6  O   UNL     1       2.005   0.956   0.000  0.00  0.00    -0.477 OA
ATOM      7  H   UNL     1       1.725   1.850   0.000  0.00  0.00    +0.295 HD
ENDBRANCH   2   6
TORSDOF 2
