REMARK  Name = 7464
REMARK  2 active torsions:
REMARK  status: ('A' for Active; 'I' for Inactive)
REMARK    1  A    between atoms: C_1  and  C_10
REMARK    2  A    between atoms: C_6  and  N_7
REMARK                            x       y       z     vdW  Elec       q    Type
REMARK                         _______ _______ _______ _____ _____    ______ ____
ROOT
ATOM      1  C   UNL     1      -0.674   0.204   0.000  0.00  0.00    -0.022 C 
ATOM      2  C   UNL     1       0.145   1.333   0.000  0.00  0.00    -0.003 C 
ATOM      3  C   UNL     1      -0.106  -1.070   0.000  0.00  0.00    -0.003 C 
ATOM      4  C   UNL     1       1.532   1.187   0.000  0.00  0.00    +0.014 C 
ATOM      5  C   UNL     1       1.281  -1.215   0.000  0.00  0.00    +0.014 C 
ATOM      6  C   UNL     1       2.100  -0.087   0.000  0.00  0.00    +0.042 C 
ENDROOT
BRANCH   6   7
ATOM      7  N   UNL     1       3.503  -0.233   0.000  0.00  0.00    -0.357 N 
ATOM      8  H   UNL     1       4.081   0.564   0.000  0.00  0.00    +0.142 HD
ATOM      9  H   UNL     1       3.904  -1.132   0.000  0.00  0.00    +0.142 HD
ENDBRANCH   6   7
BRANCH   1  10
ATOM     10  C   UNL     1      -2.158   0.358   0.000  0.00  0.00    +0.022 C 
ATOM     11  C   UNL     1      -2.812  -0.238   1.260  0.00  0.00    +0.005 C 
ATOM     12  C   UNL     1      -2.812  -0.238  -1.261  0.00  0.00    +0.005 C 
ENDBRANCH   1  10
TORSDOF 2
