REMARK  Name = 220224
REMARK  4 active torsions:
REMARK  status: ('A' for Active; 'I' for Inactive)
REMARK    1  A    between atoms: P_1  and  O_4
REMARK    2  A    between atoms: P_1  and  O_7
REMARK    3  A    between atoms: O_4  and  C_5
REMARK    4  A    between atoms: O_7  and  C_8
REMARK                            x       y       z     vdW  Elec       q    Type
REMARK                         _______ _______ _______ _____ _____    ______ ____
ROOT
ATOM      1  P   UNL     1      -0.010  -1.019   0.382  0.00  0.00    +0.323 P 
ATOM      2  O   UNL     1      -0.367  -2.309  -0.309  0.00  0.00    -0.262 OA
ATOM      3  H   UNL     1      -0.641  -0.670   1.559  0.00  0.00    +0.160 HD
ENDROOT
BRANCH   1   4
ATOM      4  O   UNL     1      -0.939   0.216  -0.128  0.00  0.00    -0.297 OA
BRANCH   4   5
ATOM      5  C   UNL     1      -2.282   0.251   0.319  0.00  0.00    +0.151 C 
ATOM      6  C   UNL     1      -2.965   1.469  -0.266  0.00  0.00    +0.035 C 
ENDBRANCH   4   5
ENDBRANCH   1   4
BRANCH   1   7
ATOM      7  O   UNL     1       1.471  -0.506  -0.051  0.00  0.00    -0.297 OA
BRANCH   7   8
ATOM      8  C   UNL     1       1.842   0.823   0.274  0.00  0.00    +0.151 C 
ATOM      9  C   UNL     1       3.250   1.077  -0.222  0.00  0.00    +0.035 C 
ENDBRANCH   7   8
ENDBRANCH   1   7
TORSDOF 4
