REMARK  Name = 4631605
REMARK  7 active torsions:
REMARK  status: ('A' for Active; 'I' for Inactive)
REMARK    1  A    between atoms: C_1  and  C_5
REMARK    2  A    between atoms: C_1  and  N_16
REMARK    3  A    between atoms: C_8  and  C_14
REMARK    4  A    between atoms: C_18  and  C_21
REMARK    5  A    between atoms: C_21  and  C_22
REMARK    6  A    between atoms: C_22  and  O_23
REMARK    7  A    between atoms: O_23  and  P_24
REMARK                            x       y       z     vdW  Elec       q    Type
REMARK                         _______ _______ _______ _____ _____    ______ ____
ROOT
ATOM      1  C   UNL     1      -0.836   2.307  -0.713  0.00  0.00    +0.124 C 
ENDROOT
BRANCH   1   5
ATOM      2  N   UNL     1      -3.722   0.344   0.736  0.00  0.00    -0.333 NA
ATOM      3  N   UNL     1      -2.892  -0.795  -1.219  0.00  0.00    -0.180 NA
ATOM      4  N   UNL     1      -2.723   2.372   1.452  0.00  0.00    -0.332 N 
ATOM      5  C   UNL     1      -1.872   1.263  -0.499  0.00  0.00    +0.062 C 
ATOM      6  C   UNL     1      -2.780   1.290   0.539  0.00  0.00    +0.187 C 
ATOM      7  C   UNL     1      -1.976   0.186  -1.356  0.00  0.00    +0.112 C 
ATOM      8  C   UNL     1      -3.721  -0.656  -0.167  0.00  0.00    +0.161 C 
ATOM      9  H   UNL     1      -3.358   2.417   2.202  0.00  0.00    +0.145 HD
ATOM     10  H   UNL     1      -2.047   3.078   1.336  0.00  0.00    +0.145 HD
BRANCH   8  14
ATOM     11  F   UNL     1      -4.694  -2.704  -0.930  0.00  0.00    -0.157 F 
ATOM     12  F   UNL     1      -4.650  -2.374   1.213  0.00  0.00    -0.157 F 
ATOM     13  F   UNL     1      -6.023  -1.236  -0.031  0.00  0.00    -0.157 F 
ATOM     14  C   UNL     1      -4.748  -1.721   0.017  0.00  0.00    +0.489 C 
ENDBRANCH   8  14
ENDBRANCH   1   5
BRANCH   1  16
ATOM     15  S   UNL     1       1.927   1.190   1.802  0.00  0.00    -0.095 S 
ATOM     16  N   UNL     1       0.395   1.956  -0.001  0.00  0.00    -0.297 N 
ATOM     17  C   UNL     1       1.633   2.061  -0.568  0.00  0.00    +0.028 C 
ATOM     18  C   UNL     1       2.621   1.672   0.304  0.00  0.00    +0.016 C 
ATOM     19  C   UNL     1       0.349   1.520   1.228  0.00  0.00    +0.154 C 
ATOM     20  C   UNL     1       1.746   2.548  -1.950  0.00  0.00    +0.047 C 
BRANCH  18  21
ATOM     21  C   UNL     1       4.085   1.624   0.117  0.00  0.00    +0.066 C 
BRANCH  21  22
ATOM     22  C   UNL     1       4.582   0.276  -0.435  0.00  0.00    +0.159 C 
BRANCH  22  23
ATOM     23  O   UNL     1       4.249  -0.779   0.459  0.00  0.00    -0.270 OA
BRANCH  23  24
ATOM     24  P   UNL     1       4.689  -2.320   0.063  0.00  0.00    +0.533 P 
ATOM     25  O   UNL     1       4.172  -3.149   1.235  0.00  0.00    -0.115 OA
ATOM     26  O   UNL     1       6.211  -2.275  -0.040  0.00  0.00    -0.115 OA
ATOM     27  O   UNL     1       3.977  -2.600  -1.257  0.00  0.00    -0.222 OA
ENDBRANCH  23  24
ENDBRANCH  22  23
ENDBRANCH  21  22
ENDBRANCH  18  21
ENDBRANCH   1  16
TORSDOF 7
