REMARK  Name = 47936
REMARK  6 active torsions:
REMARK  status: ('A' for Active; 'I' for Inactive)
REMARK    1  A    between atoms: C_5  and  O_21
REMARK    2  A    between atoms: C_8  and  O_23
REMARK    3  A    between atoms: C_9  and  O_25
REMARK    4  A    between atoms: C_10  and  O_29
REMARK    5  A    between atoms: C_18  and  C_27
REMARK    6  A    between atoms: O_29  and  C_31
REMARK                            x       y       z     vdW  Elec       q    Type
REMARK                         _______ _______ _______ _____ _____    ______ ____
ROOT
ATOM      1  O   UNL     1       2.473   0.438  -0.012  0.00  0.00    -0.352 OA
ATOM      2  O   UNL     1       0.973  -3.344  -0.724  0.00  0.00    -0.293 OA
ATOM      3  C   UNL     1      -1.071  -1.168  -0.420  0.00  0.00    +0.058 C 
ATOM      4  C   UNL     1      -1.793   0.073   0.284  0.00  0.00    +0.036 C 
ATOM      5  C   UNL     1       0.496  -1.038  -0.109  0.00  0.00    +0.167 C 
ATOM      6  C   UNL     1       1.136   0.319  -0.557  0.00  0.00    +0.160 C 
ATOM      7  C   UNL     1      -3.376   0.049   0.290  0.00  0.00    +0.003 C 
ATOM      8  C   UNL     1      -1.169   1.450  -0.081  0.00  0.00    +0.153 C 
ATOM      9  C   UNL     1      -1.715  -2.487   0.167  0.00  0.00    +0.113 C 
ATOM     10  C   UNL     1       0.355   1.476   0.124  0.00  0.00    +0.222 C 
ATOM     11  C   UNL     1      -3.861  -1.318   0.831  0.00  0.00    +0.003 C 
ATOM     12  C   UNL     1      -3.248  -2.511   0.111  0.00  0.00    +0.029 C 
ATOM     13  C   UNL     1      -1.280  -1.234  -1.955  0.00  0.00    +0.005 C 
ATOM     14  C   UNL     1       1.387  -2.194  -0.575  0.00  0.00    +0.180 C 
ATOM     15  C   UNL     1       1.277   0.558  -2.075  0.00  0.00    +0.036 C 
ATOM     16  C   UNL     1      -3.917   1.122   1.272  0.00  0.00    +0.000 C 
ATOM     17  C   UNL     1      -4.052   0.331  -1.065  0.00  0.00    +0.000 C 
ATOM     18  C   UNL     1       3.368  -0.677  -0.082  0.00  0.00    +0.118 C 
ATOM     19  C   UNL     1       2.841  -1.887  -0.861  0.00  0.00    +0.098 C 
ATOM     20  C   UNL     1       4.651  -0.161  -0.744  0.00  0.00    +0.035 C 
ENDROOT
BRANCH   5  21
ATOM     21  O   UNL     1       0.693  -1.104   1.321  0.00  0.00    -0.377 OA
ATOM     22  H   UNL     1       0.172  -0.408   1.752  0.00  0.00    +0.211 HD
ENDBRANCH   5  21
BRANCH   8  23
ATOM     23  O   UNL     1      -1.512   1.842  -1.401  0.00  0.00    -0.381 OA
ATOM     24  H   UNL     1      -2.476   1.817  -1.506  0.00  0.00    +0.210 HD
ENDBRANCH   8  23
BRANCH   9  25
ATOM     25  O   UNL     1      -1.341  -2.690   1.530  0.00  0.00    -0.384 OA
ATOM     26  H   UNL     1      -0.374  -2.681   1.604  0.00  0.00    +0.210 HD
ENDBRANCH   9  25
BRANCH  18  27
ATOM     27  C   UNL     1       3.710  -1.061   1.333  0.00  0.00    +0.001 C 
ATOM     28  C   UNL     1       3.634  -0.226   2.375  0.00  0.00    -0.003 C 
ENDBRANCH  18  27
BRANCH  10  29
ATOM     29  O   UNL     1       0.875   2.753  -0.256  0.00  0.00    -0.447 OA
BRANCH  29  31
ATOM     30  O   UNL     1      -0.187   3.847   1.480  0.00  0.00    -0.250 OA
ATOM     31  C   UNL     1       0.301   3.827   0.357  0.00  0.00    +0.318 C 
ATOM     32  C   UNL     1       0.351   5.013  -0.557  0.00  0.00    +0.121 C 
ENDBRANCH  29  31
ENDBRANCH  10  29
TORSDOF 6
