REMARK  Name = 3994
REMARK  10 active torsions:
REMARK  status: ('A' for Active; 'I' for Inactive)
REMARK    1  A    between atoms: N_2  and  C_14
REMARK    2  A    between atoms: C_3  and  C_5
REMARK    3  A    between atoms: C_6  and  N_11
REMARK    4  A    between atoms: C_14  and  C_15
REMARK    5  A    between atoms: C_15  and  C_16
REMARK    6  A    between atoms: C_16  and  C_17
REMARK    7  A    between atoms: C_17  and  C_18
REMARK    8  A    between atoms: C_18  and  C_19
REMARK    9  A    between atoms: C_19  and  C_22
REMARK   10  A    between atoms: N_21  and  O_24
REMARK                            x       y       z     vdW  Elec       q    Type
REMARK                         _______ _______ _______ _____ _____    ______ ____
ROOT
ATOM      1  O   UNL     1       1.947  -2.980  -1.099  0.00  0.00    -0.270 OA
ATOM      2  N   UNL     1       0.780  -2.252   0.769  0.00  0.00    -0.301 N 
ATOM      3  C   UNL     1       1.764  -2.155  -0.207  0.00  0.00    +0.246 C 
ATOM      4  H   UNL     1       0.712  -1.538   1.444  0.00  0.00    +0.150 HD
ENDROOT
BRANCH   3   5
ATOM      5  C   UNL     1       2.655  -0.970  -0.122  0.00  0.00    +0.053 C 
ATOM      6  C   UNL     1       4.329   1.256   0.037  0.00  0.00    +0.048 C 
ATOM      7  C   UNL     1       3.951  -1.033  -0.635  0.00  0.00    +0.006 C 
ATOM      8  C   UNL     1       2.197   0.206   0.471  0.00  0.00    +0.006 C 
ATOM      9  C   UNL     1       4.788   0.080  -0.556  0.00  0.00    +0.015 C 
ATOM     10  C   UNL     1       3.034   1.320   0.551  0.00  0.00    +0.015 C 
BRANCH   6  11
ATOM     11  N   UNL     1       5.175   2.382   0.117  0.00  0.00    -0.304 N 
ATOM     12  C   UNL     1       6.522   2.328  -0.415  0.00  0.00    +0.112 C 
ATOM     13  C   UNL     1       4.702   3.614   0.719  0.00  0.00    +0.112 C 
ENDBRANCH   6  11
ENDBRANCH   3   5
BRANCH   2  14
ATOM     14  C   UNL     1      -0.143  -3.352   0.835  0.00  0.00    +0.090 C 
BRANCH  14  15
ATOM     15  C   UNL     1      -1.403  -3.076   0.023  0.00  0.00    +0.021 C 
BRANCH  15  16
ATOM     16  C   UNL     1      -2.130  -1.831   0.531  0.00  0.00    +0.002 C 
BRANCH  16  17
ATOM     17  C   UNL     1      -3.374  -1.531  -0.308  0.00  0.00    +0.001 C 
BRANCH  17  18
ATOM     18  C   UNL     1      -4.117  -0.302   0.223  0.00  0.00    +0.010 C 
BRANCH  18  19
ATOM     19  C   UNL     1      -5.384   0.001  -0.576  0.00  0.00    +0.087 C 
BRANCH  19  22
ATOM     20  O   UNL     1      -7.040   1.161   0.757  0.00  0.00    -0.273 OA
ATOM     21  N   UNL     1      -5.722   2.369  -0.704  0.00  0.00    -0.197 N 
ATOM     22  C   UNL     1      -6.143   1.220  -0.080  0.00  0.00    +0.244 C 
ATOM     23  H   UNL     1      -4.997   2.367  -1.371  0.00  0.00    +0.182 HD
BRANCH  21  24
ATOM     24  O   UNL     1      -6.388   3.544  -0.332  0.00  0.00    -0.295 OA
ATOM     25  H   UNL     1      -6.020   4.294  -0.825  0.00  0.00    +0.241 HD
ENDBRANCH  21  24
ENDBRANCH  19  22
ENDBRANCH  18  19
ENDBRANCH  17  18
ENDBRANCH  16  17
ENDBRANCH  15  16
ENDBRANCH  14  15
ENDBRANCH   2  14
TORSDOF 10
