REMARK  Name = 5740
REMARK  8 active torsions:
REMARK  status: ('A' for Active; 'I' for Inactive)
REMARK    1  A    between atoms: N_1  and  C_13
REMARK    2  A    between atoms: C_8  and  O_27
REMARK    3  A    between atoms: C_9  and  O_30
REMARK    4  A    between atoms: C_14  and  C_21
REMARK    5  A    between atoms: C_23  and  C_24
REMARK    6  A    between atoms: C_24  and  O_25
REMARK    7  A    between atoms: O_27  and  C_28
REMARK    8  A    between atoms: O_30  and  C_31
REMARK                            x       y       z     vdW  Elec       q    Type
REMARK                         _______ _______ _______ _____ _____    ______ ____
ROOT
ATOM      1  N   UNL     1      -0.053   0.977   1.387  0.00  0.00    -0.301 N 
ATOM      2  N   UNL     1      -2.074  -2.633   1.482  0.00  0.00    -0.248 NA
ATOM      3  N   UNL     1      -0.104  -1.315   1.915  0.00  0.00    -0.233 NA
ATOM      4  C   UNL     1      -2.063  -0.300   0.928  0.00  0.00    +0.119 C 
ATOM      5  C   UNL     1      -2.699  -1.551   0.986  0.00  0.00    +0.070 C 
ATOM      6  C   UNL     1      -0.758  -0.252   1.412  0.00  0.00    +0.115 C 
ATOM      7  C   UNL     1      -2.726   0.825   0.408  0.00  0.00    +0.027 C 
ATOM      8  C   UNL     1      -4.032   0.709  -0.060  0.00  0.00    +0.169 C 
ATOM      9  C   UNL     1      -4.671  -0.524  -0.008  0.00  0.00    +0.173 C 
ATOM     10  C   UNL     1      -4.005  -1.638   0.511  0.00  0.00    +0.055 C 
ATOM     11  C   UNL     1      -0.810  -2.457   1.919  0.00  0.00    +0.251 C 
ATOM     12  H   UNL     1      -0.631   1.769   1.472  0.00  0.00    +0.153 HD
ENDROOT
BRANCH   1  13
ATOM     13  C   UNL     1       1.312   1.283   1.263  0.00  0.00    +0.049 C 
ATOM     14  C   UNL     1       3.517   0.742   0.420  0.00  0.00    +0.028 C 
ATOM     15  C   UNL     1       2.161   0.438   0.542  0.00  0.00    +0.017 C 
ATOM     16  C   UNL     1       1.831   2.436   1.860  0.00  0.00    +0.015 C 
ATOM     17  C   UNL     1       4.030   1.893   1.017  0.00  0.00    +0.002 C 
ATOM     18  C   UNL     1       3.187   2.740   1.737  0.00  0.00    +0.001 C 
BRANCH  14  21
ATOM     19  S   UNL     1       5.394  -2.199  -1.378  0.00  0.00    -0.077 S 
ATOM     20  N   UNL     1       5.495   0.354  -0.987  0.00  0.00    -0.401 NA
ATOM     21  C   UNL     1       4.385  -0.129  -0.323  0.00  0.00    +0.121 C 
ATOM     22  C   UNL     1       4.165  -1.486  -0.419  0.00  0.00    +0.123 C 
ATOM     23  C   UNL     1       6.103  -0.650  -1.579  0.00  0.00    +0.164 C 
BRANCH  23  24
ATOM     24  C   UNL     1       7.334  -0.521  -2.389  0.00  0.00    +0.203 C 
BRANCH  24  25
ATOM     25  O   UNL     1       8.448  -0.684  -1.514  0.00  0.00    -0.375 OA
ATOM     26  H   UNL     1       9.272  -0.604  -2.020  0.00  0.00    +0.211 HD
ENDBRANCH  24  25
ENDBRANCH  23  24
ENDBRANCH  14  21
ENDBRANCH   1  13
BRANCH   8  27
ATOM     27  O   UNL     1      -4.668   1.803  -0.561  0.00  0.00    -0.473 OA
BRANCH  27  28
ATOM     28  C   UNL     1      -4.074   2.438  -1.692  0.00  0.00    +0.206 C 
ATOM     29  C   UNL     1      -5.165   3.060  -2.538  0.00  0.00    +0.051 C 
ENDBRANCH  27  28
ENDBRANCH   8  27
BRANCH   9  30
ATOM     30  O   UNL     1      -5.949  -0.661  -0.460  0.00  0.00    -0.472 OA
BRANCH  30  31
ATOM     31  C   UNL     1      -6.164  -1.583  -1.527  0.00  0.00    +0.206 C 
ATOM     32  C   UNL     1      -7.346  -1.117  -2.351  0.00  0.00    +0.051 C 
ENDBRANCH  30  31
ENDBRANCH   9  30
TORSDOF 8
