REMARK  Name = 7311735
REMARK  3 active torsions:
REMARK  status: ('A' for Active; 'I' for Inactive)
REMARK    1  A    between atoms: C_1  and  N_2
REMARK    2  A    between atoms: C_1  and  C_6
REMARK    3  A    between atoms: C_6  and  O_8
REMARK                            x       y       z     vdW  Elec       q    Type
REMARK                         _______ _______ _______ _____ _____    ______ ____
ROOT
ATOM      1  C   UNL     1       0.923   0.018   0.700  0.00  0.00    -0.056 C 
ENDROOT
BRANCH   1   2
ATOM      2  N   UNL     1       1.673  -0.138  -0.571  0.00  0.00    +0.382 N 
ATOM      3  H   UNL     1       2.674  -0.169  -0.374  0.00  0.00    -0.089 HD
ATOM      4  H   UNL     1       1.472   0.652  -1.184  0.00  0.00    -0.089 HD
ATOM      5  H   UNL     1       1.390  -1.005  -1.029  0.00  0.00    -0.089 HD
ENDBRANCH   1   2
BRANCH   1   6
ATOM      6  C   UNL     1      -0.580   0.068   0.447  0.00  0.00    +0.089 C 
ATOM      7  C   UNL     1      -1.137  -1.171  -0.243  0.00  0.00    +0.029 C 
BRANCH   6   8
ATOM      8  O   UNL     1      -0.879   1.224  -0.332  0.00  0.00    -0.387 OA
ATOM      9  H   UNL     1      -0.525   2.011   0.108  0.00  0.00    +0.210 HD
ENDBRANCH   6   8
ENDBRANCH   1   6
TORSDOF 3
