REMARK  Name = 5496628
REMARK  9 active torsions:
REMARK  status: ('A' for Active; 'I' for Inactive)
REMARK    1  A    between atoms: C_1  and  C_3
REMARK    2  A    between atoms: C_1  and  C_6
REMARK    3  A    between atoms: C_1  and  C_21
REMARK    4  A    between atoms: C_3  and  O_4
REMARK    5  A    between atoms: C_6  and  C_8
REMARK    6  A    between atoms: C_6  and  C_11
REMARK    7  A    between atoms: C_8  and  O_9
REMARK    8  A    between atoms: C_11  and  C_14
REMARK    9  A    between atoms: C_21  and  C_24
REMARK                            x       y       z     vdW  Elec       q    Type
REMARK                         _______ _______ _______ _____ _____    ______ ____
ROOT
ATOM      1  C   UNL     1      -0.230  -1.146   0.005  0.00  0.00    +0.114 C 
ENDROOT
BRANCH   1   3
ATOM      2  O   UNL     1      -0.972  -2.632  -1.779  0.00  0.00    -0.250 OA
ATOM      3  C   UNL     1      -0.615  -1.515  -1.425  0.00  0.00    +0.314 C 
BRANCH   3   4
ATOM      4  O   UNL     1      -0.547  -0.461  -2.277  0.00  0.00    -0.480 OA
ATOM      5  H   UNL     1      -0.269   0.377  -1.964  0.00  0.00    +0.295 HD
ENDBRANCH   3   4
ENDBRANCH   1   3
BRANCH   1   6
ATOM      6  C   UNL     1       0.995  -1.990   0.457  0.00  0.00    +0.114 C 
BRANCH   6   8
ATOM      7  O   UNL     1       0.863  -4.249  -0.411  0.00  0.00    -0.250 OA
ATOM      8  C   UNL     1       0.676  -3.478   0.523  0.00  0.00    +0.314 C 
BRANCH   8   9
ATOM      9  O   UNL     1       0.170  -3.877   1.716  0.00  0.00    -0.480 OA
ATOM     10  H   UNL     1       0.043  -3.253   2.403  0.00  0.00    +0.295 HD
ENDBRANCH   8   9
ENDBRANCH   6   8
BRANCH   6  11
ATOM     11  C   UNL     1       2.244  -1.810  -0.441  0.00  0.00    +0.038 C 
BRANCH  11  14
ATOM     12  O   UNL     1       3.435   2.939  -1.078  0.00  0.00    -0.435 OA
ATOM     13  O   UNL     1       5.233   2.822   0.522  0.00  0.00    -0.435 OA
ATOM     14  C   UNL     1       3.071  -0.580  -0.156  0.00  0.00    -0.018 C 
ATOM     15  C   UNL     1       2.778   0.602  -0.825  0.00  0.00    +0.036 C 
ATOM     16  C   UNL     1       4.111  -0.661   0.774  0.00  0.00    -0.001 C 
ATOM     17  C   UNL     1       3.561   1.699  -0.531  0.00  0.00    +0.176 C 
ATOM     18  C   UNL     1       4.588   1.633   0.383  0.00  0.00    +0.176 C 
ATOM     19  C   UNL     1       4.888   0.465   1.053  0.00  0.00    +0.040 C 
ATOM     20  C   UNL     1       4.497   3.646  -0.405  0.00  0.00    +0.429 C 
ENDBRANCH  11  14
ENDBRANCH   6  11
ENDBRANCH   1   6
BRANCH   1  21
ATOM     21  C   UNL     1      -1.475  -1.377   0.896  0.00  0.00    +0.038 C 
BRANCH  21  24
ATOM     22  O   UNL     1      -5.454   0.781  -1.077  0.00  0.00    -0.435 OA
ATOM     23  O   UNL     1      -5.318   2.664   0.420  0.00  0.00    -0.435 OA
ATOM     24  C   UNL     1      -2.497  -0.267   0.795  0.00  0.00    -0.018 C 
ATOM     25  C   UNL     1      -3.497  -0.356  -0.161  0.00  0.00    +0.036 C 
ATOM     26  C   UNL     1      -2.404   0.818   1.670  0.00  0.00    -0.001 C 
ATOM     27  C   UNL     1      -4.406   0.681  -0.214  0.00  0.00    +0.176 C 
ATOM     28  C   UNL     1      -4.329   1.756   0.641  0.00  0.00    +0.176 C 
ATOM     29  C   UNL     1      -3.338   1.854   1.596  0.00  0.00    +0.040 C 
ATOM     30  C   UNL     1      -6.027   2.040  -0.669  0.00  0.00    +0.429 C 
ENDBRANCH  21  24
ENDBRANCH   1  21
TORSDOF 9
