REMARK  Name = 220010
REMARK  3 active torsions:
REMARK  status: ('A' for Active; 'I' for Inactive)
REMARK    1  A    between atoms: C_1  and  O_3
REMARK    2  A    between atoms: C_1  and  C_5
REMARK    3  A    between atoms: C_5  and  O_7
REMARK                            x       y       z     vdW  Elec       q    Type
REMARK                         _______ _______ _______ _____ _____    ______ ____
ROOT
ATOM      1  C   UNL     1       0.697  -0.079  -0.322  0.00  0.00    +0.137 C 
ATOM      2  C   UNL     1       1.634   1.061   0.061  0.00  0.00    +0.034 C 
ENDROOT
BRANCH   1   3
ATOM      3  O   UNL     1       1.284  -1.311   0.095  0.00  0.00    -0.382 OA
ATOM      4  H   UNL     1       0.697  -2.045  -0.143  0.00  0.00    +0.210 HD
ENDBRANCH   1   3
BRANCH   1   5
ATOM      5  C   UNL     1      -0.692   0.068   0.314  0.00  0.00    +0.137 C 
ATOM      6  C   UNL     1      -1.645  -1.052  -0.087  0.00  0.00    +0.034 C 
BRANCH   5   7
ATOM      7  O   UNL     1      -1.278   1.314  -0.060  0.00  0.00    -0.382 OA
ATOM      8  H   UNL     1      -0.683   2.038   0.189  0.00  0.00    +0.210 HD
ENDBRANCH   5   7
ENDBRANCH   1   5
TORSDOF 3
