REMARK  Name = 446696
REMARK  6 active torsions:
REMARK  status: ('A' for Active; 'I' for Inactive)
REMARK    1  A    between atoms: C_2  and  C_16
REMARK    2  A    between atoms: C_4  and  N_7
REMARK    3  A    between atoms: C_16  and  O_17
REMARK    4  A    between atoms: O_17  and  P_18
REMARK    5  A    between atoms: P_18  and  O_20
REMARK    6  A    between atoms: P_18  and  O_22
REMARK                            x       y       z     vdW  Elec       q    Type
REMARK                         _______ _______ _______ _____ _____    ______ ____
ROOT
ATOM      1  O   UNL     1      -0.343   1.309   0.998  0.00  0.00    -0.337 OA
ATOM      2  C   UNL     1      -1.430   1.970   0.326  0.00  0.00    +0.147 C 
ATOM      3  C   UNL     1      -0.800   2.959  -0.642  0.00  0.00    +0.037 C 
ATOM      4  C   UNL     1       0.885   1.649   0.340  0.00  0.00    +0.206 C 
ATOM      5  C   UNL     1       0.515   2.301  -0.979  0.00  0.00    +0.055 C 
ENDROOT
BRANCH   4   7
ATOM      6  O   UNL     1       3.698   1.566   0.388  0.00  0.00    -0.193 OA
ATOM      7  N   UNL     1       1.680   0.468   0.173  0.00  0.00    -0.180 N 
ATOM      8  N   UNL     1       3.799  -0.675   0.043  0.00  0.00    -0.306 NA
ATOM      9  N   UNL     1       3.895  -2.971  -0.313  0.00  0.00    -0.332 N 
ATOM     10  C   UNL     1       1.036  -0.741  -0.030  0.00  0.00    +0.083 C 
ATOM     11  C   UNL     1       3.095   0.506   0.211  0.00  0.00    +0.275 C 
ATOM     12  C   UNL     1       1.694  -1.887  -0.195  0.00  0.00    +0.065 C 
ATOM     13  C   UNL     1       3.177  -1.809  -0.148  0.00  0.00    +0.193 C 
ATOM     14  H   UNL     1       4.879  -2.950  -0.286  0.00  0.00    +0.145 HD
ATOM     15  H   UNL     1       3.424  -3.824  -0.457  0.00  0.00    +0.145 HD
ENDBRANCH   4   7
BRANCH   2  16
ATOM     16  C   UNL     1      -2.280   0.915  -0.368  0.00  0.00    +0.183 C 
BRANCH  16  17
ATOM     17  O   UNL     1      -2.813   0.037   0.611  0.00  0.00    -0.271 OA
BRANCH  17  18
ATOM     18  P   UNL     1      -3.760  -1.180   0.120  0.00  0.00    +0.473 P 
ATOM     19  O   UNL     1      -4.282  -2.061   1.217  0.00  0.00    -0.227 OA
BRANCH  18  20
ATOM     20  O   UNL     1      -2.870  -1.930  -1.004  0.00  0.00    -0.303 OA
ATOM     21  H   UNL     1      -2.578  -1.286  -1.668  0.00  0.00    +0.222 HD
ENDBRANCH  18  20
BRANCH  18  22
ATOM     22  O   UNL     1      -4.896  -0.425  -0.749  0.00  0.00    -0.303 OA
ATOM     23  H   UNL     1      -4.473   0.119  -1.431  0.00  0.00    +0.222 HD
ENDBRANCH  18  22
ENDBRANCH  17  18
ENDBRANCH  16  17
ENDBRANCH   2  16
TORSDOF 6
