REMARK  Name = 446367
REMARK  4 active torsions:
REMARK  status: ('A' for Active; 'I' for Inactive)
REMARK    1  A    between atoms: C_1  and  N_8
REMARK    2  A    between atoms: C_2  and  N_12
REMARK    3  A    between atoms: C_3  and  C_16
REMARK    4  A    between atoms: C_16  and  O_17
REMARK                            x       y       z     vdW  Elec       q    Type
REMARK                         _______ _______ _______ _____ _____    ______ ____
ROOT
ATOM      1  C   UNL     1      -0.906   0.277  -0.001  0.00  0.00    +0.063 C 
ATOM      2  C   UNL     1      -0.044   1.374   0.000  0.00  0.00    +0.055 C 
ATOM      3  C   UNL     1       1.856  -0.118   0.000  0.00  0.00    +0.077 C 
ATOM      4  C   UNL     1      -0.386  -1.018  -0.002  0.00  0.00    +0.016 C 
ATOM      5  C   UNL     1       1.336   1.177   0.001  0.00  0.00    +0.022 C 
ATOM      6  C   UNL     1       0.995  -1.215  -0.002  0.00  0.00    +0.008 C 
ENDROOT
BRANCH   1   8
ATOM      7  O   UNL     1      -3.129  -1.754   0.003  0.00  0.00    -0.275 OA
ATOM      8  N   UNL     1      -2.293   0.450  -0.001  0.00  0.00    -0.283 N 
ATOM      9  C   UNL     1      -3.285  -0.537   0.000  0.00  0.00    +0.227 C 
ATOM     10  C   UNL     1      -4.668   0.064   0.001  0.00  0.00    +0.095 C 
ATOM     11  H   UNL     1      -2.611   1.382   0.000  0.00  0.00    +0.155 HD
ENDBRANCH   1   8
BRANCH   2  12
ATOM     12  N   UNL     1      -0.550   2.694   0.001  0.00  0.00    -0.356 N 
ATOM     13  H   UNL     1      -1.522   2.849   0.000  0.00  0.00    +0.142 HD
ATOM     14  H   UNL     1       0.070   3.459   0.001  0.00  0.00    +0.142 HD
ENDBRANCH   2  12
BRANCH   3  16
ATOM     15  O   UNL     1       4.147   0.571   0.001  0.00  0.00    -0.245 OA
ATOM     16  C   UNL     1       3.296  -0.324   0.000  0.00  0.00    +0.338 C 
BRANCH  16  17
ATOM     17  O   UNL     1       3.632  -1.643   0.001  0.00  0.00    -0.477 OA
ATOM     18  H   UNL     1       2.962  -2.297   0.000  0.00  0.00    +0.295 HD
ENDBRANCH  16  17
ENDBRANCH   3  16
TORSDOF 4
