REMARK  Name = 5488191
REMARK  3 active torsions:
REMARK  status: ('A' for Active; 'I' for Inactive)
REMARK    1  A    between atoms: C_1  and  N_3
REMARK    2  A    between atoms: C_1  and  C_8
REMARK    3  A    between atoms: C_8  and  O_9
REMARK                            x       y       z     vdW  Elec       q    Type
REMARK                         _______ _______ _______ _____ _____    ______ ____
ROOT
ATOM      1  C   UNL     1      -0.097  -0.459   0.413  0.00  0.00    +0.043 C 
ATOM      2  C   UNL     1      -0.269  -1.946   0.138  0.00  0.00    -0.011 C 
ENDROOT
BRANCH   1   3
ATOM      3  N   UNL     1      -1.117   0.299  -0.312  0.00  0.00    +0.392 N 
ATOM      4  C   UNL     1      -0.980   1.729  -0.041  0.00  0.00    -0.100 C 
ATOM      5  C   UNL     1      -2.455  -0.165   0.054  0.00  0.00    -0.100 C 
ATOM      6  H   UNL     1      -0.984   0.145  -1.311  0.00  0.00    -0.079 HD
ENDBRANCH   1   3
BRANCH   1   8
ATOM      7  O   UNL     1       1.710  -0.055  -1.186  0.00  0.00    -0.253 OA
ATOM      8  C   UNL     1       1.262   0.021  -0.051  0.00  0.00    +0.294 C 
BRANCH   8   9
ATOM      9  O   UNL     1       1.946   0.577   0.984  0.00  0.00    -0.482 OA
ATOM     10  H   UNL     1       1.560   0.611   1.837  0.00  0.00    +0.295 HD
ENDBRANCH   8   9
ENDBRANCH   1   8
TORSDOF 3
