REMARK  Name = 79639
REMARK  0 active torsions:
REMARK  status: ('A' for Active; 'I' for Inactive)
REMARK                            x       y       z     vdW  Elec       q    Type
REMARK                         _______ _______ _______ _____ _____    ______ ____
ROOT
ATOM      1  O   UNL     1      -1.411   2.492   0.000  0.00  0.00    -0.208 OA
ATOM      2  N   UNL     1       1.913  -0.571   0.000  0.00  0.00    -0.231 NA
ATOM      3  N   UNL     1      -0.363  -1.430   0.000  0.00  0.00    -0.279 N 
ATOM      4  N   UNL     1       1.403   1.615   0.000  0.00  0.00    -0.241 NA
ATOM      5  N   UNL     1      -2.061   0.268   0.000  0.00  0.00    -0.301 NA
ATOM      6  N   UNL     1      -2.595  -2.028   0.000  0.00  0.00    -0.320 N 
ATOM      7  C   UNL     1       0.564  -0.468   0.000  0.00  0.00    +0.189 C 
ATOM      8  C   UNL     1       0.263   0.863   0.000  0.00  0.00    +0.183 C 
ATOM      9  C   UNL     1       2.381   0.724   0.001  0.00  0.00    +0.203 C 
ATOM     10  C   UNL     1       2.714  -1.770   0.000  0.00  0.00    +0.093 C 
ATOM     11  C   UNL     1      -1.118   1.303   0.000  0.00  0.00    +0.224 C 
ATOM     12  C   UNL     1      -1.688  -0.999   0.001  0.00  0.00    +0.245 C 
ATOM     13  H   UNL     1      -0.124  -2.385   0.001  0.00  0.00    +0.152 HD
ATOM     14  H   UNL     1      -2.281  -2.961   0.000  0.00  0.00    +0.146 HD
ATOM     15  H   UNL     1      -3.560  -1.834  -0.001  0.00  0.00    +0.146 HD
ENDROOT
TORSDOF 0
