REMARK  Name = 5288724
REMARK  6 active torsions:
REMARK  status: ('A' for Active; 'I' for Inactive)
REMARK    1  A    between atoms: C_2  and  S_7
REMARK    2  A    between atoms: C_3  and  O_9
REMARK    3  A    between atoms: C_4  and  C_15
REMARK    4  A    between atoms: C_5  and  O_11
REMARK    5  A    between atoms: C_6  and  O_13
REMARK    6  A    between atoms: C_15  and  O_16
REMARK                            x       y       z     vdW  Elec       q    Type
REMARK                         _______ _______ _______ _____ _____    ______ ____
ROOT
ATOM      1  O   UNL     1       0.594   1.494  -0.434  0.00  0.00    -0.328 OA
ATOM      2  C   UNL     1       0.265  -0.924  -0.600  0.00  0.00    +0.107 C 
ATOM      3  C   UNL     1      -1.201  -0.758  -0.168  0.00  0.00    +0.155 C 
ATOM      4  C   UNL     1       1.147   0.220  -0.064  0.00  0.00    +0.159 C 
ATOM      5  C   UNL     1      -1.685   0.663  -0.464  0.00  0.00    +0.195 C 
ATOM      6  C   UNL     1      -0.720   1.716   0.078  0.00  0.00    +0.262 C 
ENDROOT
BRANCH   2   7
ATOM      7  S   UNL     1       0.877  -2.562  -0.048  0.00  0.00    -0.135 S 
ATOM      8  C   UNL     1       0.626  -2.333   1.724  0.00  0.00    +0.069 C 
ENDBRANCH   2   7
BRANCH   3   9
ATOM      9  O   UNL     1      -2.031  -1.658  -0.905  0.00  0.00    -0.381 OA
ATOM     10  H   UNL     1      -1.747  -2.570  -0.737  0.00  0.00    +0.210 HD
ENDBRANCH   3   9
BRANCH   5  11
ATOM     11  O   UNL     1      -2.980   0.848   0.098  0.00  0.00    -0.378 OA
ATOM     12  H   UNL     1      -3.584   0.175  -0.252  0.00  0.00    +0.211 HD
ENDBRANCH   5  11
BRANCH   6  13
ATOM     13  O   UNL     1      -0.741   1.803   1.501  0.00  0.00    -0.358 OA
ATOM     14  H   UNL     1      -0.114   2.483   1.793  0.00  0.00    +0.213 HD
ENDBRANCH   6  13
BRANCH   4  15
ATOM     15  C   UNL     1       2.565   0.199  -0.632  0.00  0.00    +0.168 C 
BRANCH  15  16
ATOM     16  O   UNL     1       3.282   1.291  -0.087  0.00  0.00    -0.379 OA
ATOM     17  H   UNL     1       4.186   1.292  -0.438  0.00  0.00    +0.211 HD
ENDBRANCH  15  16
ENDBRANCH   4  15
TORSDOF 6
