REMARK  Name = 88064
REMARK  3 active torsions:
REMARK  status: ('A' for Active; 'I' for Inactive)
REMARK    1  A    between atoms: CA_1  and  N_4
REMARK    2  A    between atoms: CA_1  and  C_9
REMARK    3  A    between atoms: C_9  and  O_10
REMARK                            x       y       z     vdW  Elec       q    Type
REMARK                         _______ _______ _______ _____ _____    ______ ____
ROOT
ATOM      1  CA  ALA A   1      -0.534  -0.529  -0.058  0.00  0.00    +0.171 C 
ATOM      2  CB  ALA A   1      -0.726  -1.659   0.943  0.00  0.00    +0.033 C 
ENDROOT
BRANCH   1   4
ATOM      3  O   UNK A   0       2.228  -0.896  -0.871  0.00  0.00    -0.275 OA
ATOM      4  N   ALA A   1       0.599   0.281   0.304  0.00  0.00    -0.297 N 
ATOM      5  C   UNK A   0       1.891   0.027  -0.135  0.00  0.00    +0.223 C 
ATOM      6  C   UNK A   0       2.880   1.042   0.372  0.00  0.00    +0.095 C 
ATOM      7  H   ALA A   1       0.451   1.055   0.894  0.00  0.00    +0.150 HD
ENDBRANCH   1   4
BRANCH   1   9
ATOM      8  OXT ALA A   1      -2.877  -0.171  -0.535  0.00  0.00    -0.248 OA
ATOM      9  C   ALA A   1      -1.804   0.298  -0.171  0.00  0.00    +0.332 C 
BRANCH   9  10
ATOM     10  O   ALA A   1      -1.658   1.606   0.151  0.00  0.00    -0.479 OA
ATOM     11  H   ALA A   1      -0.823   1.931   0.425  0.00  0.00    +0.295 HD
ENDBRANCH   9  10
ENDBRANCH   1   9
TORSDOF 3
