REMARK  Name = 447628
REMARK  4 active torsions:
REMARK  status: ('A' for Active; 'I' for Inactive)
REMARK    1  A    between atoms: C_1  and  N_9
REMARK    2  A    between atoms: C_4  and  C_19
REMARK    3  A    between atoms: C_6  and  O_17
REMARK    4  A    between atoms: C_19  and  O_20
REMARK                            x       y       z     vdW  Elec       q    Type
REMARK                         _______ _______ _______ _____ _____    ______ ____
ROOT
ATOM      1  C   UNL     1       0.696   0.702  -0.142  0.00  0.00    +0.068 C 
ATOM      2  C   UNL     1       1.552   0.046  -1.171  0.00  0.00    +0.024 C 
ATOM      3  C   UNL     1       1.190   1.501  -1.318  0.00  0.00    +0.020 C 
ATOM      4  C   UNL     1       2.841  -0.404  -0.519  0.00  0.00    +0.058 C 
ATOM      5  C   UNL     1       1.420   0.676   1.175  0.00  0.00    +0.048 C 
ATOM      6  C   UNL     1       2.881   0.342   0.835  0.00  0.00    +0.115 C 
ENDROOT
BRANCH   1   9
ATOM      7  O   UNL     1      -1.355   2.656   0.014  0.00  0.00    -0.252 OA
ATOM      8  O   UNL     1      -4.636  -0.566   0.206  0.00  0.00    -0.270 OA
ATOM      9  N   UNL     1      -0.705   0.418  -0.060  0.00  0.00    -0.245 N 
ATOM     10  N   UNL     1      -2.984   1.040   0.106  0.00  0.00    -0.236 N 
ATOM     11  C   UNL     1      -1.112  -0.908  -0.044  0.00  0.00    +0.069 C 
ATOM     12  C   UNL     1      -1.653   1.459   0.017  0.00  0.00    +0.314 C 
ATOM     13  C   UNL     1      -2.387  -1.307   0.041  0.00  0.00    +0.047 C 
ATOM     14  C   UNL     1      -3.447  -0.267   0.126  0.00  0.00    +0.250 C 
ATOM     15  C   UNL     1      -2.808  -2.741   0.060  0.00  0.00    +0.037 C 
ATOM     16  H   UNL     1      -3.666   1.748   0.161  0.00  0.00    +0.159 HD
ENDBRANCH   1   9
BRANCH   6  17
ATOM     17  O   UNL     1       3.610   1.560   0.699  0.00  0.00    -0.384 OA
ATOM     18  H   UNL     1       4.535   1.361   0.484  0.00  0.00    +0.210 HD
ENDBRANCH   6  17
BRANCH   4  19
ATOM     19  C   UNL     1       2.836  -1.917  -0.311  0.00  0.00    +0.140 C 
BRANCH  19  20
ATOM     20  O   UNL     1       4.061  -2.291   0.289  0.00  0.00    -0.382 OA
ATOM     21  H   UNL     1       4.073  -3.251   0.427  0.00  0.00    +0.210 HD
ENDBRANCH  19  20
ENDBRANCH   4  19
TORSDOF 4
