REMARK  Name = 447735
REMARK  4 active torsions:
REMARK  status: ('A' for Active; 'I' for Inactive)
REMARK    1  A    between atoms: N_2  and  C_13
REMARK    2  A    between atoms: C_3  and  C_18
REMARK    3  A    between atoms: C_7  and  C_15
REMARK    4  A    between atoms: C_26  and  C_30
REMARK                            x       y       z     vdW  Elec       q    Type
REMARK                         _______ _______ _______ _____ _____    ______ ____
ROOT
ATOM      1  O   UNL     1       0.152  -2.516   0.391  0.00  0.00    -0.270 OA
ATOM      2  N   UNL     1      -0.871  -0.414   0.136  0.00  0.00    -0.280 N 
ATOM      3  C   UNL     1       0.209  -1.298   0.264  0.00  0.00    +0.249 C 
ATOM      4  H   UNL     1      -0.640   0.538   0.042  0.00  0.00    +0.155 HD
ENDROOT
BRANCH   2  13
ATOM      5  N   UNL     1      -6.815   0.757  -0.464  0.00  0.00    -0.274 NA
ATOM      6  C   UNL     1      -4.533  -0.009  -0.023  0.00  0.00    +0.010 C 
ATOM      7  C   UNL     1      -5.594   1.024  -0.136  0.00  0.00    +0.053 C 
ATOM      8  C   UNL     1      -4.957  -1.340   0.087  0.00  0.00    -0.019 C 
ATOM      9  C   UNL     1      -6.428  -1.629   0.099  0.00  0.00    +0.053 C 
ATOM     10  C   UNL     1      -7.144  -0.632  -0.803  0.00  0.00    +0.130 C 
ATOM     11  C   UNL     1      -3.172   0.304  -0.011  0.00  0.00    +0.016 C 
ATOM     12  C   UNL     1      -4.008  -2.356   0.237  0.00  0.00    -0.003 C 
ATOM     13  C   UNL     1      -2.232  -0.719   0.123  0.00  0.00    +0.051 C 
ATOM     14  C   UNL     1      -2.649  -2.044   0.250  0.00  0.00    +0.014 C 
BRANCH   7  15
ATOM     15  C   UNL     1      -5.241   2.463   0.152  0.00  0.00    +0.040 C 
ATOM     16  C   UNL     1      -4.756   3.110  -1.133  0.00  0.00    +0.006 C 
ATOM     17  C   UNL     1      -6.457   3.171   0.722  0.00  0.00    +0.006 C 
ENDBRANCH   7  15
ENDBRANCH   2  13
BRANCH   3  18
ATOM     18  C   UNL     1       1.554  -0.664   0.270  0.00  0.00    +0.054 C 
ATOM     19  C   UNL     1       3.914  -0.813  -0.167  0.00  0.00    +0.000 C 
ATOM     20  C   UNL     1       4.064   0.521   0.280  0.00  0.00    +0.000 C 
ATOM     21  C   UNL     1       2.637  -1.398  -0.167  0.00  0.00    +0.005 C 
ATOM     22  C   UNL     1       1.672   0.634   0.710  0.00  0.00    +0.005 C 
ATOM     23  C   UNL     1       2.933   1.232   0.716  0.00  0.00    +0.000 C 
ATOM     24  C   UNL     1       5.341   1.106   0.280  0.00  0.00    +0.003 C 
ATOM     25  C   UNL     1       5.045  -1.522  -0.602  0.00  0.00    +0.000 C 
ATOM     26  C   UNL     1       6.454   0.386  -0.156  0.00  0.00    +0.031 C 
ATOM     27  C   UNL     1       6.306  -0.926  -0.596  0.00  0.00    +0.003 C 
BRANCH  26  30
ATOM     28  N   UNL     1       8.899   0.313  -0.580  0.00  0.00    -0.343 N 
ATOM     29  N   UNL     1       7.908   2.251   0.271  0.00  0.00    -0.285 NA
ATOM     30  C   UNL     1       7.769   1.006  -0.151  0.00  0.00    +0.117 C 
ATOM     31  H   UNL     1       9.780   0.753  -0.568  0.00  0.00    +0.144 HD
ATOM     32  H   UNL     1       8.817  -0.616  -0.895  0.00  0.00    +0.144 HD
ATOM     33  H   UNL     1       8.798   2.673   0.276  0.00  0.00    +0.188 HD
ENDBRANCH  26  30
ENDBRANCH   3  18
TORSDOF 4
