REMARK  Name = 5287869
REMARK  10 active torsions:
REMARK  status: ('A' for Active; 'I' for Inactive)
REMARK    1  A    between atoms: N_2  and  C_20
REMARK    2  A    between atoms: C_3  and  C_6
REMARK    3  A    between atoms: C_6  and  C_7
REMARK    4  A    between atoms: C_7  and  C_10
REMARK    5  A    between atoms: N_9  and  C_12
REMARK    6  A    between atoms: C_12  and  C_13
REMARK    7  A    between atoms: C_13  and  C_15
REMARK    8  A    between atoms: C_20  and  C_23
REMARK    9  A    between atoms: C_20  and  C_26
REMARK   10  A    between atoms: C_26  and  C_27
REMARK                            x       y       z     vdW  Elec       q    Type
REMARK                         _______ _______ _______ _____ _____    ______ ____
ROOT
ATOM      1  O   UNL     1       2.268   1.918   1.658  0.00  0.00    -0.267 OA
ATOM      2  N   UNL     1       2.155   0.792  -0.396  0.00  0.00    -0.292 N 
ATOM      3  C   UNL     1       1.748   1.671   0.581  0.00  0.00    +0.282 C 
ATOM      4  H   UNL     1       1.613   0.714  -1.215  0.00  0.00    +0.150 HD
ENDROOT
BRANCH   3   6
ATOM      5  O   UNL     1       0.602   3.650   0.139  0.00  0.00    -0.286 OA
ATOM      6  C   UNL     1       0.509   2.434   0.212  0.00  0.00    +0.235 C 
BRANCH   6   7
ATOM      7  C   UNL     1      -0.735   1.624  -0.051  0.00  0.00    +0.159 C 
BRANCH   7  10
ATOM      8  O   UNL     1      -2.122   3.138   1.209  0.00  0.00    -0.275 OA
ATOM      9  N   UNL     1      -3.082   1.926  -0.522  0.00  0.00    -0.304 N 
ATOM     10  C   UNL     1      -2.033   2.327   0.290  0.00  0.00    +0.231 C 
ATOM     11  H   UNL     1      -2.907   1.268  -1.233  0.00  0.00    +0.149 HD
BRANCH   9  12
ATOM     12  C   UNL     1      -4.423   2.439  -0.363  0.00  0.00    +0.096 C 
BRANCH  12  13
ATOM     13  C   UNL     1      -5.261   1.600   0.598  0.00  0.00    +0.067 C 
BRANCH  13  15
ATOM     14  N   UNL     1      -4.448  -0.696   0.613  0.00  0.00    -0.248 NA
ATOM     15  C   UNL     1      -5.391   0.161   0.163  0.00  0.00    +0.061 C 
ATOM     16  C   UNL     1      -6.445  -0.207  -0.658  0.00  0.00    +0.015 C 
ATOM     17  C   UNL     1      -6.537  -1.541  -1.041  0.00  0.00    +0.003 C 
ATOM     18  C   UNL     1      -4.569  -1.984   0.220  0.00  0.00    +0.098 C 
ATOM     19  C   UNL     1      -5.585  -2.452  -0.598  0.00  0.00    +0.021 C 
ENDBRANCH  13  15
ENDBRANCH  12  13
ENDBRANCH   9  12
ENDBRANCH   7  10
ENDBRANCH   6   7
ENDBRANCH   3   6
BRANCH   2  20
ATOM     20  C   UNL     1       3.343  -0.021  -0.274  0.00  0.00    +0.153 C 
BRANCH  20  23
ATOM     21  O   UNL     1       4.341   1.576  -1.760  0.00  0.00    -0.273 OA
ATOM     22  N   UNL     1       5.731   0.709  -0.123  0.00  0.00    -0.275 N 
ATOM     23  C   UNL     1       4.511   0.816  -0.800  0.00  0.00    +0.244 C 
ATOM     24  C   UNL     1       6.906   1.488  -0.496  0.00  0.00    +0.115 C 
ATOM     25  C   UNL     1       5.924  -0.192   1.010  0.00  0.00    +0.115 C 
ENDBRANCH  20  23
BRANCH  20  26
ATOM     26  C   UNL     1       3.212  -1.319  -1.081  0.00  0.00    +0.055 C 
BRANCH  26  27
ATOM     27  C   UNL     1       2.355  -2.353  -0.392  0.00  0.00    -0.020 C 
ATOM     28  C   UNL     1       2.938  -3.273   0.480  0.00  0.00    -0.004 C 
ATOM     29  C   UNL     1       0.980  -2.389  -0.626  0.00  0.00    -0.004 C 
ATOM     30  C   UNL     1       2.146  -4.229   1.116  0.00  0.00    -0.000 C 
ATOM     31  C   UNL     1       0.189  -3.345   0.011  0.00  0.00    -0.000 C 
ATOM     32  C   UNL     1       0.772  -4.265   0.882  0.00  0.00    -0.000 C 
ENDBRANCH  26  27
ENDBRANCH  20  26
ENDBRANCH   2  20
TORSDOF 10
