REMARK  Name = 78057
REMARK  14 active torsions:
REMARK  status: ('A' for Active; 'I' for Inactive)
REMARK    1  A    between atoms: O_1  and  C_2
REMARK    2  A    between atoms: O_1  and  C_10
REMARK    3  A    between atoms: C_2  and  C_3
REMARK    4  A    between atoms: C_3  and  O_4
REMARK    5  A    between atoms: O_4  and  C_5
REMARK    6  A    between atoms: C_5  and  C_6
REMARK    7  A    between atoms: C_6  and  O_7
REMARK    8  A    between atoms: O_7  and  C_8
REMARK    9  A    between atoms: C_10  and  C_11
REMARK   10  A    between atoms: C_11  and  O_12
REMARK   11  A    between atoms: O_12  and  C_13
REMARK   12  A    between atoms: C_13  and  C_14
REMARK   13  A    between atoms: C_14  and  O_15
REMARK   14  A    between atoms: O_15  and  C_16
REMARK                            x       y       z     vdW  Elec       q    Type
REMARK                         _______ _______ _______ _____ _____    ______ ____
ROOT
ATOM      1  O   UNL     1       0.995  -2.378  -0.082  0.00  0.00    -0.348 OA
ENDROOT
BRANCH   1   2
ATOM      2  C   UNL     1       2.123  -2.638   0.744  0.00  0.00    +0.174 C 
BRANCH   2   3
ATOM      3  C   UNL     1       3.245  -1.691   0.363  0.00  0.00    +0.174 C 
BRANCH   3   4
ATOM      4  O   UNL     1       2.799  -0.353   0.532  0.00  0.00    -0.348 OA
BRANCH   4   5
ATOM      5  C   UNL     1       3.821   0.582   0.209  0.00  0.00    +0.174 C 
BRANCH   5   6
ATOM      6  C   UNL     1       3.288   1.988   0.408  0.00  0.00    +0.174 C 
BRANCH   6   7
ATOM      7  O   UNL     1       2.179   2.190  -0.459  0.00  0.00    -0.351 OA
BRANCH   7   8
ATOM      8  C   UNL     1       1.623   3.488  -0.298  0.00  0.00    +0.142 C 
ATOM      9  C   UNL     1       0.451   3.643  -1.244  0.00  0.00    +0.035 C 
ENDBRANCH   7   8
ENDBRANCH   6   7
ENDBRANCH   5   6
ENDBRANCH   4   5
ENDBRANCH   3   4
ENDBRANCH   2   3
ENDBRANCH   1   2
BRANCH   1  10
ATOM     10  C   UNL     1      -0.090  -3.239   0.232  0.00  0.00    +0.174 C 
BRANCH  10  11
ATOM     11  C   UNL     1      -1.259  -2.915  -0.679  0.00  0.00    +0.174 C 
BRANCH  11  12
ATOM     12  O   UNL     1      -1.655  -1.566  -0.462  0.00  0.00    -0.348 OA
BRANCH  12  13
ATOM     13  C   UNL     1      -2.737  -1.199  -1.308  0.00  0.00    +0.174 C 
BRANCH  13  14
ATOM     14  C   UNL     1      -3.113   0.244  -1.032  0.00  0.00    +0.174 C 
BRANCH  14  15
ATOM     15  O   UNL     1      -3.520   0.366   0.326  0.00  0.00    -0.351 OA
BRANCH  15  16
ATOM     16  C   UNL     1      -3.864   1.706   0.648  0.00  0.00    +0.142 C 
ATOM     17  C   UNL     1      -4.286   1.772   2.100  0.00  0.00    +0.035 C 
ENDBRANCH  15  16
ENDBRANCH  14  15
ENDBRANCH  13  14
ENDBRANCH  12  13
ENDBRANCH  11  12
ENDBRANCH  10  11
ENDBRANCH   1  10
TORSDOF 14
