REMARK  Name = 5288579
REMARK  6 active torsions:
REMARK  status: ('A' for Active; 'I' for Inactive)
REMARK    1  A    between atoms: N9_1  and  C1*_12
REMARK    2  A    between atoms: C6_8  and  O6_23
REMARK    3  A    between atoms: C2*_13  and  O2*_16
REMARK    4  A    between atoms: C3*_14  and  O3*_18
REMARK    5  A    between atoms: C4*_15  and  C5*_20
REMARK    6  A    between atoms: C5*_20  and  O5*_21
REMARK                            x       y       z     vdW  Elec       q    Type
REMARK                         _______ _______ _______ _____ _____    ______ ____
ROOT
ATOM      1  N9  I   A   1       0.114  -0.349   0.661  0.00  0.00    -0.257 N 
ATOM      2  N7  I   A   1       1.623  -2.020  -0.056  0.00  0.00    -0.268 NA
ATOM      3  N3  I   A   1       1.744   1.508   0.537  0.00  0.00    -0.232 NA
ATOM      4  N1  I   A   1       3.974   0.839  -0.150  0.00  0.00    -0.213 NA
ATOM      5  C8  I   A   1       0.211  -1.736   0.203  0.00  0.00    +0.169 C 
ATOM      6  C4  I   A   1       1.376   0.223   0.407  0.00  0.00    +0.132 C 
ATOM      7  C5  I   A   1       2.240  -0.778  -0.023  0.00  0.00    +0.186 C 
ATOM      8  C6  I   A   1       3.541  -0.434  -0.270  0.00  0.00    +0.216 C 
ATOM      9  C2  I   A   1       3.042   1.740   0.244  0.00  0.00    +0.254 C 
ATOM     10  H7  I   A   1       2.041  -2.897  -0.217  0.00  0.00    +0.126 HD
ENDROOT
BRANCH   1  12
ATOM     11  O4* I   A   1      -2.193  -0.453   1.029  0.00  0.00    -0.333 OA
ATOM     12  C1* I   A   1      -1.099   0.417   0.694  0.00  0.00    +0.224 C 
ATOM     13  C2* I   A   1      -1.433   1.033  -0.654  0.00  0.00    +0.187 C 
ATOM     14  C3* I   A   1      -2.946   1.082  -0.611  0.00  0.00    +0.171 C 
ATOM     15  C4* I   A   1      -3.287  -0.211   0.117  0.00  0.00    +0.175 C 
BRANCH  13  16
ATOM     16  O2* I   A   1      -0.859   2.312  -0.825  0.00  0.00    -0.378 OA
ATOM     17  H2* I   A   1       0.107   2.233  -0.847  0.00  0.00    +0.211 HD
ENDBRANCH  13  16
BRANCH  14  18
ATOM     18  O3* I   A   1      -3.382   2.172   0.201  0.00  0.00    -0.379 OA
ATOM     19  H3* I   A   1      -3.176   3.009  -0.243  0.00  0.00    +0.211 HD
ENDBRANCH  14  18
BRANCH  15  20
ATOM     20  C5* I   A   1      -3.404  -1.412  -0.812  0.00  0.00    +0.169 C 
BRANCH  20  21
ATOM     21  O5* I   A   1      -3.711  -2.557  -0.037  0.00  0.00    -0.379 OA
ATOM     22  H5* I   A   1      -3.788  -3.330  -0.618  0.00  0.00    +0.211 HD
ENDBRANCH  20  21
ENDBRANCH  15  20
ENDBRANCH   1  12
BRANCH   8  23
ATOM     23  O6  I   A   1       4.451  -1.375  -0.657  0.00  0.00    -0.494 OA
ATOM     24  H6  I   A   1       5.339  -1.127  -0.824  0.00  0.00    +0.293 HD
ENDBRANCH   8  23
TORSDOF 6
