REMARK  Name = 448110
REMARK  6 active torsions:
REMARK  status: ('A' for Active; 'I' for Inactive)
REMARK    1  A    between atoms: N_2  and  C_20
REMARK    2  A    between atoms: N_6  and  C_14
REMARK    3  A    between atoms: C_20  and  C_21
REMARK    4  A    between atoms: C_21  and  C_22
REMARK    5  A    between atoms: C_22  and  C_23
REMARK    6  A    between atoms: C_23  and  O_24
REMARK                            x       y       z     vdW  Elec       q    Type
REMARK                         _______ _______ _______ _____ _____    ______ ____
ROOT
ATOM      1  O   UNL     1      -1.179   3.604   0.698  0.00  0.00    -0.208 OA
ATOM      2  N   UNL     1       2.454   1.159  -0.423  0.00  0.00    -0.232 NA
ATOM      3  N   UNL     1       0.288   0.090  -0.710  0.00  0.00    -0.279 N 
ATOM      4  N   UNL     1       1.711   3.127   0.361  0.00  0.00    -0.241 NA
ATOM      5  N   UNL     1      -1.583   1.463  -0.090  0.00  0.00    -0.301 NA
ATOM      6  N   UNL     1      -1.863  -0.731  -0.906  0.00  0.00    -0.275 N 
ATOM      7  C   UNL     1       1.103   1.094  -0.375  0.00  0.00    +0.189 C 
ATOM      8  C   UNL     1       0.660   2.293   0.102  0.00  0.00    +0.183 C 
ATOM      9  C   UNL     1       2.778   2.417   0.036  0.00  0.00    +0.203 C 
ATOM     10  C   UNL     1      -1.074   0.332  -0.545  0.00  0.00    +0.252 C 
ATOM     11  C   UNL     1      -0.759   2.536   0.271  0.00  0.00    +0.224 C 
ATOM     12  H   UNL     1       0.629  -0.767  -1.053  0.00  0.00    +0.152 HD
ATOM     13  H   UNL     1      -1.516  -1.316  -1.618  0.00  0.00    +0.156 HD
ENDROOT
BRANCH   6  14
ATOM     14  C   UNL     1      -3.104  -1.070  -0.369  0.00  0.00    +0.051 C 
ATOM     15  C   UNL     1      -4.067  -1.724  -1.154  0.00  0.00    +0.015 C 
ATOM     16  C   UNL     1      -3.414  -0.763   0.965  0.00  0.00    +0.015 C 
ATOM     17  C   UNL     1      -5.309  -2.062  -0.617  0.00  0.00    +0.001 C 
ATOM     18  C   UNL     1      -4.656  -1.101   1.501  0.00  0.00    +0.001 C 
ATOM     19  C   UNL     1      -5.604  -1.751   0.710  0.00  0.00    +0.000 C 
ENDBRANCH   6  14
BRANCH   2  20
ATOM     20  C   UNL     1       3.379   0.143  -0.858  0.00  0.00    +0.076 C 
BRANCH  20  21
ATOM     21  C   UNL     1       3.848  -0.789   0.262  0.00  0.00    +0.020 C 
BRANCH  21  22
ATOM     22  C   UNL     1       4.875  -1.820  -0.206  0.00  0.00    +0.033 C 
BRANCH  22  23
ATOM     23  C   UNL     1       5.287  -2.754   0.924  0.00  0.00    +0.137 C 
BRANCH  23  24
ATOM     24  O   UNL     1       6.228  -3.693   0.424  0.00  0.00    -0.382 OA
ATOM     25  H   UNL     1       6.496  -4.293   1.137  0.00  0.00    +0.210 HD
ENDBRANCH  23  24
ENDBRANCH  22  23
ENDBRANCH  21  22
ENDBRANCH  20  21
ENDBRANCH   2  20
TORSDOF 6
