REMARK  Name = 56069
REMARK  8 active torsions:
REMARK  status: ('A' for Active; 'I' for Inactive)
REMARK    1  A    between atoms: N_2  and  C_5
REMARK    2  A    between atoms: C_3  and  C_17
REMARK    3  A    between atoms: C_8  and  C_14
REMARK    4  A    between atoms: C_9  and  C_16
REMARK    5  A    between atoms: C_17  and  O_19
REMARK    6  A    between atoms: C_17  and  C_21
REMARK    7  A    between atoms: C_21  and  S_22
REMARK    8  A    between atoms: S_22  and  C_26
REMARK                            x       y       z     vdW  Elec       q    Type
REMARK                         _______ _______ _______ _____ _____    ______ ____
ROOT
ATOM      1  O   UNL     1      -0.117  -3.029  -0.778  0.00  0.00    -0.272 OA
ATOM      2  N   UNL     1      -0.680  -1.291   0.686  0.00  0.00    -0.282 N 
ATOM      3  C   UNL     1       0.117  -2.322   0.201  0.00  0.00    +0.252 C 
ATOM      4  H   UNL     1      -0.344  -0.821   1.483  0.00  0.00    +0.155 HD
ENDROOT
BRANCH   2   5
ATOM      5  C   UNL     1      -1.917  -0.837   0.169  0.00  0.00    +0.050 C 
ATOM      6  C   UNL     1      -2.569   0.212   0.794  0.00  0.00    +0.019 C 
ATOM      7  C   UNL     1      -2.449  -1.453  -0.951  0.00  0.00    +0.015 C 
ATOM      8  C   UNL     1      -3.788   0.659   0.284  0.00  0.00    +0.082 C 
ATOM      9  C   UNL     1      -4.338   0.050  -0.844  0.00  0.00    +0.072 C 
ATOM     10  C   UNL     1      -3.668  -1.006  -1.462  0.00  0.00    +0.011 C 
BRANCH   8  14
ATOM     11  F   UNL     1      -3.796   2.266   2.057  0.00  0.00    -0.166 F 
ATOM     12  F   UNL     1      -4.671   2.879   0.169  0.00  0.00    -0.166 F 
ATOM     13  F   UNL     1      -5.713   1.450   1.434  0.00  0.00    -0.166 F 
ATOM     14  C   UNL     1      -4.477   1.794   0.973  0.00  0.00    +0.419 C 
ENDBRANCH   8  14
BRANCH   9  16
ATOM     15  N   UNL     1      -6.599   0.846  -1.825  0.00  0.00    -0.191 NA
ATOM     16  C   UNL     1      -5.587   0.490  -1.386  0.00  0.00    +0.100 C 
ENDBRANCH   9  16
ENDBRANCH   2   5
BRANCH   3  17
ATOM     17  C   UNL     1       1.399  -2.528   1.029  0.00  0.00    +0.179 C 
ATOM     18  C   UNL     1       1.050  -2.871   2.482  0.00  0.00    +0.041 C 
BRANCH  17  19
ATOM     19  O   UNL     1       2.097  -3.648   0.486  0.00  0.00    -0.377 OA
ATOM     20  H   UNL     1       2.911  -3.799   0.992  0.00  0.00    +0.211 HD
ENDBRANCH  17  19
BRANCH  17  21
ATOM     21  C   UNL     1       2.346  -1.326   0.982  0.00  0.00    +0.191 C 
BRANCH  21  22
ATOM     22  S   UNL     1       2.887  -0.922  -0.653  0.00  0.00    +0.012 S 
ATOM     23  O   UNL     1       1.743  -0.465  -1.420  0.00  0.00    -0.169 OA
ATOM     24  O   UNL     1       3.699  -2.026  -1.133  0.00  0.00    -0.169 OA
BRANCH  22  26
ATOM     25  F   UNL     1       6.407   3.717   0.125  0.00  0.00    -0.204 F 
ATOM     26  C   UNL     1       3.946   0.473  -0.418  0.00  0.00    +0.106 C 
ATOM     27  C   UNL     1       5.297   0.267  -0.197  0.00  0.00    +0.021 C 
ATOM     28  C   UNL     1       3.405   1.747  -0.460  0.00  0.00    +0.021 C 
ATOM     29  C   UNL     1       6.133   1.368  -0.013  0.00  0.00    +0.031 C 
ATOM     30  C   UNL     1       4.241   2.848  -0.276  0.00  0.00    +0.031 C 
ATOM     31  C   UNL     1       5.605   2.659  -0.053  0.00  0.00    +0.140 C 
ENDBRANCH  22  26
ENDBRANCH  21  22
ENDBRANCH  17  21
ENDBRANCH   3  17
TORSDOF 8
