REMARK  Name = 6581
REMARK  2 active torsions:
REMARK  status: ('A' for Active; 'I' for Inactive)
REMARK    1  A    between atoms: C_2  and  O_3
REMARK    2  A    between atoms: C_2  and  C_5
REMARK                            x       y       z     vdW  Elec       q    Type
REMARK                         _______ _______ _______ _____ _____    ______ ____
ROOT
ATOM      1  O   UNL     1      -0.654   1.285   0.000  0.00  0.00    -0.245 OA
ATOM      2  C   UNL     1      -0.528   0.069   0.000  0.00  0.00    +0.338 C 
ENDROOT
BRANCH   2   3
ATOM      3  O   UNL     1      -1.560  -0.803   0.000  0.00  0.00    -0.477 OA
ATOM      4  H   UNL     1      -1.394  -1.725   0.000  0.00  0.00    +0.295 HD
ENDBRANCH   2   3
BRANCH   2   5
ATOM      5  C   UNL     1       0.787  -0.599   0.001  0.00  0.00    +0.082 C 
ATOM      6  C   UNL     1       1.956   0.049   0.000  0.00  0.00    +0.007 C 
ENDBRANCH   2   5
TORSDOF 2
