REMARK  Name = 440901
REMARK  10 active torsions:
REMARK  status: ('A' for Active; 'I' for Inactive)
REMARK    1  A    between atoms: C_1  and  O_2
REMARK    2  A    between atoms: C_1  and  CA_4
REMARK    3  A    between atoms: C_1  and  C_13
REMARK    4  A    between atoms: CA_4  and  N_5
REMARK    5  A    between atoms: CA_4  and  C_10
REMARK    6  A    between atoms: C_10  and  O_11
REMARK    7  A    between atoms: C_13  and  O_14
REMARK    8  A    between atoms: O_14  and  P_15
REMARK    9  A    between atoms: P_15  and  O_17
REMARK   10  A    between atoms: P_15  and  O_19
REMARK                            x       y       z     vdW  Elec       q    Type
REMARK                         _______ _______ _______ _____ _____    ______ ____
ROOT
ATOM      1  C   UNL     1       0.819   0.980  -0.624  0.00  0.00    +0.131 C 
ENDROOT
BRANCH   1   2
ATOM      2  O   UNL     1       0.891   1.964   0.411  0.00  0.00    -0.383 OA
ATOM      3  H   UNL     1       1.615   2.581   0.221  0.00  0.00    +0.210 HD
ENDBRANCH   1   2
BRANCH   1   4
ATOM      4  CA  UNL     1       2.201   0.318  -0.745  0.00  0.00    +0.066 C 
BRANCH   4   5
ATOM      5  N   UNL     1       2.230  -0.608  -1.878  0.00  0.00    +0.390 N 
ATOM      6  H1  UNL     1       1.975  -0.110  -2.731  0.00  0.00    -0.088 HD
ATOM      7  H2  UNL     1       1.567  -1.365  -1.715  0.00  0.00    -0.088 HD
ATOM      8  H3  UNL     1       3.169  -0.994  -1.978  0.00  0.00    -0.088 HD
ENDBRANCH   4   5
BRANCH   4  10
ATOM      9  OXT UNL     1       2.317  -1.644   0.710  0.00  0.00    -0.253 OA
ATOM     10  C   UNL     1       2.588  -0.469   0.500  0.00  0.00    +0.295 C 
BRANCH  10  11
ATOM     11  O   UNL     1       3.288   0.290   1.383  0.00  0.00    -0.482 OA
ATOM     12  H   UNL     1       3.476   1.186   1.186  0.00  0.00    +0.295 HD
ENDBRANCH  10  11
ENDBRANCH   4  10
ENDBRANCH   1   4
BRANCH   1  13
ATOM     13  C   UNL     1      -0.324   0.010  -0.321  0.00  0.00    +0.181 C 
BRANCH  13  14
ATOM     14  O   UNL     1      -1.549   0.728  -0.195  0.00  0.00    -0.271 OA
BRANCH  14  15
ATOM     15  P   UNL     1      -2.894  -0.106   0.127  0.00  0.00    +0.473 P 
ATOM     16  O   UNL     1      -4.142   0.719   0.244  0.00  0.00    -0.227 OA
BRANCH  15  17
ATOM     17  O   UNL     1      -2.509  -0.969   1.439  0.00  0.00    -0.303 OA
ATOM     18  H   UNL     1      -1.694  -1.467   1.271  0.00  0.00    +0.222 HD
ENDBRANCH  15  17
BRANCH  15  19
ATOM     19  O   UNL     1      -2.916  -1.213  -1.052  0.00  0.00    -0.303 OA
ATOM     20  H   UNL     1      -2.075  -1.698  -1.057  0.00  0.00    +0.222 HD
ENDBRANCH  15  19
ENDBRANCH  14  15
ENDBRANCH  13  14
ENDBRANCH   1  13
TORSDOF 10
