REMARK  Name = 131704211
REMARK  11 active torsions:
REMARK  status: ('A' for Active; 'I' for Inactive)
REMARK    1  A    between atoms: N_2  and  C_5
REMARK    2  A    between atoms: C_3  and  C_21
REMARK    3  A    between atoms: C_5  and  C_8
REMARK    4  A    between atoms: C_5  and  O_17
REMARK    5  A    between atoms: C_5  and  C_20
REMARK    6  A    between atoms: CA_11  and  C_14
REMARK    7  A    between atoms: C_14  and  O_15
REMARK    8  A    between atoms: C_21  and  C_22
REMARK    9  A    between atoms: C_21  and  C_31
REMARK   10  A    between atoms: C_27  and  O_28
REMARK   11  A    between atoms: C_31  and  O_32
REMARK                            x       y       z     vdW  Elec       q    Type
REMARK                         _______ _______ _______ _____ _____    ______ ____
ROOT
ATOM      1  O   UNL     1       1.562   1.979   1.227  0.00  0.00    -0.274 OA
ATOM      2  N   UNL     1       0.369   0.812  -0.396  0.00  0.00    -0.276 N 
ATOM      3  C   UNL     1       1.514   1.353   0.171  0.00  0.00    +0.239 C 
ATOM      4  H   UNL     1       0.470   0.331  -1.250  0.00  0.00    +0.152 HD
ENDROOT
BRANCH   2   5
ATOM      5  C   UNL     1      -0.972   0.898   0.170  0.00  0.00    +0.259 C 
BRANCH   5   8
ATOM      6  O   UNL     1      -1.691  -1.094  -0.911  0.00  0.00    -0.326 OA
ATOM      7  N   UNL     1      -3.353   0.542  -0.039  0.00  0.00    -0.233 NA
ATOM      8  C   UNL     1      -2.062   0.277  -0.695  0.00  0.00    +0.271 C 
ATOM      9  C   UNL     1      -2.710  -1.774  -1.643  0.00  0.00    +0.173 C 
ATOM     10  C   UNL     1      -4.013  -1.680  -0.909  0.00  0.00    +0.031 C 
ATOM     11  CA  UNL     1      -4.217  -0.406  -0.164  0.00  0.00    +0.152 C 
ATOM     12  C   UNL     1      -4.916  -2.669  -0.901  0.00  0.00    -0.000 C 
BRANCH  11  14
ATOM     13  OXT UNL     1      -5.724  -0.496   1.656  0.00  0.00    -0.243 OA
ATOM     14  C   UNL     1      -5.518  -0.161   0.510  0.00  0.00    +0.355 C 
BRANCH  14  15
ATOM     15  O   UNL     1      -6.341   0.460  -0.342  0.00  0.00    -0.476 OA
ATOM     16  H   UNL     1      -6.052   0.663  -1.210  0.00  0.00    +0.295 HD
ENDBRANCH  14  15
ENDBRANCH  11  14
ENDBRANCH   5   8
BRANCH   5  17
ATOM     17  O   UNL     1      -1.256   2.257   0.527  0.00  0.00    -0.329 OA
ATOM     18  C   UNL     1      -1.360   3.167  -0.560  0.00  0.00    +0.177 C 
ENDBRANCH   5  17
BRANCH   5  20
ATOM     19  O   UNL     1      -1.872   0.211   2.322  0.00  0.00    -0.284 OA
ATOM     20  C   UNL     1      -0.932   0.231   1.533  0.00  0.00    +0.258 C 
ENDBRANCH   5  20
ENDBRANCH   2   5
BRANCH   3  21
ATOM     21  C   UNL     1       2.760   1.087  -0.675  0.00  0.00    +0.197 C 
BRANCH  21  22
ATOM     22  C   UNL     1       3.379  -0.248  -0.290  0.00  0.00    -0.003 C 
ATOM     23  C   UNL     1       3.460  -1.276  -1.230  0.00  0.00    -0.000 C 
ATOM     24  C   UNL     1       3.868  -0.443   1.002  0.00  0.00    -0.000 C 
ATOM     25  C   UNL     1       4.028  -2.500  -0.877  0.00  0.00    +0.036 C 
ATOM     26  C   UNL     1       4.436  -1.667   1.355  0.00  0.00    +0.036 C 
ATOM     27  C   UNL     1       4.516  -2.695   0.415  0.00  0.00    +0.134 C 
BRANCH  27  28
ATOM     28  O   UNL     1       5.072  -3.889   0.759  0.00  0.00    -0.506 OA
ATOM     29  H   UNL     1       5.126  -4.580   0.129  0.00  0.00    +0.292 HD
ENDBRANCH  27  28
ENDBRANCH  21  22
BRANCH  21  31
ATOM     30  O   UNL     1       4.946   2.114  -0.291  0.00  0.00    -0.249 OA
ATOM     31  C   UNL     1       3.777   2.220  -0.639  0.00  0.00    +0.326 C 
BRANCH  31  32
ATOM     32  O   UNL     1       3.251   3.392  -1.084  0.00  0.00    -0.480 OA
ATOM     33  H   UNL     1       2.351   3.434  -1.341  0.00  0.00    +0.295 HD
ENDBRANCH  31  32
ENDBRANCH  21  31
ENDBRANCH   3  21
TORSDOF 11
