448326
  -OEChem-10051719583D

 49 51  0     1  0  0  0  0  0999 V2000
   -1.6429   -0.4966   -0.4811 O   0  0  0  0  0  0  0  0  0  0  0  0
    2.5051   -1.4897   -1.6079 O   0  0  0  0  0  0  0  0  0  0  0  0
   -2.1458   -2.2331    0.9441 O   0  0  0  0  0  0  0  0  0  0  0  0
    8.0344    0.0542    0.9800 O   0  0  0  0  0  0  0  0  0  0  0  0
   -7.7762    0.4451   -0.2976 O   0  0  0  0  0  0  0  0  0  0  0  0
   -0.1796    2.7448   -0.0716 N   0  0  0  0  0  0  0  0  0  0  0  0
    1.9157    0.4927   -0.5614 N   0  0  0  0  0  0  0  0  0  0  0  0
    0.5237    0.4767   -0.9542 C   0  0  1  0  0  0  0  0  0  0  0  0
   -0.3206   -0.3538    0.0275 C   0  0  1  0  0  0  0  0  0  0  0  0
   -0.3452    0.1802    1.4631 C   0  0  0  0  0  0  0  0  0  0  0  0
    0.0186    1.8968   -1.2443 C   0  0  0  0  0  0  0  0  0  0  0  0
   -1.2450    1.3841    1.7481 C   0  0  0  0  0  0  0  0  0  0  0  0
   -1.4080    2.4212    0.6408 C   0  0  0  0  0  0  0  0  0  0  0  0
    2.7947   -0.5077   -0.9295 C   0  0  0  0  0  0  0  0  0  0  0  0
   -2.4718   -1.2804    0.2531 C   0  0  0  0  0  0  0  0  0  0  0  0
    4.1836   -0.3588   -0.4239 C   0  0  0  0  0  0  0  0  0  0  0  0
   -3.8769   -0.8229    0.1075 C   0  0  0  0  0  0  0  0  0  0  0  0
    4.9505   -1.4905   -0.2397 C   0  0  0  0  0  0  0  0  0  0  0  0
    4.6623    0.9067   -0.1543 C   0  0  0  0  0  0  0  0  0  0  0  0
   -4.7527   -1.0138    1.1564 C   0  0  0  0  0  0  0  0  0  0  0  0
   -4.2633   -0.2210   -1.0727 C   0  0  0  0  0  0  0  0  0  0  0  0
    6.2545   -1.3506    0.2353 C   0  0  0  0  0  0  0  0  0  0  0  0
    5.9664    1.0467    0.3207 C   0  0  0  0  0  0  0  0  0  0  0  0
    6.7625   -0.0820    0.5154 C   0  0  0  0  0  0  0  0  0  0  0  0
   -6.0726   -0.5843    1.0194 C   0  0  0  0  0  0  0  0  0  0  0  0
   -5.5833    0.2087   -1.2097 C   0  0  0  0  0  0  0  0  0  0  0  0
   -6.4880    0.0271   -0.1636 C   0  0  0  0  0  0  0  0  0  0  0  0
    0.4747   -0.0448   -1.9209 H   0  0  0  0  0  0  0  0  0  0  0  0
    0.1314   -1.3558    0.0591 H   0  0  0  0  0  0  0  0  0  0  0  0
    0.6783    0.4313    1.7693 H   0  0  0  0  0  0  0  0  0  0  0  0
   -0.6430   -0.6177    2.1549 H   0  0  0  0  0  0  0  0  0  0  0  0
    0.7570    2.3949   -1.8866 H   0  0  0  0  0  0  0  0  0  0  0  0
   -0.9020    1.8524   -1.8407 H   0  0  0  0  0  0  0  0  0  0  0  0
   -2.2438    1.0303    2.0312 H   0  0  0  0  0  0  0  0  0  0  0  0
   -0.8518    1.8832    2.6440 H   0  0  0  0  0  0  0  0  0  0  0  0
   -2.2074    2.1263   -0.0495 H   0  0  0  0  0  0  0  0  0  0  0  0
   -1.7753    3.3406    1.1149 H   0  0  0  0  0  0  0  0  0  0  0  0
   -0.2509    3.7093   -0.3986 H   0  0  0  0  0  0  0  0  0  0  0  0
    2.1958    1.2167    0.0916 H   0  0  0  0  0  0  0  0  0  0  0  0
    4.5683   -2.4854   -0.4479 H   0  0  0  0  0  0  0  0  0  0  0  0
    4.0889    1.8118   -0.3256 H   0  0  0  0  0  0  0  0  0  0  0  0
   -4.4398   -1.4846    2.0836 H   0  0  0  0  0  0  0  0  0  0  0  0
   -3.5826   -0.0790   -1.9067 H   0  0  0  0  0  0  0  0  0  0  0  0
    6.8641   -2.2378    0.3844 H   0  0  0  0  0  0  0  0  0  0  0  0
    6.3595    2.0379    0.5301 H   0  0  0  0  0  0  0  0  0  0  0  0
   -6.7675   -0.7308    1.8421 H   0  0  0  0  0  0  0  0  0  0  0  0
   -5.9018    0.6817   -2.1347 H   0  0  0  0  0  0  0  0  0  0  0  0
    8.4387   -0.8272    1.0548 H   0  0  0  0  0  0  0  0  0  0  0  0
   -8.2607    0.2402    0.5205 H   0  0  0  0  0  0  0  0  0  0  0  0
  1  9  1  0  0  0  0
  1 15  1  0  0  0  0
  2 14  2  0  0  0  0
  3 15  2  0  0  0  0
  4 24  1  0  0  0  0
  4 48  1  0  0  0  0
  5 27  1  0  0  0  0
  5 49  1  0  0  0  0
  6 11  1  0  0  0  0
  6 13  1  0  0  0  0
  6 38  1  0  0  0  0
  7  8  1  0  0  0  0
  7 14  1  0  0  0  0
  7 39  1  0  0  0  0
  8  9  1  0  0  0  0
  8 11  1  0  0  0  0
  8 28  1  0  0  0  0
  9 10  1  0  0  0  0
  9 29  1  0  0  0  0
 10 12  1  0  0  0  0
 10 30  1  0  0  0  0
 10 31  1  0  0  0  0
 11 32  1  0  0  0  0
 11 33  1  0  0  0  0
 12 13  1  0  0  0  0
 12 34  1  0  0  0  0
 12 35  1  0  0  0  0
 13 36  1  0  0  0  0
 13 37  1  0  0  0  0
 14 16  1  0  0  0  0
 15 17  1  0  0  0  0
 16 18  2  0  0  0  0
 16 19  1  0  0  0  0
 17 20  2  0  0  0  0
 17 21  1  0  0  0  0
 18 22  1  0  0  0  0
 18 40  1  0  0  0  0
 19 23  2  0  0  0  0
 19 41  1  0  0  0  0
 20 25  1  0  0  0  0
 20 42  1  0  0  0  0
 21 26  2  0  0  0  0
 21 43  1  0  0  0  0
 22 24  2  0  0  0  0
 22 44  1  0  0  0  0
 23 24  1  0  0  0  0
 23 45  1  0  0  0  0
 25 27  2  0  0  0  0
 25 46  1  0  0  0  0
 26 27  1  0  0  0  0
 26 47  1  0  0  0  0
M  END
> <DATABASE_ID>
DB02611

> <DATABASE_NAME>
drugbank

> <ORIGINAL_SOURCE>
PUBCHEM

> <ORIGINAL_SOURCE_URL>
https://pubchem.ncbi.nlm.nih.gov/rest/pug/compound/inchikey/FZJQHARRQUNVGZ-QZTJIDSGSA-N/SDF?record_type=3d

> <SMILES>
[H][C@]1(CNCCC[C@@]1([H])OC(=O)C1=CC=C(O)C=C1)NC(=O)C1=CC=C(O)C=C1

> <INCHI_IDENTIFIER>
InChI=1S/C20H22N2O5/c23-15-7-3-13(4-8-15)19(25)22-17-12-21-11-1-2-18(17)27-20(26)14-5-9-16(24)10-6-14/h3-10,17-18,21,23-24H,1-2,11-12H2,(H,22,25)/t17-,18-/m1/s1

> <INCHI_KEY>
FZJQHARRQUNVGZ-QZTJIDSGSA-N

> <FORMULA>
C20H22N2O5

> <MOLECULAR_WEIGHT>
370.3991

> <EXACT_MASS>
370.152871824

> <JCHEM_ACCEPTOR_COUNT>
5

> <JCHEM_AVERAGE_POLARIZABILITY>
38.59844940707389

> <JCHEM_BIOAVAILABILITY>
1

> <JCHEM_DONOR_COUNT>
4

> <JCHEM_FORMAL_CHARGE>
0

> <JCHEM_GHOSE_FILTER>
1

> <JCHEM_IUPAC>
(3R,4R)-3-(4-hydroxybenzamido)azepan-4-yl 4-hydroxybenzoate

> <ALOGPS_LOGP>
1.37

> <JCHEM_LOGP>
1.0258540394898685

> <ALOGPS_LOGS>
-3.55

> <JCHEM_MDDR_LIKE_RULE>
0

> <JCHEM_NUMBER_OF_RINGS>
3

> <JCHEM_PHYSIOLOGICAL_CHARGE>
1

> <JCHEM_PKA>
8.740063363778726

> <JCHEM_PKA_STRONGEST_ACIDIC>
8.16676498564726

> <JCHEM_PKA_STRONGEST_BASIC>
9.66515872070089

> <JCHEM_POLAR_SURFACE_AREA>
107.89

> <JCHEM_REFRACTIVITY>
99.71499999999999

> <JCHEM_ROTATABLE_BOND_COUNT>
5

> <JCHEM_RULE_OF_FIVE>
1

> <ALOGPS_SOLUBILITY>
1.04e-01 g/l

> <JCHEM_TRADITIONAL_IUPAC>
balanol analog 1

> <JCHEM_VEBER_RULE>
0

> <DRUGBANK_ID>
DB02611

> <SECONDARY_ACCESSION_NUMBERS>
EXPT00607

> <DRUG_GROUPS>
experimental

> <GENERIC_NAME>
Balanol Analog 1

$$$$
