REMARK  Name = 449125
REMARK  5 active torsions:
REMARK  status: ('A' for Active; 'I' for Inactive)
REMARK    1  A    between atoms: C_1  and  C_15
REMARK    2  A    between atoms: C_2  and  N_8
REMARK    3  A    between atoms: C_9  and  C_12
REMARK    4  A    between atoms: C_12  and  O_13
REMARK    5  A    between atoms: C_15  and  N_16
REMARK                            x       y       z     vdW  Elec       q    Type
REMARK                         _______ _______ _______ _____ _____    ______ ____
ROOT
ATOM      1  C   UNL     1      -2.837  -0.006   0.251  0.00  0.00    -0.044 C 
ATOM      2  C   UNL     1      -0.079   0.382   0.086  0.00  0.00    +0.051 C 
ATOM      3  C   UNL     1      -2.318   1.286   0.172  0.00  0.00    -0.005 C 
ATOM      4  C   UNL     1      -1.977  -1.104   0.248  0.00  0.00    -0.005 C 
ATOM      5  C   UNL     1      -0.939   1.480   0.089  0.00  0.00    +0.014 C 
ATOM      6  C   UNL     1      -0.599  -0.911   0.166  0.00  0.00    +0.014 C 
ENDROOT
BRANCH   2   8
ATOM      7  O   UNL     1       2.200  -1.609   0.041  0.00  0.00    -0.263 OA
ATOM      8  N   UNL     1       1.300   0.576   0.004  0.00  0.00    -0.275 N 
ATOM      9  C   UNL     1       2.300  -0.394  -0.012  0.00  0.00    +0.325 C 
ATOM     10  H   UNL     1       1.603   1.511  -0.050  0.00  0.00    +0.155 HD
BRANCH   9  12
ATOM     11  O   UNL     1       3.891   1.406  -0.168  0.00  0.00    -0.240 OA
ATOM     12  C   UNL     1       3.688   0.210  -0.112  0.00  0.00    +0.393 C 
BRANCH  12  13
ATOM     13  O   UNL     1       4.615  -0.760  -0.125  0.00  0.00    -0.474 OA
ATOM     14  H   UNL     1       4.354  -1.659  -0.077  0.00  0.00    +0.296 HD
ENDBRANCH  12  13
ENDBRANCH   9  12
ENDBRANCH   2   8
BRANCH   1  15
ATOM     15  C   UNL     1      -4.311  -0.213   0.339  0.00  0.00    -0.059 C 
BRANCH  15  16
ATOM     16  N   UNL     1      -4.935  -0.344  -0.979  0.00  0.00    +0.383 N 
ATOM     17  H   UNL     1      -5.940  -0.483  -0.867  0.00  0.00    -0.089 HD
ATOM     18  H   UNL     1      -4.533  -1.144  -1.467  0.00  0.00    -0.089 HD
ATOM     19  H   UNL     1      -4.768   0.504  -1.520  0.00  0.00    -0.089 HD
ENDBRANCH  15  16
ENDBRANCH   1  15
TORSDOF 5
