REMARK  Name = 5289295
REMARK  3 active torsions:
REMARK  status: ('A' for Active; 'I' for Inactive)
REMARK    1  A    between atoms: C_1  and  N_10
REMARK    2  A    between atoms: N_10  and  C_13
REMARK    3  A    between atoms: C_13  and  C_14
REMARK                            x       y       z     vdW  Elec       q    Type
REMARK                         _______ _______ _______ _____ _____    ______ ____
ROOT
ATOM      1  C   UNL     1      -0.322  -0.344  -0.908  0.00  0.00    -0.033 C 
ATOM      2  C   UNL     1      -0.147  -1.871  -0.751  0.00  0.00    -0.012 C 
ATOM      3  C   UNL     1       0.843  -2.092   0.405  0.00  0.00    +0.024 C 
ATOM      4  C   UNL     1       1.026   0.133  -0.444  0.00  0.00    -0.045 C 
ATOM      5  C   UNL     1       1.685  -0.860   0.296  0.00  0.00    -0.028 C 
ATOM      6  C   UNL     1       1.608   1.374  -0.646  0.00  0.00    -0.007 C 
ATOM      7  C   UNL     1       2.930  -0.627   0.855  0.00  0.00    -0.005 C 
ATOM      8  C   UNL     1       2.870   1.612  -0.097  0.00  0.00    -0.000 C 
ATOM      9  C   UNL     1       3.525   0.619   0.649  0.00  0.00    -0.000 C 
ENDROOT
BRANCH   1  10
ATOM     10  N   UNL     1      -1.407   0.157  -0.072  0.00  0.00    +0.397 N 
ATOM     11  C   UNL     1      -1.436   1.621  -0.083  0.00  0.00    -0.099 C 
ATOM     12  H   UNL     1      -1.239  -0.158   0.883  0.00  0.00    -0.078 HD
BRANCH  10  13
ATOM     13  C   UNL     1      -2.696  -0.377  -0.520  0.00  0.00    +0.003 C 
BRANCH  13  14
ATOM     14  C   UNL     1      -3.790   0.124   0.317  0.00  0.00    -0.101 C 
ATOM     15  C   UNL     1      -4.690   0.531   0.999  0.00  0.00    -0.016 C 
ENDBRANCH  13  14
ENDBRANCH  10  13
ENDBRANCH   1  10
TORSDOF 3
