REMARK  Name = 1188
REMARK  0 active torsions:
REMARK  status: ('A' for Active; 'I' for Inactive)
REMARK                            x       y       z     vdW  Elec       q    Type
REMARK                         _______ _______ _______ _____ _____    ______ ____
ROOT
ATOM      1  O   UNL     1      -0.209  -2.660   0.000  0.00  0.00    -0.266 OA
ATOM      2  O   UNL     1      -2.995   1.053   0.001  0.00  0.00    -0.247 OA
ATOM      3  N   UNL     1      -0.717   1.416   0.000  0.00  0.00    -0.294 N 
ATOM      4  N   UNL     1       2.079  -0.666   0.000  0.00  0.00    -0.310 N 
ATOM      5  N   UNL     1      -1.597  -0.797   0.000  0.00  0.00    -0.273 N 
ATOM      6  N   UNL     1       1.728   1.542   0.000  0.00  0.00    -0.302 N 
ATOM      7  C   UNL     1       0.725  -0.495   0.000  0.00  0.00    +0.133 A 
ATOM      8  C   UNL     1       0.545   0.865   0.000  0.00  0.00    +0.129 A 
ATOM      9  C   UNL     1      -0.347  -1.441   0.000  0.00  0.00    +0.277 A 
ATOM     10  C   UNL     1      -1.850   0.597   0.000  0.00  0.00    +0.328 A 
ATOM     11  C   UNL     1       2.639   0.588   0.000  0.00  0.00    +0.183 C 
ATOM     12  H   UNL     1      -0.823   2.395   0.000  0.00  0.00    +0.172 HD
ATOM     13  H   UNL     1       2.561  -1.524   0.001  0.00  0.00    +0.149 HD
ATOM     14  H   UNL     1      -2.388  -1.382  -0.001  0.00  0.00    +0.173 HD
ATOM     15  H   UNL     1       1.870   2.516   0.000  0.00  0.00    +0.150 HD
ENDROOT
TORSDOF 0
