REMARK  Name = 145815
REMARK  6 active torsions:
REMARK  status: ('A' for Active; 'I' for Inactive)
REMARK    1  A    between atoms: CA_1  and  N_2
REMARK    2  A    between atoms: CA_1  and  C_7
REMARK    3  A    between atoms: CA_1  and  CB_10
REMARK    4  A    between atoms: C_7  and  O_8
REMARK    5  A    between atoms: CB_10  and  CG_11
REMARK    6  A    between atoms: CG_11  and  CD_14
REMARK                            x       y       z     vdW  Elec       q    Type
REMARK                         _______ _______ _______ _____ _____    ______ ____
ROOT
ATOM      1  CA  GLN A   1      -1.384   0.769   0.483  0.00  0.00    +0.036 C 
ENDROOT
BRANCH   1   2
ATOM      2  N   GLN A   1      -1.668   1.808  -0.506  0.00  0.00    +0.389 N 
ATOM      3  H1  GLN A   1      -1.239   2.685  -0.210  0.00  0.00    -0.088 HD
ATOM      4  H2  GLN A   1      -2.677   1.933  -0.588  0.00  0.00    -0.088 HD
ATOM      5  H3  GLN A   1      -1.285   1.531  -1.410  0.00  0.00    -0.088 HD
ENDBRANCH   1   2
BRANCH   1   7
ATOM      6  OXT GLN A   1      -2.613  -0.680  -1.050  0.00  0.00    -0.253 OA
ATOM      7  C   GLN A   1      -2.033  -0.522   0.017  0.00  0.00    +0.293 C 
BRANCH   7   8
ATOM      8  O   GLN A   1      -1.885  -1.524   0.923  0.00  0.00    -0.482 OA
ATOM      9  H   GLN A   1      -1.434  -1.364   1.729  0.00  0.00    +0.295 HD
ENDBRANCH   7   8
ENDBRANCH   1   7
BRANCH   1  10
ATOM     10  CB  GLN A   1       0.126   0.633   0.741  0.00  0.00    -0.001 C 
BRANCH  10  11
ATOM     11  CG  GLN A   1       0.968   0.101  -0.425  0.00  0.00    +0.083 C 
BRANCH  11  14
ATOM     12  OE1 GLN A   1       2.884   0.130   1.031  0.00  0.00    -0.275 OA
ATOM     13  NE2 GLN A   1       3.178  -0.596  -1.132  0.00  0.00    -0.329 N 
ATOM     14  CD  GLN A   1       2.426  -0.119  -0.083  0.00  0.00    +0.219 C 
ATOM     15 HE21 GLN A   1       4.139  -0.772  -1.009  0.00  0.00    +0.145 HD
ATOM     16 HE22 GLN A   1       2.754  -0.763  -2.005  0.00  0.00    +0.145 HD
ENDBRANCH  11  14
ENDBRANCH  10  11
ENDBRANCH   1  10
TORSDOF 6
