REMARK  Name = 4357
REMARK  2 active torsions:
REMARK  status: ('A' for Active; 'I' for Inactive)
REMARK    1  A    between atoms: N_2  and  C_14
REMARK    2  A    between atoms: N_3  and  C_8
REMARK                            x       y       z     vdW  Elec       q    Type
REMARK                         _______ _______ _______ _____ _____    ______ ____
ROOT
ATOM      1  O   UNL     1      -0.263   1.695  -0.290  0.00  0.00    -0.252 OA
ATOM      2  N   UNL     1      -1.744  -0.077  -0.395  0.00  0.00    -0.290 N 
ATOM      3  N   UNL     1       0.499  -0.523  -0.205  0.00  0.00    -0.268 N 
ATOM      4  C   UNL     1      -0.466   0.484  -0.294  0.00  0.00    +0.304 C 
ATOM      5  H   UNL     1      -1.827  -1.058  -0.393  0.00  0.00    +0.151 HD
ATOM      6  H   UNL     1       0.163  -1.448  -0.224  0.00  0.00    +0.156 HD
ENDROOT
BRANCH   3   8
ATOM      7  I   UNL     1       6.706   0.136   0.303  0.00  0.00    -0.043 I 
ATOM      8  C   UNL     1       1.901  -0.374  -0.090  0.00  0.00    +0.052 C 
ATOM      9  C   UNL     1       2.699  -1.504  -0.013  0.00  0.00    +0.015 C 
ATOM     10  C   UNL     1       2.447   0.899  -0.056  0.00  0.00    +0.015 C 
ATOM     11  C   UNL     1       4.082  -1.357   0.099  0.00  0.00    +0.007 C 
ATOM     12  C   UNL     1       3.830   1.046   0.057  0.00  0.00    +0.007 C 
ATOM     13  C   UNL     1       4.647  -0.082   0.134  0.00  0.00    +0.030 C 
ENDBRANCH   3   8
BRANCH   2  14
ATOM     14  C   UNL     1      -2.948   0.717  -0.503  0.00  0.00    +0.073 C 
ATOM     15  C   UNL     1      -4.006   0.000  -1.349  0.00  0.00    +0.020 C 
ATOM     16  C   UNL     1      -3.495   1.078   0.882  0.00  0.00    +0.020 C 
ATOM     17  C   UNL     1      -4.617  -1.200  -0.626  0.00  0.00    +0.002 C 
ATOM     18  C   UNL     1      -4.107  -0.124   1.601  0.00  0.00    +0.002 C 
ATOM     19  C   UNL     1      -5.165  -0.813   0.745  0.00  0.00    +0.000 C 
ENDBRANCH   2  14
TORSDOF 2
