REMARK  Name = 446325
REMARK  6 active torsions:
REMARK  status: ('A' for Active; 'I' for Inactive)
REMARK    1  A    between atoms: C_1  and  N_13
REMARK    2  A    between atoms: C_2  and  N_8
REMARK    3  A    between atoms: C_4  and  C_22
REMARK    4  A    between atoms: C_14  and  C_16
REMARK    5  A    between atoms: C_16  and  N_17
REMARK    6  A    between atoms: C_22  and  O_23
REMARK                            x       y       z     vdW  Elec       q    Type
REMARK                         _______ _______ _______ _____ _____    ______ ____
ROOT
ATOM      1  C   UNL     1       0.052   0.311   0.001  0.00  0.00    +0.064 C 
ATOM      2  C   UNL     1      -1.207  -0.289   0.000  0.00  0.00    +0.064 C 
ATOM      3  C   UNL     1       1.202  -0.479   0.001  0.00  0.00    +0.022 C 
ATOM      4  C   UNL     1       1.092  -1.869   0.000  0.00  0.00    +0.077 C 
ATOM      5  C   UNL     1      -1.317  -1.679  -0.001  0.00  0.00    +0.016 C 
ATOM      6  C   UNL     1      -0.167  -2.470  -0.001  0.00  0.00    +0.008 C 
ENDROOT
BRANCH   2   8
ATOM      7  O   UNL     1      -4.101  -1.122   0.002  0.00  0.00    -0.275 OA
ATOM      8  N   UNL     1      -2.373   0.482   0.000  0.00  0.00    -0.283 N 
ATOM      9  C   UNL     1      -3.700   0.038  -0.001  0.00  0.00    +0.227 C 
ATOM     10  C   UNL     1      -4.673   1.190  -0.001  0.00  0.00    +0.095 C 
ATOM     11  H   UNL     1      -2.245   1.458   0.000  0.00  0.00    +0.155 HD
ENDBRANCH   2   8
BRANCH   1  13
ATOM     12  O   UNL     1       2.518   2.029  -0.002  0.00  0.00    -0.277 OA
ATOM     13  N   UNL     1       0.187   1.703   0.001  0.00  0.00    -0.285 N 
ATOM     14  C   UNL     1       1.369   2.458   0.002  0.00  0.00    +0.204 C 
ATOM     15  H   UNL     1      -0.652   2.217   0.002  0.00  0.00    +0.155 HD
BRANCH  14  16
ATOM     16  C   UNL     1       1.066   3.939   0.003  0.00  0.00    +0.001 C 
BRANCH  16  17
ATOM     17  N   UNL     1       2.308   4.749  -0.002  0.00  0.00    +0.386 N 
ATOM     18  H   UNL     1       2.067   5.740  -0.001  0.00  0.00    -0.089 HD
ATOM     19  H   UNL     1       2.852   4.532  -0.837  0.00  0.00    -0.089 HD
ATOM     20  H   UNL     1       2.858   4.532   0.829  0.00  0.00    -0.089 HD
ENDBRANCH  16  17
ENDBRANCH  14  16
ENDBRANCH   1  13
BRANCH   4  22
ATOM     21  O   UNL     1       3.450  -2.271   0.000  0.00  0.00    -0.245 OA
ATOM     22  C   UNL     1       2.290  -2.694   0.000  0.00  0.00    +0.338 C 
BRANCH  22  23
ATOM     23  O   UNL     1       2.005  -4.025   0.000  0.00  0.00    -0.477 OA
ATOM     24  H   UNL     1       1.114  -4.314   0.000  0.00  0.00    +0.295 HD
ENDBRANCH  22  23
ENDBRANCH   4  22
TORSDOF 6
