REMARK  Name = 289
REMARK  2 active torsions:
REMARK  status: ('A' for Active; 'I' for Inactive)
REMARK    1  A    between atoms: C_1  and  O_7
REMARK    2  A    between atoms: C_2  and  O_9
REMARK                            x       y       z     vdW  Elec       q    Type
REMARK                         _______ _______ _______ _____ _____    ______ ____
ROOT
ATOM      1  C   UNL     1       0.613   0.697   0.000  0.00  0.00    +0.167 C 
ATOM      2  C   UNL     1       0.613  -0.697   0.000  0.00  0.00    +0.167 C 
ATOM      3  C   UNL     1      -0.595   1.395   0.000  0.00  0.00    +0.040 C 
ATOM      4  C   UNL     1      -0.595  -1.395   0.000  0.00  0.00    +0.040 C 
ATOM      5  C   UNL     1      -1.803   0.697   0.000  0.00  0.00    +0.003 C 
ATOM      6  C   UNL     1      -1.803  -0.697   0.000  0.00  0.00    +0.003 C 
ENDROOT
BRANCH   1   7
ATOM      7  O   UNL     1       1.786   1.390   0.000  0.00  0.00    -0.503 OA
ATOM      8  H   UNL     1       2.602   0.930   0.000  0.00  0.00    +0.292 HD
ENDBRANCH   1   7
BRANCH   2   9
ATOM      9  O   UNL     1       1.786  -1.390   0.000  0.00  0.00    -0.503 OA
ATOM     10  H   UNL     1       2.602  -0.929   0.000  0.00  0.00    +0.292 HD
ENDBRANCH   2   9
TORSDOF 2
