REMARK  Name = 439216
REMARK  2 active torsions:
REMARK  status: ('A' for Active; 'I' for Inactive)
REMARK    1  A    between atoms: CA_5  and  C_12
REMARK    2  A    between atoms: C_12  and  O_13
REMARK                            x       y       z     vdW  Elec       q    Type
REMARK                         _______ _______ _______ _____ _____    ______ ____
ROOT
ATOM      1  O   UNL     1      -1.270  -2.481  -0.482  0.00  0.00    -0.275 OA
ATOM      2  O   UNL     1      -2.053   2.045  -0.160  0.00  0.00    -0.252 OA
ATOM      3  N   UNL     1      -0.122   1.215   0.760  0.00  0.00    -0.280 N 
ATOM      4  N   UNL     1      -1.602  -0.202  -0.381  0.00  0.00    -0.240 N 
ATOM      5  CA  UNL     1       0.834   0.141   0.897  0.00  0.00    +0.182 C 
ATOM      6  C   UNL     1       0.172  -1.222   0.962  0.00  0.00    +0.117 C 
ATOM      7  C   UNL     1      -0.941  -1.378  -0.049  0.00  0.00    +0.232 C 
ATOM      8  C   UNL     1      -1.307   1.090   0.057  0.00  0.00    +0.307 C 
ATOM      9  H   UNL     1       0.079   2.078   1.188  0.00  0.00    +0.151 HD
ATOM     10  H   UNL     1      -2.365  -0.289  -0.997  0.00  0.00    +0.159 HD
ENDROOT
BRANCH   5  12
ATOM     11  OXT UNL     1       1.471   0.627  -1.398  0.00  0.00    -0.248 OA
ATOM     12  C   UNL     1       1.772   0.259  -0.265  0.00  0.00    +0.332 C 
BRANCH  12  13
ATOM     13  O   UNL     1       3.046  -0.094   0.060  0.00  0.00    -0.479 OA
ATOM     14  H   UNL     1       3.247  -0.371   0.932  0.00  0.00    +0.295 HD
ENDBRANCH  12  13
ENDBRANCH   5  12
TORSDOF 2
