REMARK  Name = 5287547
REMARK  0 active torsions:
REMARK  status: ('A' for Active; 'I' for Inactive)
REMARK                            x       y       z     vdW  Elec       q    Type
REMARK                         _______ _______ _______ _____ _____    ______ ____
ROOT
ATOM      1  N   UNL     1      -1.162  -1.435   0.000  0.00  0.00    -0.271 NA
ATOM      2  N   UNL     1      -2.106   0.585   0.000  0.00  0.00    -0.307 N 
ATOM      3  N   UNL     1       1.975   0.485   0.000  0.00  0.00    -0.251 NA
ATOM      4  N   UNL     1      -0.038   1.864   0.000  0.00  0.00    -0.232 NA
ATOM      5  C   UNL     1      -0.128  -0.542   0.000  0.00  0.00    +0.146 C 
ATOM      6  C   UNL     1       1.248  -0.655   0.000  0.00  0.00    +0.055 C 
ATOM      7  C   UNL     1      -0.739   0.704   0.000  0.00  0.00    +0.123 C 
ATOM      8  C   UNL     1       1.978  -1.952  -0.001  0.00  0.00    +0.049 C 
ATOM      9  C   UNL     1      -2.326  -0.713   0.000  0.00  0.00    +0.163 C 
ATOM     10  C   UNL     1       1.297   1.658   0.000  0.00  0.00    +0.251 C 
ATOM     11  H   UNL     1      -1.085  -2.416   0.000  0.00  0.00    +0.125 HD
ATOM     12  H   UNL     1      -2.773   1.308   0.000  0.00  0.00    +0.149 HD
ENDROOT
TORSDOF 0
