REMARK  Name = 7504
REMARK  2 active torsions:
REMARK  status: ('A' for Active; 'I' for Inactive)
REMARK    1  A    between atoms: C_1  and  C_7
REMARK    2  A    between atoms: C_7  and  N_8
REMARK                            x       y       z     vdW  Elec       q    Type
REMARK                         _______ _______ _______ _____ _____    ______ ____
ROOT
ATOM      1  C   UNL     1       0.564   0.000   0.273  0.00  0.00    -0.044 C 
ATOM      2  C   UNL     1      -0.122   1.208   0.150  0.00  0.00    -0.006 C 
ATOM      3  C   UNL     1      -0.122  -1.208   0.150  0.00  0.00    -0.006 C 
ATOM      4  C   UNL     1      -1.495   1.208  -0.096  0.00  0.00    -0.000 C 
ATOM      5  C   UNL     1      -1.495  -1.208  -0.096  0.00  0.00    -0.000 C 
ATOM      6  C   UNL     1      -2.182   0.000  -0.219  0.00  0.00    -0.000 C 
ENDROOT
BRANCH   1   7
ATOM      7  C   UNL     1       2.032   0.000   0.536  0.00  0.00    -0.059 C 
BRANCH   7   8
ATOM      8  N   UNL     1       2.820   0.000  -0.698  0.00  0.00    +0.383 N 
ATOM      9  H   UNL     1       3.813   0.000  -0.468  0.00  0.00    -0.089 HD
ATOM     10  H   UNL     1       2.597   0.833  -1.244  0.00  0.00    -0.089 HD
ATOM     11  H   UNL     1       2.597  -0.833  -1.244  0.00  0.00    -0.089 HD
ENDBRANCH   7   8
ENDBRANCH   1   7
TORSDOF 2
