REMARK  Name = 444632
REMARK  6 active torsions:
REMARK  status: ('A' for Active; 'I' for Inactive)
REMARK    1  A    between atoms: C_7  and  C_16
REMARK    2  A    between atoms: C_16  and  O_17
REMARK    3  A    between atoms: C_16  and  C_19
REMARK    4  A    between atoms: C_19  and  O_20
REMARK    5  A    between atoms: C_19  and  C_22
REMARK    6  A    between atoms: C_22  and  O_23
REMARK                            x       y       z     vdW  Elec       q    Type
REMARK                         _______ _______ _______ _____ _____    ______ ____
ROOT
ATOM      1  O   UNL     1       1.424  -2.484  -0.568  0.00  0.00    -0.206 OA
ATOM      2  N   UNL     1      -0.286  -0.433  -0.637  0.00  0.00    -0.391 NA
ATOM      3  N   UNL     1       0.689   2.109   0.048  0.00  0.00    -0.246 NA
ATOM      4  N   UNL     1       2.847   1.121   0.416  0.00  0.00    -0.259 N 
ATOM      5  N   UNL     1       3.217  -1.212   0.103  0.00  0.00    -0.300 NA
ATOM      6  N   UNL     1       4.932   0.236   0.784  0.00  0.00    -0.320 N 
ATOM      7  C   UNL     1      -1.075   0.656  -0.644  0.00  0.00    +0.141 C 
ATOM      8  C   UNL     1       0.996  -0.217  -0.279  0.00  0.00    +0.255 C 
ATOM      9  C   UNL     1      -0.597   1.904  -0.308  0.00  0.00    +0.183 C 
ATOM     10  C   UNL     1       1.497   1.028   0.062  0.00  0.00    +0.173 C 
ATOM     11  C   UNL     1       1.895  -1.393  -0.259  0.00  0.00    +0.240 C 
ATOM     12  C   UNL     1       3.633  -0.011   0.416  0.00  0.00    +0.249 C 
ATOM     13  H   UNL     1       3.234   1.991   0.664  0.00  0.00    +0.157 HD
ATOM     14  H   UNL     1       5.213   1.151   1.013  0.00  0.00    +0.146 HD
ATOM     15  H   UNL     1       5.583  -0.502   0.818  0.00  0.00    +0.146 HD
ENDROOT
BRANCH   7  16
ATOM     16  C   UNL     1      -2.501   0.473  -1.032  0.00  0.00    +0.190 C 
BRANCH  16  17
ATOM     17  O   UNL     1      -2.607  -0.538  -2.050  0.00  0.00    -0.376 OA
ATOM     18  H   UNL     1      -3.538  -0.651  -2.297  0.00  0.00    +0.211 HD
ENDBRANCH  16  17
BRANCH  16  19
ATOM     19  C   UNL     1      -3.472   0.111   0.121  0.00  0.00    +0.173 C 
BRANCH  19  20
ATOM     20  O   UNL     1      -3.530   1.199   1.045  0.00  0.00    -0.379 OA
ATOM     21  H   UNL     1      -3.789   2.008   0.576  0.00  0.00    +0.211 HD
ENDBRANCH  19  20
BRANCH  19  22
ATOM     22  C   UNL     1      -3.065  -1.158   0.866  0.00  0.00    +0.169 C 
BRANCH  22  23
ATOM     23  O   UNL     1      -3.996  -1.390   1.918  0.00  0.00    -0.379 OA
ATOM     24  H   UNL     1      -3.747  -2.195   2.399  0.00  0.00    +0.211 HD
ENDBRANCH  22  23
ENDBRANCH  19  22
ENDBRANCH  16  19
ENDBRANCH   7  16
TORSDOF 6
