REMARK  Name = 5288206
REMARK  4 active torsions:
REMARK  status: ('A' for Active; 'I' for Inactive)
REMARK    1  A    between atoms: C_3  and  C_12
REMARK    2  A    between atoms: C_4  and  C_16
REMARK    3  A    between atoms: C_6  and  C_18
REMARK    4  A    between atoms: C_18  and  O_19
REMARK                            x       y       z     vdW  Elec       q    Type
REMARK                         _______ _______ _______ _____ _____    ______ ____
ROOT
ATOM      1  S   UNK     1      -0.456  -0.716   2.132  0.00  0.00    -0.102 S 
ATOM      2  N   UNK     1      -2.037  -0.984  -0.716  0.00  0.00    -0.306 N 
ATOM      3  C   UNK     1       0.767  -1.046   0.827  0.00  0.00    +0.117 C 
ATOM      4  C   UNK     1       0.235  -1.878  -0.313  0.00  0.00    +0.050 C 
ATOM      5  C   UNK     1      -0.969  -1.823  -0.904  0.00  0.00    +0.062 C 
ATOM      6  C   UNK     1      -2.234   0.023   0.195  0.00  0.00    +0.131 C 
ATOM      7  C   UNK     1      -1.635   0.283   1.367  0.00  0.00    +0.053 C 
ATOM      8  H   UNK     1      -2.786  -1.127  -1.337  0.00  0.00    +0.152 HD
ENDROOT
BRANCH   3  12
ATOM      9  N   UNK     1       2.348   1.933  -0.509  0.00  0.00    -0.162 NA
ATOM     10  N   UNK     1       2.604   0.617   1.174  0.00  0.00    -0.153 NA
ATOM     11  N   UNK     1       3.093   1.703   0.585  0.00  0.00    -0.063 NA
ATOM     12  C   UNK     1       1.551   0.185   0.427  0.00  0.00    +0.089 C 
ATOM     13  C   UNK     1       1.365   1.002  -0.650  0.00  0.00    +0.139 C 
ATOM     14  C   UNK     1       2.633   3.051  -1.371  0.00  0.00    +0.115 C 
ENDBRANCH   3  12
BRANCH   4  16
ATOM     15  O   UNK     1       2.267  -3.077  -0.424  0.00  0.00    -0.283 OA
ATOM     16  C   UNK     1       1.139  -2.907  -0.857  0.00  0.00    +0.232 C 
ENDBRANCH   4  16
BRANCH   6  18
ATOM     17  O   UNK     1      -3.981   1.563   0.670  0.00  0.00    -0.244 OA
ATOM     18  C   UNK     1      -3.303   0.981  -0.147  0.00  0.00    +0.352 C 
BRANCH  18  19
ATOM     19  O   UNK     1      -3.386   1.089  -1.486  0.00  0.00    -0.476 OA
ATOM     20  H   UNK     1      -2.811   0.592  -2.034  0.00  0.00    +0.295 HD
ENDBRANCH  18  19
ENDBRANCH   6  18
TORSDOF 4
