REMARK  Name = 65249
REMARK  5 active torsions:
REMARK  status: ('A' for Active; 'I' for Inactive)
REMARK    1  A    between atoms: CA_1  and  N_3
REMARK    2  A    between atoms: CA_1  and  C_8
REMARK    3  A    between atoms: CA_1  and  CB_11
REMARK    4  A    between atoms: C_8  and  O_9
REMARK    5  A    between atoms: CB_11  and  OG_12
REMARK                            x       y       z     vdW  Elec       q    Type
REMARK                         _______ _______ _______ _____ _____    ______ ____
ROOT
ATOM      1  CA  SER A   1       0.426  -0.078   0.507  0.00  0.00    +0.201 C 
ENDROOT
BRANCH   1   3
ATOM      2  O   UNK A   0      -2.378   0.052   1.250  0.00  0.00    -0.275 OA
ATOM      3  N   SER A   1      -0.700   0.168  -0.360  0.00  0.00    -0.295 N 
ATOM      4  C   UNK A   0      -2.010   0.212   0.089  0.00  0.00    +0.223 C 
ATOM      5  C   UNK A   0      -2.985   0.510  -1.018  0.00  0.00    +0.095 C 
ATOM      6  H   SER A   1      -0.529   0.311  -1.319  0.00  0.00    +0.150 HD
ENDBRANCH   1   3
BRANCH   1   8
ATOM      7  OXT SER A   1       1.832   0.882  -1.233  0.00  0.00    -0.248 OA
ATOM      8  C   SER A   1       1.599   0.704  -0.044  0.00  0.00    +0.334 C 
BRANCH   8   9
ATOM      9  O   SER A   1       2.415   1.158   0.943  0.00  0.00    -0.479 OA
ATOM     10  H   SER A   1       2.198   0.999   1.841  0.00  0.00    +0.295 HD
ENDBRANCH   8   9
ENDBRANCH   1   8
BRANCH   1  11
ATOM     11  CB  SER A   1       0.761  -1.560   0.586  0.00  0.00    +0.168 C 
BRANCH  11  12
ATOM     12  OG  SER A   1       1.040  -2.046  -0.721  0.00  0.00    -0.380 OA
ATOM     13  H   SER A   1       1.254  -2.991  -0.676  0.00  0.00    +0.211 HD
ENDBRANCH  11  12
ENDBRANCH   1  11
TORSDOF 5
