REMARK  Name = 193758
REMARK  6 active torsions:
REMARK  status: ('A' for Active; 'I' for Inactive)
REMARK    1  A    between atoms: C_1  and  O_11
REMARK    2  A    between atoms: C_2  and  O_13
REMARK    3  A    between atoms: C_3  and  N_7
REMARK    4  A    between atoms: C_4  and  O_15
REMARK    5  A    between atoms: C_5  and  C_17
REMARK    6  A    between atoms: C_17  and  O_18
REMARK                            x       y       z     vdW  Elec       q    Type
REMARK                         _______ _______ _______ _____ _____    ______ ____
ROOT
ATOM      1  C   UNL     1       1.679  -0.388  -0.300  0.00  0.00    +0.124 C 
ATOM      2  C   UNL     1       0.715  -1.469   0.208  0.00  0.00    +0.166 C 
ATOM      3  C   UNL     1       1.460   0.950   0.439  0.00  0.00    -0.013 C 
ATOM      4  C   UNL     1      -0.759  -1.035   0.103  0.00  0.00    +0.160 C 
ATOM      5  C   UNL     1      -1.001   0.417   0.453  0.00  0.00    +0.007 C 
ATOM      6  C   UNL     1       0.004   1.296   0.615  0.00  0.00    -0.050 C 
ENDROOT
BRANCH   3   7
ATOM      7  N   UNL     1       2.191   2.036  -0.219  0.00  0.00    +0.386 N 
ATOM      8  H   UNL     1       3.171   1.772  -0.323  0.00  0.00    -0.089 HD
ATOM      9  H   UNL     1       2.125   2.882   0.346  0.00  0.00    -0.089 HD
ATOM     10  H   UNL     1       1.786   2.210  -1.139  0.00  0.00    -0.089 HD
ENDBRANCH   3   7
BRANCH   1  11
ATOM     11  O   UNL     1       1.520  -0.235  -1.711  0.00  0.00    -0.384 OA
ATOM     12  H   UNL     1       1.663  -1.090  -2.147  0.00  0.00    +0.210 HD
ENDBRANCH   1  11
BRANCH   2  13
ATOM     13  O   UNL     1       1.002  -1.761   1.575  0.00  0.00    -0.379 OA
ATOM     14  H   UNL     1       1.928  -2.037   1.658  0.00  0.00    +0.211 HD
ENDBRANCH   2  13
BRANCH   4  15
ATOM     15  O   UNL     1      -1.226  -1.242  -1.230  0.00  0.00    -0.378 OA
ATOM     16  H   UNL     1      -1.082  -2.168  -1.482  0.00  0.00    +0.211 HD
ENDBRANCH   4  15
BRANCH   5  17
ATOM     17  C   UNL     1      -2.436   0.827   0.635  0.00  0.00    +0.161 C 
BRANCH  17  18
ATOM     18  O   UNL     1      -3.148   0.605  -0.567  0.00  0.00    -0.377 OA
ATOM     19  H   UNL     1      -4.074   0.871  -0.447  0.00  0.00    +0.211 HD
ENDBRANCH  17  18
ENDBRANCH   5  17
TORSDOF 6
