REMARK  Name = 25246035
REMARK  6 active torsions:
REMARK  status: ('A' for Active; 'I' for Inactive)
REMARK    1  A    between atoms: CA_1  and  N_2
REMARK    2  A    between atoms: CA_1  and  C_8
REMARK    3  A    between atoms: CA_1  and  C_9
REMARK    4  A    between atoms: C_9  and  C_10
REMARK    5  A    between atoms: C_10  and  O_11
REMARK    6  A    between atoms: O_11  and  N_12
REMARK                            x       y       z     vdW  Elec       q    Type
REMARK                         _______ _______ _______ _____ _____    ______ ____
ROOT
ATOM      1  CA  UNL     1      -1.054  -0.680   0.528  0.00  0.00    +0.043 C 
ENDROOT
BRANCH   1   2
ATOM      2  N   UNL     1      -1.130  -1.866  -0.382  0.00  0.00    +0.389 N 
ATOM      3  H1  UNL     1      -0.643  -2.654   0.046  0.00  0.00    -0.088 HD
ATOM      4  H2  UNL     1      -0.691  -1.639  -1.274  0.00  0.00    -0.088 HD
ATOM      5  H3  UNL     1      -2.107  -2.114  -0.536  0.00  0.00    -0.088 HD
ENDBRANCH   1   2
BRANCH   1   8
ATOM      6  O   UNL     1      -2.659   0.363  -0.885  0.00  0.00    -0.248 OA
ATOM      7  OXT UNL     1      -1.338   1.672   0.436  0.00  0.00    -0.248 OA
ATOM      8  C   UNL     1      -1.760   0.572  -0.022  0.00  0.00    +0.345 C 
ENDBRANCH   1   8
BRANCH   1   9
ATOM      9  C   UNL     1       0.405  -0.474   0.946  0.00  0.00    +0.023 C 
BRANCH   9  10
ATOM     10  C   UNL     1       1.344  -0.075  -0.190  0.00  0.00    +0.164 C 
BRANCH  10  11
ATOM     11  O   UNL     1       2.660   0.054   0.335  0.00  0.00    -0.289 OA
BRANCH  11  12
ATOM     12  N   UNL     1       3.531   0.434  -0.766  0.00  0.00    -0.214 NA
ATOM     13  H   UNL     1       4.487   0.536  -0.423  0.00  0.00    +0.150 HD
ATOM     14  H   UNL     1       3.215   1.320  -1.160  0.00  0.00    +0.150 HD
ENDBRANCH  11  12
ENDBRANCH  10  11
ENDBRANCH   9  10
ENDBRANCH   1   9
TORSDOF 6
