REMARK  Name = 444764
REMARK  5 active torsions:
REMARK  status: ('A' for Active; 'I' for Inactive)
REMARK    1  A    between atoms: C_1  and  N_8
REMARK    2  A    between atoms: C_2  and  C_16
REMARK    3  A    between atoms: C_9  and  C_12
REMARK    4  A    between atoms: C_12  and  O_13
REMARK    5  A    between atoms: C_16  and  O_17
REMARK                            x       y       z     vdW  Elec       q    Type
REMARK                         _______ _______ _______ _____ _____    ______ ____
ROOT
ATOM      1  C   UNL     1      -0.519   0.447  -0.013  0.00  0.00    +0.057 C 
ATOM      2  C   UNL     1      -1.649  -0.371  -0.038  0.00  0.00    +0.089 C 
ATOM      3  C   UNL     1      -0.662   1.834  -0.004  0.00  0.00    +0.015 C 
ATOM      4  C   UNL     1      -2.922   0.199  -0.053  0.00  0.00    +0.008 C 
ATOM      5  C   UNL     1      -1.935   2.404  -0.020  0.00  0.00    +0.001 C 
ATOM      6  C   UNL     1      -3.065   1.587  -0.044  0.00  0.00    +0.000 C 
ENDROOT
BRANCH   1   8
ATOM      7  O   UNL     1       2.199   1.775   0.043  0.00  0.00    -0.263 OA
ATOM      8  N   UNL     1       0.766  -0.102   0.003  0.00  0.00    -0.275 N 
ATOM      9  C   UNL     1       1.982   0.574   0.029  0.00  0.00    +0.325 C 
ATOM     10  H   UNL     1       0.818  -1.086  -0.004  0.00  0.00    +0.155 HD
BRANCH   9  12
ATOM     11  O   UNL     1       3.053  -1.581   0.026  0.00  0.00    -0.240 OA
ATOM     12  C   UNL     1       3.167  -0.372   0.040  0.00  0.00    +0.393 C 
BRANCH  12  13
ATOM     13  O   UNL     1       4.315   0.324   0.065  0.00  0.00    -0.474 OA
ATOM     14  H   UNL     1       4.295   1.260   0.074  0.00  0.00    +0.296 HD
ENDBRANCH  12  13
ENDBRANCH   9  12
ENDBRANCH   1   8
BRANCH   2  16
ATOM     15  O   UNL     1      -0.603  -2.462  -0.543  0.00  0.00    -0.245 OA
ATOM     16  C   UNL     1      -1.536  -1.824  -0.049  0.00  0.00    +0.339 C 
BRANCH  16  17
ATOM     17  O   UNL     1      -2.591  -2.430   0.558  0.00  0.00    -0.477 OA
ATOM     18  H   UNL     1      -3.282  -1.913   0.922  0.00  0.00    +0.295 HD
ENDBRANCH  16  17
ENDBRANCH   2  16
TORSDOF 5
