REMARK  Name = 6054
REMARK  3 active torsions:
REMARK  status: ('A' for Active; 'I' for Inactive)
REMARK    1  A    between atoms: C_1  and  C_7
REMARK    2  A    between atoms: C_7  and  C_8
REMARK    3  A    between atoms: C_8  and  O_9
REMARK                            x       y       z     vdW  Elec       q    Type
REMARK                         _______ _______ _______ _____ _____    ______ ____
ROOT
ATOM      1  C   UNL     1       0.189  -0.271   0.429  0.00  0.00    -0.020 C 
ATOM      2  C   UNL     1      -0.312   1.026   0.541  0.00  0.00    -0.004 C 
ATOM      3  C   UNL     1      -0.621  -1.291  -0.072  0.00  0.00    -0.004 C 
ATOM      4  C   UNL     1      -1.623   1.304   0.153  0.00  0.00    -0.000 C 
ATOM      5  C   UNL     1      -1.932  -1.013  -0.460  0.00  0.00    -0.000 C 
ATOM      6  C   UNL     1      -2.432   0.284  -0.347  0.00  0.00    -0.000 C 
ENDROOT
BRANCH   1   7
ATOM      7  C   UNL     1       1.591  -0.568   0.844  0.00  0.00    +0.058 C 
BRANCH   7   8
ATOM      8  C   UNL     1       2.599  -0.401  -0.296  0.00  0.00    +0.142 C 
BRANCH   8   9
ATOM      9  O   UNL     1       2.540   0.930  -0.793  0.00  0.00    -0.382 OA
ATOM     10  H   UNL     1       3.180   1.035  -1.515  0.00  0.00    +0.210 HD
ENDBRANCH   8   9
ENDBRANCH   7   8
ENDBRANCH   1   7
TORSDOF 3
