REMARK  Name = 87330
REMARK  7 active torsions:
REMARK  status: ('A' for Active; 'I' for Inactive)
REMARK    1  A    between atoms: C_2  and  O_7
REMARK    2  A    between atoms: C_3  and  O_9
REMARK    3  A    between atoms: C_4  and  O_11
REMARK    4  A    between atoms: C_5  and  C_26
REMARK    5  A    between atoms: C_6  and  O_13
REMARK    6  A    between atoms: O_13  and  C_16
REMARK    7  A    between atoms: C_26  and  O_27
REMARK                            x       y       z     vdW  Elec       q    Type
REMARK                         _______ _______ _______ _____ _____    ______ ____
ROOT
ATOM      1  O   UNL     1      -1.993  -0.840  -0.786  0.00  0.00    -0.316 OA
ATOM      2  C   UNL     1      -4.158   0.846   0.114  0.00  0.00    +0.173 C 
ATOM      3  C   UNL     1      -4.251  -0.681   0.134  0.00  0.00    +0.169 C 
ATOM      4  C   UNL     1      -3.126   1.307  -0.914  0.00  0.00    +0.210 C 
ATOM      5  C   UNL     1      -2.861  -1.320   0.247  0.00  0.00    +0.177 C 
ATOM      6  C   UNL     1      -1.794   0.575  -0.745  0.00  0.00    +0.318 C 
ENDROOT
BRANCH   2   7
ATOM      7  O   UNL     1      -5.439   1.369  -0.244  0.00  0.00    -0.379 OA
ATOM      8  H   UNL     1      -6.099   1.080   0.405  0.00  0.00    +0.211 HD
ENDBRANCH   2   7
BRANCH   3   9
ATOM      9  O   UNL     1      -5.061  -1.058   1.245  0.00  0.00    -0.379 OA
ATOM     10  H   UNL     1      -5.936  -0.648   1.161  0.00  0.00    +0.211 HD
ENDBRANCH   3   9
BRANCH   4  11
ATOM     11  O   UNL     1      -2.935   2.713  -0.793  0.00  0.00    -0.377 OA
ATOM     12  H   UNL     1      -3.786   3.165  -0.902  0.00  0.00    +0.211 HD
ENDBRANCH   4  11
BRANCH   6  13
ATOM     13  O   UNL     1      -1.086   0.987   0.423  0.00  0.00    -0.450 OA
BRANCH  13  16
ATOM     14  O   UNL     1       2.941  -1.488  -0.222  0.00  0.00    -0.421 OA
ATOM     15  O   UNL     1       4.862  -2.689  -0.533  0.00  0.00    -0.244 OA
ATOM     16  C   UNL     1       0.280   0.958   0.355  0.00  0.00    +0.144 C 
ATOM     17  C   UNL     1       0.933  -0.239   0.103  0.00  0.00    +0.075 C 
ATOM     18  C   UNL     1       1.006   2.129   0.539  0.00  0.00    +0.037 C 
ATOM     19  C   UNL     1       3.089   0.910   0.217  0.00  0.00    +0.031 C 
ATOM     20  C   UNL     1       2.328  -0.246   0.037  0.00  0.00    +0.151 C 
ATOM     21  C   UNL     1       2.404   2.106   0.470  0.00  0.00    +0.006 C 
ATOM     22  C   UNL     1       4.552   0.810   0.131  0.00  0.00    -0.012 C 
ATOM     23  C   UNL     1       5.107  -0.384  -0.117  0.00  0.00    +0.078 C 
ATOM     24  C   UNL     1       5.398   2.035   0.319  0.00  0.00    +0.031 C 
ATOM     25  C   UNL     1       4.319  -1.613  -0.308  0.00  0.00    +0.346 C 
ENDBRANCH  13  16
ENDBRANCH   6  13
BRANCH   5  26
ATOM     26  C   UNL     1      -2.916  -2.840   0.111  0.00  0.00    +0.169 C 
BRANCH  26  27
ATOM     27  O   UNL     1      -1.599  -3.349   0.215  0.00  0.00    -0.379 OA
ATOM     28  H   UNL     1      -1.619  -4.315   0.130  0.00  0.00    +0.211 HD
ENDBRANCH  26  27
ENDBRANCH   5  26
TORSDOF 7
