REMARK  Name = 8894
REMARK  0 active torsions:
REMARK  status: ('A' for Active; 'I' for Inactive)
REMARK                            x       y       z     vdW  Elec       q    Type
REMARK                         _______ _______ _______ _____ _____    ______ ____
ROOT
ATOM      1  O   UNL     1      -1.375  -0.001  -0.254  0.00  0.00    -0.354 OA
ATOM      2  C   UNL     1       1.462   0.001   0.210  0.00  0.00    +0.005 C 
ATOM      3  C   UNL     1       0.705  -1.253  -0.215  0.00  0.00    +0.032 C 
ATOM      4  C   UNL     1       0.704   1.254  -0.215  0.00  0.00    +0.032 C 
ATOM      5  C   UNL     1      -0.748  -1.185   0.237  0.00  0.00    +0.142 C 
ATOM      6  C   UNL     1      -0.749   1.184   0.237  0.00  0.00    +0.142 C 
ENDROOT
TORSDOF 0
