REMARK  Name = 65115
REMARK  8 active torsions:
REMARK  status: ('A' for Active; 'I' for Inactive)
REMARK    1  A    between atoms: C_2  and  O_7
REMARK    2  A    between atoms: C_3  and  O_9
REMARK    3  A    between atoms: C_4  and  O_11
REMARK    4  A    between atoms: C_5  and  C_23
REMARK    5  A    between atoms: C_6  and  O_13
REMARK    6  A    between atoms: O_13  and  C_14
REMARK    7  A    between atoms: C_19  and  N_22
REMARK    8  A    between atoms: C_23  and  O_24
REMARK                            x       y       z     vdW  Elec       q    Type
REMARK                         _______ _______ _______ _____ _____    ______ ____
ROOT
ATOM      1  O   UNL     1       1.287  -0.639   0.158  0.00  0.00    -0.316 OA
ATOM      2  C   UNL     1       3.802   0.558  -0.523  0.00  0.00    +0.173 C 
ATOM      3  C   UNL     1       3.678  -0.922  -0.162  0.00  0.00    +0.169 C 
ATOM      4  C   UNL     1       2.664   1.371   0.094  0.00  0.00    +0.210 C 
ATOM      5  C   UNL     1       2.275  -1.427  -0.519  0.00  0.00    +0.177 C 
ATOM      6  C   UNL     1       1.309   0.735  -0.225  0.00  0.00    +0.318 C 
ENDROOT
BRANCH   2   7
ATOM      7  O   UNL     1       5.048   1.073  -0.062  0.00  0.00    -0.379 OA
ATOM      8  H   UNL     1       5.774   0.560  -0.451  0.00  0.00    +0.211 HD
ENDBRANCH   2   7
BRANCH   3   9
ATOM      9  O   UNL     1       3.891  -1.093   1.241  0.00  0.00    -0.379 OA
ATOM     10  H   UNL     1       4.777  -0.776   1.474  0.00  0.00    +0.211 HD
ENDBRANCH   3   9
BRANCH   4  11
ATOM     11  O   UNL     1       2.683   2.692  -0.447  0.00  0.00    -0.377 OA
ATOM     12  H   UNL     1       3.537   3.109  -0.253  0.00  0.00    +0.211 HD
ENDBRANCH   4  11
BRANCH   6  13
ATOM     13  O   UNL     1       0.308   1.452   0.497  0.00  0.00    -0.451 OA
BRANCH  13  14
ATOM     14  C   UNL     1      -0.982   1.026   0.340  0.00  0.00    +0.141 C 
ATOM     15  C   UNL     1      -1.562   1.030  -0.925  0.00  0.00    +0.039 C 
ATOM     16  C   UNL     1      -1.706   0.592   1.447  0.00  0.00    +0.039 C 
ATOM     17  C   UNL     1      -2.877   0.596  -1.085  0.00  0.00    +0.027 C 
ATOM     18  C   UNL     1      -3.022   0.158   1.286  0.00  0.00    +0.027 C 
ATOM     19  C   UNL     1      -3.607   0.159   0.020  0.00  0.00    +0.143 C 
BRANCH  19  22
ATOM     20  O   UNL     1      -5.456  -0.272  -1.289  0.00  0.00    -0.126 OA
ATOM     21  O   UNL     1      -5.585  -0.671   0.866  0.00  0.00    -0.126 OA
ATOM     22  N   UNL     1      -4.947  -0.282  -0.142  0.00  0.00    +0.058 N 
ENDBRANCH  19  22
ENDBRANCH  13  14
ENDBRANCH   6  13
BRANCH   5  23
ATOM     23  C   UNL     1       2.059  -2.879  -0.108  0.00  0.00    +0.169 C 
BRANCH  23  24
ATOM     24  O   UNL     1       0.742  -3.258  -0.463  0.00  0.00    -0.379 OA
ATOM     25  H   UNL     1       0.591  -4.181  -0.207  0.00  0.00    +0.211 HD
ENDBRANCH  23  24
ENDBRANCH   5  23
TORSDOF 8
