REMARK  Name = 964
REMARK  4 active torsions:
REMARK  status: ('A' for Active; 'I' for Inactive)
REMARK    1  A    between atoms: C_2  and  C_4
REMARK    2  A    between atoms: C_2  and  C_7
REMARK    3  A    between atoms: C_4  and  O_5
REMARK    4  A    between atoms: C_7  and  O_8
REMARK                            x       y       z     vdW  Elec       q    Type
REMARK                         _______ _______ _______ _____ _____    ______ ____
ROOT
ATOM      1  O   UNL     1      -0.415  -1.482  -0.009  0.00  0.00    -0.282 OA
ATOM      2  C   UNL     1      -0.249  -0.271   0.010  0.00  0.00    +0.277 C 
ENDROOT
BRANCH   2   4
ATOM      3  O   UNL     1       1.426   1.419  -0.013  0.00  0.00    -0.242 OA
ATOM      4  C   UNL     1       1.165   0.234   0.015  0.00  0.00    +0.376 C 
BRANCH   4   5
ATOM      5  O   UNL     1       2.019  -0.797  -0.003  0.00  0.00    -0.475 OA
ATOM      6  H   UNL     1       1.694  -1.676   0.024  0.00  0.00    +0.296 HD
ENDBRANCH   4   5
ENDBRANCH   2   4
BRANCH   2   7
ATOM      7  C   UNL     1      -1.341   0.766   0.004  0.00  0.00    +0.214 C 
BRANCH   7   8
ATOM      8  O   UNL     1      -2.604   0.131  -0.004  0.00  0.00    -0.375 OA
ATOM      9  H   UNL     1      -3.304   0.803  -0.008  0.00  0.00    +0.211 HD
ENDBRANCH   7   8
ENDBRANCH   2   7
TORSDOF 4
