REMARK  Name = 445037
REMARK  5 active torsions:
REMARK  status: ('A' for Active; 'I' for Inactive)
REMARK    1  A    between atoms: C_2  and  O_7
REMARK    2  A    between atoms: C_3  and  O_9
REMARK    3  A    between atoms: C_4  and  O_11
REMARK    4  A    between atoms: C_6  and  C_14
REMARK    5  A    between atoms: C_14  and  O_15
REMARK                            x       y       z     vdW  Elec       q    Type
REMARK                         _______ _______ _______ _____ _____    ______ ____
ROOT
ATOM      1  O   UNL     1      -0.308  -1.216   0.045  0.00  0.00    -0.444 OA
ATOM      2  C   UNL     1       1.902  -0.205   0.484  0.00  0.00    +0.212 C 
ATOM      3  C   UNL     1       1.346   1.199   0.222  0.00  0.00    +0.169 C 
ATOM      4  C   UNL     1       1.095  -1.280  -0.254  0.00  0.00    +0.315 C 
ATOM      5  C   UNL     1      -0.150   1.188   0.123  0.00  0.00    +0.049 C 
ATOM      6  C   UNL     1      -0.850   0.046   0.070  0.00  0.00    +0.214 C 
ENDROOT
BRANCH   2   7
ATOM      7  O   UNL     1       1.843  -0.491   1.881  0.00  0.00    -0.376 OA
ATOM      8  H   UNL     1       2.348   0.178   2.369  0.00  0.00    +0.211 HD
ENDBRANCH   2   7
BRANCH   3   9
ATOM      9  O   UNL     1       1.882   1.696  -1.001  0.00  0.00    -0.377 OA
ATOM     10  H   UNL     1       2.850   1.707  -0.949  0.00  0.00    +0.211 HD
ENDBRANCH   3   9
BRANCH   4  11
ATOM     11  O   UNL     1       1.332  -1.173  -1.656  0.00  0.00    -0.348 OA
ATOM     12  H   UNL     1       0.822  -1.853  -2.123  0.00  0.00    +0.214 HD
ENDBRANCH   4  11
BRANCH   6  14
ATOM     13  O   UNL     1      -2.934   1.189   0.059  0.00  0.00    -0.242 OA
ATOM     14  C   UNL     1      -2.310   0.143   0.039  0.00  0.00    +0.372 C 
BRANCH  14  15
ATOM     15  O   UNL     1      -2.846  -1.095  -0.013  0.00  0.00    -0.475 OA
ATOM     16  H   UNL     1      -2.288  -1.847  -0.025  0.00  0.00    +0.296 HD
ENDBRANCH  14  15
ENDBRANCH   6  14
TORSDOF 5
