REMARK  Name = 446994
REMARK  12 active torsions:
REMARK  status: ('A' for Active; 'I' for Inactive)
REMARK    1  A    between atoms: C_1  and  C_2
REMARK    2  A    between atoms: C_1  and  C_12
REMARK    3  A    between atoms: C_2  and  S_3
REMARK    4  A    between atoms: S_3  and  C_4
REMARK    5  A    between atoms: C_4  and  C_5
REMARK    6  A    between atoms: C_5  and  C_6
REMARK    7  A    between atoms: C_6  and  C_7
REMARK    8  A    between atoms: C_7  and  C_9
REMARK    9  A    between atoms: C_9  and  O_10
REMARK   10  A    between atoms: C_12  and  N_13
REMARK   11  A    between atoms: C_12  and  C_18
REMARK   12  A    between atoms: C_18  and  O_19
REMARK                            x       y       z     vdW  Elec       q    Type
REMARK                         _______ _______ _______ _____ _____    ______ ____
ROOT
ATOM      1  C   UNK     1      -3.221  -0.306  -1.013  0.00  0.00    +0.001 C 
ENDROOT
BRANCH   1   2
ATOM      2  C   UNK     1      -1.741  -0.698  -1.027  0.00  0.00    +0.056 C 
BRANCH   2   3
ATOM      3  S   UNK     1      -0.663   0.566  -0.315  0.00  0.00    -0.140 S 
BRANCH   3   4
ATOM      4  C   UNK     1       0.925  -0.289  -0.533  0.00  0.00    +0.058 C 
BRANCH   4   5
ATOM      5  C   UNK     1       2.111   0.526  -0.018  0.00  0.00    +0.012 C 
BRANCH   5   6
ATOM      6  C   UNK     1       3.461  -0.184  -0.187  0.00  0.00    +0.013 C 
BRANCH   6   7
ATOM      7  C   UNK     1       4.627   0.651   0.345  0.00  0.00    +0.109 C 
BRANCH   7   9
ATOM      8  O   UNK     1       6.158  -1.113  -0.349  0.00  0.00    -0.250 OA
ATOM      9  C   UNK     1       5.969  -0.030   0.187  0.00  0.00    +0.314 C 
BRANCH   9  10
ATOM     10  O   UNK     1       6.967   0.706   0.742  0.00  0.00    -0.480 OA
ATOM     11  H   UNK     1       6.774   1.531   1.142  0.00  0.00    +0.295 HD
ENDBRANCH   9  10
ENDBRANCH   7   9
ENDBRANCH   6   7
ENDBRANCH   5   6
ENDBRANCH   4   5
ENDBRANCH   3   4
ENDBRANCH   2   3
ENDBRANCH   1   2
BRANCH   1  12
ATOM     12  C   UNK     1      -3.828  -0.065   0.377  0.00  0.00    +0.037 C 
BRANCH  12  13
ATOM     13  N   UNK     1      -3.791  -1.315   1.143  0.00  0.00    +0.389 N 
ATOM     14  H   UNK     1      -2.824  -1.626   1.239  0.00  0.00    -0.088 HD
ATOM     15  H   UNK     1      -4.331  -2.029   0.655  0.00  0.00    -0.088 HD
ATOM     16  H   UNK     1      -4.191  -1.159   2.068  0.00  0.00    -0.088 HD
ENDBRANCH  12  13
BRANCH  12  18
ATOM     17  O   UNK     1      -6.230  -0.327   0.695  0.00  0.00    -0.253 OA
ATOM     18  C   UNK     1      -5.289   0.335   0.275  0.00  0.00    +0.293 C 
BRANCH  18  19
ATOM     19  O   UNK     1      -5.453   1.544  -0.321  0.00  0.00    -0.482 OA
ATOM     20  H   UNK     1      -4.707   2.020  -0.629  0.00  0.00    +0.295 HD
ENDBRANCH  18  19
ENDBRANCH  12  18
ENDBRANCH   1  12
TORSDOF 12
