REMARK  Name = 3396560
REMARK  1 active torsions:
REMARK  status: ('A' for Active; 'I' for Inactive)
REMARK    1  A    between atoms: P_1  and  O_5
REMARK                            x       y       z     vdW  Elec       q    Type
REMARK                         _______ _______ _______ _____ _____    ______ ____
ROOT
ATOM      1  P   UNL     1       0.130   0.037  -0.456  0.00  0.00    +0.200 P 
ATOM      2  O   UNL     1       1.175   0.915   0.184  0.00  0.00    -0.294 OA
ATOM      3  C   UNL     1      -1.505   0.520   0.124  0.00  0.00    +0.093 C 
ATOM      4  H   UNL     1       0.273  -0.574  -1.685  0.00  0.00    +0.128 HD
ENDROOT
BRANCH   1   5
ATOM      5  O   UNL     1       0.201  -1.473   0.147  0.00  0.00    -0.345 OA
ATOM      6  H   UNL     1       0.124  -1.439   1.113  0.00  0.00    +0.217 HD
ENDBRANCH   1   5
TORSDOF 1
