REMARK  Name = 5289076
REMARK  5 active torsions:
REMARK  status: ('A' for Active; 'I' for Inactive)
REMARK    1  A    between atoms: C_2  and  C_14
REMARK    2  A    between atoms: C_4  and  O_8
REMARK    3  A    between atoms: C_6  and  O_10
REMARK    4  A    between atoms: C_7  and  O_12
REMARK    5  A    between atoms: C_14  and  O_15
REMARK                            x       y       z     vdW  Elec       q    Type
REMARK                         _______ _______ _______ _____ _____    ______ ____
ROOT
ATOM      1  O   UNL     1       0.520   1.415   0.830  0.00  0.00    -0.351 OA
ATOM      2  C   UNL     1       0.954   0.159   0.274  0.00  0.00    +0.171 C 
ATOM      3  C   UNL     1       0.442   1.280  -0.591  0.00  0.00    +0.147 C 
ATOM      4  C   UNL     1       0.088  -1.013   0.626  0.00  0.00    +0.169 C 
ATOM      5  C   UNL     1      -0.942   1.254  -1.156  0.00  0.00    +0.064 C 
ATOM      6  C   UNL     1      -1.170  -1.118  -0.249  0.00  0.00    +0.166 C 
ATOM      7  C   UNL     1      -1.864   0.229  -0.484  0.00  0.00    +0.142 C 
ENDROOT
BRANCH   4   8
ATOM      8  O   UNL     1      -0.274  -0.944   2.004  0.00  0.00    -0.379 OA
ATOM      9  H   UNL     1       0.527  -0.878   2.547  0.00  0.00    +0.211 HD
ENDBRANCH   4   8
BRANCH   6  10
ATOM     10  O   UNL     1      -0.823  -1.673  -1.517  0.00  0.00    -0.379 OA
ATOM     11  H   UNL     1      -0.383  -2.527  -1.387  0.00  0.00    +0.211 HD
ENDBRANCH   6  10
BRANCH   7  12
ATOM     12  O   UNL     1      -2.348   0.739   0.755  0.00  0.00    -0.382 OA
ATOM     13  H   UNL     1      -2.786   1.591   0.605  0.00  0.00    +0.210 HD
ENDBRANCH   7  12
BRANCH   2  14
ATOM     14  C   UNL     1       2.425  -0.032   0.396  0.00  0.00    +0.169 C 
BRANCH  14  15
ATOM     15  O   UNL     1       2.991  -0.297  -0.888  0.00  0.00    -0.379 OA
ATOM     16  H   UNL     1       3.949  -0.420  -0.800  0.00  0.00    +0.211 HD
ENDBRANCH  14  15
ENDBRANCH   2  14
TORSDOF 5
