REMARK  Name = 4368
REMARK  8 active torsions:
REMARK  status: ('A' for Active; 'I' for Inactive)
REMARK    1  A    between atoms: N_1  and  C_2
REMARK    2  A    between atoms: N_1  and  S_15
REMARK    3  A    between atoms: N_1  and  C_26
REMARK    4  A    between atoms: C_4  and  C_11
REMARK    5  A    between atoms: N_10  and  O_13
REMARK    6  A    between atoms: S_15  and  C_18
REMARK    7  A    between atoms: C_23  and  O_24
REMARK    8  A    between atoms: C_26  and  C_28
REMARK                            x       y       z     vdW  Elec       q    Type
REMARK                         _______ _______ _______ _____ _____    ______ ____
ROOT
ATOM      1  N   UNL     1       1.161  -0.659  -0.642  0.00  0.00    -0.186 N 
ENDROOT
BRANCH   1   2
ATOM      2  C   UNL     1       0.611  -1.720   0.148  0.00  0.00    +0.070 C 
ATOM      3  C   UNL     1       0.888  -3.047  -0.181  0.00  0.00    -0.007 C 
ATOM      4  C   UNL     1      -0.201  -1.428   1.244  0.00  0.00    +0.070 C 
ATOM      5  C   UNL     1       0.354  -4.082   0.586  0.00  0.00    -0.003 C 
ATOM      6  C   UNL     1      -0.736  -2.464   2.011  0.00  0.00    +0.006 C 
ATOM      7  C   UNL     1       1.755  -3.389  -1.348  0.00  0.00    +0.032 C 
ATOM      8  C   UNL     1      -0.458  -3.790   1.683  0.00  0.00    -0.000 C 
BRANCH   4  11
ATOM      9  O   UNL     1       0.302   0.860   1.394  0.00  0.00    -0.268 OA
ATOM     10  N   UNL     1      -1.734   0.173   2.228  0.00  0.00    -0.193 N 
ATOM     11  C   UNL     1      -0.511  -0.053   1.615  0.00  0.00    +0.269 C 
ATOM     12  H   UNL     1      -2.370  -0.559   2.398  0.00  0.00    +0.183 HD
BRANCH  10  13
ATOM     13  O   UNL     1      -2.019   1.496   2.595  0.00  0.00    -0.295 OA
ATOM     14  H   UNL     1      -2.894   1.535   3.012  0.00  0.00    +0.241 HD
ENDBRANCH  10  13
ENDBRANCH   4  11
ENDBRANCH   1   2
BRANCH   1  15
ATOM     15  S   UNL     1       0.281  -0.221  -2.078  0.00  0.00    +0.077 S 
ATOM     16  O   UNL     1       0.061  -1.398  -2.897  0.00  0.00    -0.150 OA
ATOM     17  O   UNL     1       0.881   0.958  -2.675  0.00  0.00    -0.150 OA
BRANCH  15  18
ATOM     18  C   UNL     1      -1.299   0.269  -1.441  0.00  0.00    +0.126 C 
ATOM     19  C   UNL     1      -2.291  -0.683  -1.304  0.00  0.00    +0.023 C 
ATOM     20  C   UNL     1      -1.502   1.591  -1.094  0.00  0.00    +0.023 C 
ATOM     21  C   UNL     1      -3.535  -0.297  -0.803  0.00  0.00    +0.038 C 
ATOM     22  C   UNL     1      -2.745   1.976  -0.593  0.00  0.00    +0.038 C 
ATOM     23  C   UNL     1      -3.762   1.032  -0.448  0.00  0.00    +0.139 C 
BRANCH  23  24
ATOM     24  O   UNL     1      -4.975   1.409   0.041  0.00  0.00    -0.471 OA
ATOM     25  C   UNL     1      -5.139   2.784   0.384  0.00  0.00    +0.252 C 
ENDBRANCH  23  24
ENDBRANCH  15  18
ENDBRANCH   1  15
BRANCH   1  26
ATOM     26  C   UNL     1       2.651  -0.582  -0.722  0.00  0.00    +0.144 C 
BRANCH  26  28
ATOM     27  N   UNL     1       3.982   1.936   1.745  0.00  0.00    -0.243 NA
ATOM     28  C   UNL     1       3.178   0.710  -0.158  0.00  0.00    +0.019 C 
ATOM     29  C   UNL     1       3.338   1.814  -0.972  0.00  0.00    +0.001 C 
ATOM     30  C   UNL     1       3.505   0.806   1.176  0.00  0.00    +0.096 C 
ATOM     31  C   UNL     1       3.826   2.994  -0.423  0.00  0.00    +0.020 C 
ATOM     32  C   UNL     1       4.130   3.004   0.929  0.00  0.00    +0.099 C 
ENDBRANCH  26  28
ENDBRANCH   1  26
TORSDOF 8
