REMARK  Name = 5288374
REMARK  5 active torsions:
REMARK  status: ('A' for Active; 'I' for Inactive)
REMARK    1  A    between atoms: C_2  and  O_11
REMARK    2  A    between atoms: C_4  and  N_7
REMARK    3  A    between atoms: C_5  and  C_15
REMARK    4  A    between atoms: C_6  and  O_13
REMARK    5  A    between atoms: C_15  and  O_16
REMARK                            x       y       z     vdW  Elec       q    Type
REMARK                         _______ _______ _______ _____ _____    ______ ____
ROOT
ATOM      1  O   UNL     1      -0.375   1.082   0.523  0.00  0.00    -0.330 OA
ATOM      2  C   UNL     1      -0.357  -1.341   0.214  0.00  0.00    +0.138 C 
ATOM      3  C   UNL     1       1.138  -1.289  -0.099  0.00  0.00    +0.015 C 
ATOM      4  C   UNL     1       1.766  -0.063   0.565  0.00  0.00    -0.006 C 
ATOM      5  C   UNL     1      -1.033  -0.009  -0.131  0.00  0.00    +0.173 C 
ATOM      6  C   UNL     1       1.008   1.212   0.171  0.00  0.00    +0.211 C 
ENDROOT
BRANCH   4   7
ATOM      7  N   UNL     1       3.182   0.032   0.218  0.00  0.00    +0.385 N 
ATOM      8  H   UNL     1       3.657  -0.828   0.492  0.00  0.00    -0.089 HD
ATOM      9  H   UNL     1       3.600   0.823   0.709  0.00  0.00    -0.089 HD
ATOM     10  H   UNL     1       3.277   0.167  -0.788  0.00  0.00    -0.089 HD
ENDBRANCH   4   7
BRANCH   2  11
ATOM     11  O   UNL     1      -0.961  -2.393  -0.528  0.00  0.00    -0.382 OA
ATOM     12  H   UNL     1      -0.531  -3.234  -0.307  0.00  0.00    +0.210 HD
ENDBRANCH   2  11
BRANCH   6  13
ATOM     13  O   UNL     1       1.176   1.494  -1.217  0.00  0.00    -0.362 OA
ATOM     14  H   UNL     1       0.690   2.302  -1.444  0.00  0.00    +0.213 HD
ENDBRANCH   6  13
BRANCH   5  15
ATOM     15  C   UNL     1      -2.494   0.009   0.311  0.00  0.00    +0.169 C 
BRANCH  15  16
ATOM     16  O   UNL     1      -3.050   1.266  -0.027  0.00  0.00    -0.379 OA
ATOM     17  H   UNL     1      -3.980   1.292   0.248  0.00  0.00    +0.211 HD
ENDBRANCH  15  16
ENDBRANCH   5  15
TORSDOF 5
