REMARK  Name = 443201
REMARK  9 active torsions:
REMARK  status: ('A' for Active; 'I' for Inactive)
REMARK    1  A    between atoms: C_1  and  O_2
REMARK    2  A    between atoms: C_1  and  C_4
REMARK    3  A    between atoms: C_1  and  C_10
REMARK    4  A    between atoms: C_4  and  C_6
REMARK    5  A    between atoms: C_4  and  O_8
REMARK    6  A    between atoms: C_10  and  O_11
REMARK    7  A    between atoms: O_11  and  P_12
REMARK    8  A    between atoms: P_12  and  O_14
REMARK    9  A    between atoms: P_12  and  O_16
REMARK                            x       y       z     vdW  Elec       q    Type
REMARK                         _______ _______ _______ _____ _____    ______ ____
ROOT
ATOM      1  C   UNL     1       0.729   0.391   0.026  0.00  0.00    +0.175 C 
ENDROOT
BRANCH   1   2
ATOM      2  O   UNL     1       0.866   0.415   1.450  0.00  0.00    -0.379 OA
ATOM      3  H   UNL     1       1.721   0.808   1.686  0.00  0.00    +0.211 HD
ENDBRANCH   1   2
BRANCH   1   4
ATOM      4  C   UNL     1       1.896  -0.405  -0.566  0.00  0.00    +0.197 C 
BRANCH   4   6
ATOM      5  O   UNL     1       4.063  -0.471   0.499  0.00  0.00    -0.293 OA
ATOM      6  C   UNL     1       3.248   0.173  -0.162  0.00  0.00    +0.180 C 
ATOM      7  C   UNL     1       3.555   1.581  -0.604  0.00  0.00    +0.075 C 
ENDBRANCH   4   6
BRANCH   4   8
ATOM      8  O   UNL     1       1.825  -1.754  -0.129  0.00  0.00    -0.375 OA
ATOM      9  H   UNL     1       0.968  -2.131  -0.382  0.00  0.00    +0.211 HD
ENDBRANCH   4   8
ENDBRANCH   1   4
BRANCH   1  10
ATOM     10  C   UNL     1      -0.623  -0.232  -0.317  0.00  0.00    +0.186 C 
BRANCH  10  11
ATOM     11  O   UNL     1      -1.654   0.578   0.238  0.00  0.00    -0.271 OA
BRANCH  11  12
ATOM     12  P   UNL     1      -3.189   0.125   0.011  0.00  0.00    +0.473 P 
ATOM     13  O   UNL     1      -4.217   1.029   0.625  0.00  0.00    -0.227 OA
BRANCH  12  14
ATOM     14  O   UNL     1      -3.219  -1.408   0.526  0.00  0.00    -0.303 OA
ATOM     15  H   UNL     1      -2.524  -1.914   0.077  0.00  0.00    +0.222 HD
ENDBRANCH  12  14
BRANCH  12  16
ATOM     16  O   UNL     1      -3.281  -0.021  -1.597  0.00  0.00    -0.303 OA
ATOM     17  H   UNL     1      -2.584  -0.619  -1.908  0.00  0.00    +0.222 HD
ENDBRANCH  12  16
ENDBRANCH  11  12
ENDBRANCH  10  11
ENDBRANCH   1  10
TORSDOF 9
