REMARK  Name = 448632
REMARK  1 active torsions:
REMARK  status: ('A' for Active; 'I' for Inactive)
REMARK    1  A    between atoms: C_2  and  C_10
REMARK                            x       y       z     vdW  Elec       q    Type
REMARK                         _______ _______ _______ _____ _____    ______ ____
ROOT
ATOM      1 CL   UNL     1       4.532  -0.023   0.007  0.00  0.00    -0.082 Cl
ATOM      2  C   UNL     1       0.021   0.026  -0.009  0.00  0.00    +0.014 C 
ATOM      3  C   UNL     1       0.731   1.207   0.208  0.00  0.00    +0.002 C 
ATOM      4  C   UNL     1       0.707  -1.170  -0.222  0.00  0.00    +0.002 C 
ATOM      5  C   UNL     1       2.126   1.192   0.213  0.00  0.00    +0.011 C 
ATOM      6  C   UNL     1       2.101  -1.185  -0.217  0.00  0.00    +0.011 C 
ATOM      7  C   UNL     1       2.811  -0.004   0.000  0.00  0.00    +0.058 C 
ENDROOT
BRANCH   2  10
ATOM      8  N   UNL     1      -2.183  -1.023   0.368  0.00  0.00    -0.315 N 
ATOM      9  N   UNL     1      -3.612   0.577  -0.205  0.00  0.00    -0.314 N 
ATOM     10  C   UNL     1      -1.421   0.042  -0.015  0.00  0.00    +0.060 C 
ATOM     11  C   UNL     1      -2.322   1.017  -0.365  0.00  0.00    +0.074 C 
ATOM     12  C   UNL     1      -3.493  -0.655   0.237  0.00  0.00    +0.182 C 
ATOM     13  H   UNL     1      -1.850  -1.896   0.681  0.00  0.00    +0.148 HD
ATOM     14  H   UNL     1      -4.443   1.074  -0.383  0.00  0.00    +0.148 HD
ENDBRANCH   2  10
TORSDOF 1
