REMARK  Name = 447450
REMARK  12 active torsions:
REMARK  status: ('A' for Active; 'I' for Inactive)
REMARK    1  A    between atoms: C_1  and  C_9
REMARK    2  A    between atoms: C_2  and  N_23
REMARK    3  A    between atoms: N_8  and  C_11
REMARK    4  A    between atoms: C_11  and  C_12
REMARK    5  A    between atoms: C_12  and  S_13
REMARK    6  A    between atoms: S_13  and  S_14
REMARK    7  A    between atoms: S_14  and  C_15
REMARK    8  A    between atoms: C_15  and  C_16
REMARK    9  A    between atoms: C_16  and  N_18
REMARK   10  A    between atoms: C_24  and  C_28
REMARK   11  A    between atoms: CA_29  and  C_33
REMARK   12  A    between atoms: C_33  and  O_34
REMARK                            x       y       z     vdW  Elec       q    Type
REMARK                         _______ _______ _______ _____ _____    ______ ____
ROOT
ATOM      1  C   UNL     1       2.116  -2.724   0.213  0.00  0.00    +0.077 C 
ATOM      2  C   UNL     1      -0.710  -2.520   1.103  0.00  0.00    +0.072 C 
ATOM      3  C   UNL     1       0.979  -3.245  -0.666  0.00  0.00    +0.011 C 
ATOM      4  C   UNL     1       1.654  -1.576   1.111  0.00  0.00    +0.011 C 
ATOM      5  C   UNL     1      -0.242  -3.638   0.165  0.00  0.00    +0.020 C 
ATOM      6  C   UNL     1       0.442  -1.976   1.952  0.00  0.00    +0.020 C 
ENDROOT
BRANCH   1   9
ATOM      7  O   UNL     1       3.172  -2.302  -1.884  0.00  0.00    -0.275 OA
ATOM      8  N   UNL     1       4.334  -1.833   0.078  0.00  0.00    -0.303 N 
ATOM      9  C   UNL     1       3.244  -2.264  -0.659  0.00  0.00    +0.222 C 
ATOM     10  H   UNL     1       4.272  -1.849   1.060  0.00  0.00    +0.149 HD
BRANCH   8  11
ATOM     11  C   UNL     1       5.559  -1.361  -0.526  0.00  0.00    +0.102 C 
BRANCH  11  12
ATOM     12  C   UNL     1       5.555   0.139  -0.786  0.00  0.00    +0.090 C 
BRANCH  12  13
ATOM     13  S   UNL     1       5.299   1.100   0.737  0.00  0.00    -0.080 S 
BRANCH  13  14
ATOM     14  S   UNL     1       5.351   3.025   0.019  0.00  0.00    -0.080 S 
BRANCH  14  15
ATOM     15  C   UNL     1       3.610   3.320  -0.373  0.00  0.00    +0.090 C 
BRANCH  15  16
ATOM     16  C   UNL     1       2.793   3.672   0.863  0.00  0.00    +0.102 C 
BRANCH  16  18
ATOM     17  O   UNL     1       0.597   1.775   0.803  0.00  0.00    -0.275 OA
ATOM     18  N   UNL     1       1.413   3.943   0.567  0.00  0.00    -0.303 N 
ATOM     19  C   UNL     1       0.426   2.967   0.561  0.00  0.00    +0.223 C 
ATOM     20  C   UNL     1      -0.935   3.525   0.244  0.00  0.00    +0.095 C 
ATOM     21  H   UNL     1       1.154   4.869   0.356  0.00  0.00    +0.149 HD
ENDBRANCH  16  18
ENDBRANCH  15  16
ENDBRANCH  14  15
ENDBRANCH  13  14
ENDBRANCH  12  13
ENDBRANCH  11  12
ENDBRANCH   8  11
ENDBRANCH   1   9
BRANCH   2  23
ATOM     22  O   UNL     1      -3.489  -2.368   0.399  0.00  0.00    -0.268 OA
ATOM     23  N   UNL     1      -1.357  -1.457   0.369  0.00  0.00    -0.301 N 
ATOM     24  C   UNL     1      -2.712  -1.474   0.076  0.00  0.00    +0.265 C 
ATOM     25  H   UNL     1      -0.816  -0.692   0.066  0.00  0.00    +0.150 HD
BRANCH  24  28
ATOM     26  N   UNL     1      -2.660  -0.148  -1.922  0.00  0.00    -0.236 NA
ATOM     27  N   UNL     1      -4.652   1.571  -0.952  0.00  0.00    -0.234 NA
ATOM     28  C   UNL     1      -3.220  -0.319  -0.708  0.00  0.00    +0.158 C 
ATOM     29  CA  UNL     1      -4.198   0.526  -0.231  0.00  0.00    +0.179 C 
ATOM     30  C   UNL     1      -3.113   0.897  -2.642  0.00  0.00    +0.120 C 
ATOM     31  C   UNL     1      -4.092   1.741  -2.166  0.00  0.00    +0.120 C 
BRANCH  29  33
ATOM     32  OXT UNL     1      -4.259  -0.142   2.065  0.00  0.00    -0.243 OA
ATOM     33  C   UNL     1      -4.811   0.351   1.075  0.00  0.00    +0.358 C 
BRANCH  33  34
ATOM     34  O   UNL     1      -6.096   0.797   1.112  0.00  0.00    -0.476 OA
ATOM     35  H   UNL     1      -6.486   1.166   0.344  0.00  0.00    +0.295 HD
ENDBRANCH  33  34
ENDBRANCH  29  33
ENDBRANCH  24  28
ENDBRANCH   2  23
TORSDOF 12
