12546061
  -OEChem-10051719513D

 33 33  0     0  0  0  0  0  0999 V2000
   -3.5528   -0.4551   -0.0409 S   0  0  0  0  0  0  0  0  0  0  0  0
   -3.7098   -0.0517   -1.4374 O   0  5  0  0  0  0  0  0  0  0  0  0
   -3.7094   -1.8872    0.2090 O   0  0  0  0  0  0  0  0  0  0  0  0
   -4.2105    0.4167    0.9312 O   0  0  0  0  0  0  0  0  0  0  0  0
    0.8745    0.7728   -0.5557 N   0  3  0  0  0  0  0  0  0  0  0  0
    2.3314    1.0472   -0.3904 C   0  0  0  0  0  0  0  0  0  0  0  0
    2.7294    0.7978    1.0647 C   0  0  0  0  0  0  0  0  0  0  0  0
    3.1225    0.1737   -1.3648 C   0  0  0  0  0  0  0  0  0  0  0  0
    2.7337   -0.6839    1.4405 C   0  0  0  0  0  0  0  0  0  0  0  0
    3.1245   -1.3055   -0.9791 C   0  0  0  0  0  0  0  0  0  0  0  0
    3.5684   -1.5105    0.4664 C   0  0  0  0  0  0  0  0  0  0  0  0
    0.0009    1.5806    0.3330 C   0  0  0  0  0  0  0  0  0  0  0  0
   -1.4666    1.2835    0.0564 C   0  0  0  0  0  0  0  0  0  0  0  0
   -1.8363   -0.1784    0.2672 C   0  0  0  0  0  0  0  0  0  0  0  0
    2.4745    2.1034   -0.6471 H   0  0  0  0  0  0  0  0  0  0  0  0
    2.1541    1.3793    1.7889 H   0  0  0  0  0  0  0  0  0  0  0  0
    3.7589    1.1653    1.1841 H   0  0  0  0  0  0  0  0  0  0  0  0
    4.1611    0.5287   -1.3870 H   0  0  0  0  0  0  0  0  0  0  0  0
    2.7349    0.2861   -2.3846 H   0  0  0  0  0  0  0  0  0  0  0  0
    0.6100    0.9491   -1.5350 H   0  0  0  0  0  0  0  0  0  0  0  0
    0.6980   -0.2264   -0.3957 H   0  0  0  0  0  0  0  0  0  0  0  0
    1.7070   -1.0673    1.4658 H   0  0  0  0  0  0  0  0  0  0  0  0
    3.1372   -0.8011    2.4530 H   0  0  0  0  0  0  0  0  0  0  0  0
    3.7969   -1.8546   -1.6483 H   0  0  0  0  0  0  0  0  0  0  0  0
    2.1254   -1.7336   -1.1217 H   0  0  0  0  0  0  0  0  0  0  0  0
    4.6248   -1.2315    0.5650 H   0  0  0  0  0  0  0  0  0  0  0  0
    3.4945   -2.5722    0.7273 H   0  0  0  0  0  0  0  0  0  0  0  0
    0.2074    1.3204    1.3730 H   0  0  0  0  0  0  0  0  0  0  0  0
    0.2252    2.6371    0.1555 H   0  0  0  0  0  0  0  0  0  0  0  0
   -2.0736    1.9214    0.7100 H   0  0  0  0  0  0  0  0  0  0  0  0
   -1.7041    1.5860   -0.9711 H   0  0  0  0  0  0  0  0  0  0  0  0
   -1.6286   -0.4905    1.2959 H   0  0  0  0  0  0  0  0  0  0  0  0
   -1.2930   -0.8395   -0.4148 H   0  0  0  0  0  0  0  0  0  0  0  0
  1  2  1  0  0  0  0
  1  3  2  0  0  0  0
  1  4  2  0  0  0  0
  1 14  1  0  0  0  0
  5  6  1  0  0  0  0
  5 12  1  0  0  0  0
  5 20  1  0  0  0  0
  5 21  1  0  0  0  0
  6  7  1  0  0  0  0
  6  8  1  0  0  0  0
  6 15  1  0  0  0  0
  7  9  1  0  0  0  0
  7 16  1  0  0  0  0
  7 17  1  0  0  0  0
  8 10  1  0  0  0  0
  8 18  1  0  0  0  0
  8 19  1  0  0  0  0
  9 11  1  0  0  0  0
  9 22  1  0  0  0  0
  9 23  1  0  0  0  0
 10 11  1  0  0  0  0
 10 24  1  0  0  0  0
 10 25  1  0  0  0  0
 11 26  1  0  0  0  0
 11 27  1  0  0  0  0
 12 13  1  0  0  0  0
 12 28  1  0  0  0  0
 12 29  1  0  0  0  0
 13 14  1  0  0  0  0
 13 30  1  0  0  0  0
 13 31  1  0  0  0  0
 14 32  1  0  0  0  0
 14 33  1  0  0  0  0
M  CHG  2   2  -1   5   1
M  END
> <DATABASE_ID>
DB02219

> <DATABASE_NAME>
drugbank

> <ORIGINAL_SOURCE>
PUBCHEM

> <ORIGINAL_SOURCE_URL>
https://pubchem.ncbi.nlm.nih.gov/rest/pug/compound/inchikey/PJWWRFATQTVXHA-UHFFFAOYSA-N/SDF?record_type=3d

> <SMILES>
OS(=O)(=O)CCCNC1CCCCC1

> <INCHI_IDENTIFIER>
InChI=1S/C9H19NO3S/c11-14(12,13)8-4-7-10-9-5-2-1-3-6-9/h9-10H,1-8H2,(H,11,12,13)

> <INCHI_KEY>
PJWWRFATQTVXHA-UHFFFAOYSA-N

> <FORMULA>
C9H19NO3S

> <MOLECULAR_WEIGHT>
221.317

> <EXACT_MASS>
221.108564169

> <JCHEM_ACCEPTOR_COUNT>
4

> <JCHEM_AVERAGE_POLARIZABILITY>
24.012273208073772

> <JCHEM_BIOAVAILABILITY>
1

> <JCHEM_DONOR_COUNT>
2

> <JCHEM_FORMAL_CHARGE>
0

> <JCHEM_GHOSE_FILTER>
0

> <JCHEM_IUPAC>
3-(cyclohexylamino)propane-1-sulfonic acid

> <ALOGPS_LOGP>
-0.84

> <JCHEM_LOGP>
-0.5317804837349662

> <ALOGPS_LOGS>
-2.17

> <JCHEM_MDDR_LIKE_RULE>
0

> <JCHEM_NUMBER_OF_RINGS>
1

> <JCHEM_PHYSIOLOGICAL_CHARGE>
0

> <JCHEM_PKA_STRONGEST_ACIDIC>
-0.5311545586020925

> <JCHEM_PKA_STRONGEST_BASIC>
10.453650237823716

> <JCHEM_POLAR_SURFACE_AREA>
66.39999999999999

> <JCHEM_REFRACTIVITY>
55.2593

> <JCHEM_ROTATABLE_BOND_COUNT>
5

> <JCHEM_RULE_OF_FIVE>
1

> <ALOGPS_SOLUBILITY>
1.51e+00 g/l

> <JCHEM_TRADITIONAL_IUPAC>
caps (buffer)

> <JCHEM_VEBER_RULE>
0

> <DRUGBANK_ID>
DB02219

> <SECONDARY_ACCESSION_NUMBERS>
EXPT01070

> <DRUG_GROUPS>
experimental

> <GENERIC_NAME>
3-Cyclohexyl-1-Propylsulfonic Acid

$$$$
