REMARK  Name = 448836
REMARK  15 active torsions:
REMARK  status: ('A' for Active; 'I' for Inactive)
REMARK    1  A    between atoms: C_1  and  C_4
REMARK    2  A    between atoms: C_1  and  N_17
REMARK    3  A    between atoms: C_1  and  C_33
REMARK    4  A    between atoms: N_3  and  C_6
REMARK    5  A    between atoms: C_6  and  C_9
REMARK    6  A    between atoms: C_6  and  C_12
REMARK    7  A    between atoms: C_12  and  C_14
REMARK    8  A    between atoms: C_14  and  O_15
REMARK    9  A    between atoms: N_17  and  CA_20
REMARK   10  A    between atoms: CA_20  and  C_22
REMARK   11  A    between atoms: CA_20  and  C_25
REMARK   12  A    between atoms: C_22  and  O_23
REMARK   13  A    between atoms: C_25  and  C_26
REMARK   14  A    between atoms: C_26  and  C_27
REMARK   15  A    between atoms: C_33  and  C_34
REMARK                            x       y       z     vdW  Elec       q    Type
REMARK                         _______ _______ _______ _____ _____    ______ ____
ROOT
ATOM      1  C   UNL     1      -1.124   1.159  -0.472  0.00  0.00    +0.022 C 
ENDROOT
BRANCH   1   4
ATOM      2  O   UNL     1      -1.159  -0.591  -2.147  0.00  0.00    -0.277 OA
ATOM      3  N   UNL     1      -1.589  -1.160   0.059  0.00  0.00    -0.300 N 
ATOM      4  C   UNL     1      -1.279  -0.276  -0.964  0.00  0.00    +0.203 C 
ATOM      5  H   UNL     1      -1.665  -0.816   0.979  0.00  0.00    +0.150 HD
BRANCH   3   6
ATOM      6  C   UNL     1      -1.805  -2.567  -0.180  0.00  0.00    +0.159 C 
BRANCH   6   9
ATOM      7  O   UNL     1      -4.184  -2.091  -0.074  0.00  0.00    -0.274 OA
ATOM      8  N   UNL     1      -3.466  -3.787  -1.446  0.00  0.00    -0.327 N 
ATOM      9  C   UNL     1      -3.269  -2.756  -0.552  0.00  0.00    +0.238 C 
ATOM     10  H   UNL     1      -4.375  -4.001  -1.758  0.00  0.00    +0.145 HD
ATOM     11  H   UNL     1      -2.698  -4.309  -1.773  0.00  0.00    +0.145 HD
ENDBRANCH   6   9
BRANCH   6  12
ATOM     12  C   UNL     1      -1.446  -3.410   1.044  0.00  0.00    +0.138 C 
BRANCH  12  14
ATOM     13  O   UNL     1       0.900  -3.242   0.401  0.00  0.00    -0.250 OA
ATOM     14  C   UNL     1       0.041  -3.671   1.159  0.00  0.00    +0.316 C 
BRANCH  14  15
ATOM     15  O   UNL     1       0.324  -4.463   2.226  0.00  0.00    -0.480 OA
ATOM     16  H   UNL     1      -0.368  -4.768   2.780  0.00  0.00    +0.295 HD
ENDBRANCH  14  15
ENDBRANCH  12  14
ENDBRANCH   6  12
ENDBRANCH   3   6
ENDBRANCH   1   4
BRANCH   1  17
ATOM     17  N   UNL     1       0.252   1.560  -0.767  0.00  0.00    +0.399 N 
ATOM     18  H1  UNL     1       0.309   2.579  -0.779  0.00  0.00    -0.083 HD
ATOM     19  H2  UNL     1       0.517   1.180  -1.675  0.00  0.00    -0.083 HD
BRANCH  17  20
ATOM     20  CA  UNL     1       1.164   1.044   0.241  0.00  0.00    +0.041 C 
BRANCH  20  22
ATOM     21  OXT UNL     1       0.864   3.175   1.380  0.00  0.00    -0.253 OA
ATOM     22  C   UNL     1       1.067   1.968   1.442  0.00  0.00    +0.293 C 
BRANCH  22  23
ATOM     23  O   UNL     1       1.204   1.307   2.619  0.00  0.00    -0.482 OA
ATOM     24  H   UNL     1       1.359   0.383   2.622  0.00  0.00    +0.295 HD
ENDBRANCH  22  23
ENDBRANCH  20  22
BRANCH  20  25
ATOM     25  C   UNL     1       2.590   1.025  -0.329  0.00  0.00    -0.006 C 
BRANCH  25  26
ATOM     26  C   UNL     1       3.654   0.477   0.634  0.00  0.00    +0.025 C 
BRANCH  26  27
ATOM     27  C   UNL     1       5.042   0.387   0.048  0.00  0.00    -0.022 C 
ATOM     28  C   UNL     1       5.449  -0.777  -0.604  0.00  0.00    -0.004 C 
ATOM     29  C   UNL     1       5.917   1.468   0.158  0.00  0.00    -0.004 C 
ATOM     30  C   UNL     1       6.732  -0.860  -1.146  0.00  0.00    -0.000 C 
ATOM     31  C   UNL     1       7.199   1.385  -0.384  0.00  0.00    -0.000 C 
ATOM     32  C   UNL     1       7.607   0.221  -1.036  0.00  0.00    -0.000 C 
ENDBRANCH  26  27
ENDBRANCH  25  26
ENDBRANCH  20  25
ENDBRANCH  17  20
ENDBRANCH   1  17
BRANCH   1  33
ATOM     33  C   UNL     1      -2.107   2.092  -1.196  0.00  0.00    +0.014 C 
BRANCH  33  34
ATOM     34  C   UNL     1      -3.488   2.077  -0.584  0.00  0.00    -0.024 C 
ATOM     35  C   UNL     1      -4.442   1.166  -1.036  0.00  0.00    -0.004 C 
ATOM     36  C   UNL     1      -3.809   2.976   0.434  0.00  0.00    -0.004 C 
ATOM     37  C   UNL     1      -5.717   1.152  -0.471  0.00  0.00    -0.000 C 
ATOM     38  C   UNL     1      -5.084   2.962   1.000  0.00  0.00    -0.000 C 
ATOM     39  C   UNL     1      -6.038   2.050   0.547  0.00  0.00    -0.000 C 
ENDBRANCH  33  34
ENDBRANCH   1  33
TORSDOF 15
