REMARK  Name = 445905
REMARK  5 active torsions:
REMARK  status: ('A' for Active; 'I' for Inactive)
REMARK    1  A    between atoms: C_2  and  O_7
REMARK    2  A    between atoms: C_3  and  O_9
REMARK    3  A    between atoms: C_3  and  C_14
REMARK    4  A    between atoms: C_4  and  O_11
REMARK    5  A    between atoms: C_14  and  O_15
REMARK                            x       y       z     vdW  Elec       q    Type
REMARK                         _______ _______ _______ _____ _____    ______ ____
ROOT
ATOM      1  C   UNL     1       0.023   1.125   0.161  0.00  0.00    +0.074 C 
ATOM      2  C   UNL     1       1.494   0.862  -0.169  0.00  0.00    +0.145 C 
ATOM      3  C   UNL     1      -0.880   0.016  -0.391  0.00  0.00    +0.198 C 
ATOM      4  C   UNL     1       1.954  -0.492   0.388  0.00  0.00    +0.159 C 
ATOM      5  C   UNL     1      -0.316  -1.363  -0.201  0.00  0.00    +0.009 C 
ATOM      6  C   UNL     1       0.952  -1.589   0.173  0.00  0.00    +0.003 C 
ENDROOT
BRANCH   2   7
ATOM      7  O   UNL     1       2.296   1.886   0.417  0.00  0.00    -0.382 OA
ATOM      8  H   UNL     1       2.018   2.750   0.074  0.00  0.00    +0.210 HD
ENDBRANCH   2   7
BRANCH   3   9
ATOM      9  O   UNL     1      -1.120   0.253  -1.771  0.00  0.00    -0.373 OA
ATOM     10  H   UNL     1      -0.279   0.236  -2.253  0.00  0.00    +0.211 HD
ENDBRANCH   3   9
BRANCH   4  11
ATOM     11  O   UNL     1       3.177  -0.837  -0.264  0.00  0.00    -0.378 OA
ATOM     12  H   UNL     1       3.827  -0.130  -0.126  0.00  0.00    +0.211 HD
ENDBRANCH   4  11
BRANCH   3  14
ATOM     13  O   UNL     1      -3.281   0.292  -0.255  0.00  0.00    -0.247 OA
ATOM     14  C   UNL     1      -2.216   0.055   0.295  0.00  0.00    +0.342 C 
BRANCH  14  15
ATOM     15  O   UNL     1      -2.082  -0.208   1.618  0.00  0.00    -0.478 OA
ATOM     16  H   UNL     1      -1.235  -0.383   1.978  0.00  0.00    +0.295 HD
ENDBRANCH  14  15
ENDBRANCH   3  14
TORSDOF 5
