REMARK  Name = 17754156
REMARK  14 active torsions:
REMARK  status: ('A' for Active; 'I' for Inactive)
REMARK    1  A    between atoms: C_1  and  C_4
REMARK    2  A    between atoms: C_1  and  C_18
REMARK    3  A    between atoms: C_1  and  C_30
REMARK    4  A    between atoms: N_3  and  C_8
REMARK    5  A    between atoms: N_7  and  C_14
REMARK    6  A    between atoms: C_14  and  C_15
REMARK    7  A    between atoms: C_15  and  O_16
REMARK    8  A    between atoms: C_18  and  C_21
REMARK    9  A    between atoms: C_18  and  C_25
REMARK   10  A    between atoms: N_20  and  O_23
REMARK   11  A    between atoms: C_25  and  C_26
REMARK   12  A    between atoms: C_26  and  C_27
REMARK   13  A    between atoms: C_27  and  O_28
REMARK   14  A    between atoms: C_30  and  C_31
REMARK                            x       y       z     vdW  Elec       q    Type
REMARK                         _______ _______ _______ _____ _____    ______ ____
ROOT
ATOM      1  C   UNL     1       1.674  -0.946   0.120  0.00  0.00    +0.085 C 
ENDROOT
BRANCH   1   4
ATOM      2  O   UNL     1       0.394  -0.096   2.001  0.00  0.00    -0.275 OA
ATOM      3  N   UNL     1      -0.474   0.161  -0.136  0.00  0.00    -0.298 N 
ATOM      4  C   UNL     1       0.481  -0.247   0.784  0.00  0.00    +0.223 C 
ATOM      5  H   UNL     1      -0.305  -0.009  -1.091  0.00  0.00    +0.150 HD
BRANCH   3   8
ATOM      6  O   UNL     1      -2.474  -0.256  -1.778  0.00  0.00    -0.273 OA
ATOM      7  N   UNL     1      -4.077   0.793  -0.475  0.00  0.00    -0.276 N 
ATOM      8  C   UNL     1      -1.704   0.821   0.237  0.00  0.00    +0.149 C 
ATOM      9  C   UNL     1      -1.507   2.338   0.234  0.00  0.00    +0.029 C 
ATOM     10  C   UNL     1      -2.483   3.078   1.147  0.00  0.00    +0.004 C 
ATOM     11  C   UNL     1      -3.951   2.949   0.748  0.00  0.00    +0.022 C 
ATOM     12  C   UNL     1      -4.451   1.508   0.747  0.00  0.00    +0.094 C 
ATOM     13  C   UNL     1      -2.772   0.388  -0.768  0.00  0.00    +0.244 C 
BRANCH   7  14
ATOM     14  C   UNL     1      -5.154   0.510  -1.415  0.00  0.00    +0.125 C 
BRANCH  14  15
ATOM     15  C   UNL     1      -5.836  -0.809  -1.101  0.00  0.00    +0.164 C 
BRANCH  15  16
ATOM     16  O   UNL     1      -4.892  -1.866  -1.211  0.00  0.00    -0.349 OA
ATOM     17  C   UNL     1      -5.485  -3.127  -0.931  0.00  0.00    +0.174 C 
ENDBRANCH  15  16
ENDBRANCH  14  15
ENDBRANCH   7  14
ENDBRANCH   3   8
ENDBRANCH   1   4
BRANCH   1  18
ATOM     18  C   UNL     1       2.726   0.130  -0.298  0.00  0.00    +0.087 C 
BRANCH  18  21
ATOM     19  O   UNL     1       3.661   0.480   1.916  0.00  0.00    -0.273 OA
ATOM     20  N   UNL     1       2.748   2.283   0.802  0.00  0.00    -0.197 N 
ATOM     21  C   UNL     1       3.108   0.962   0.930  0.00  0.00    +0.244 C 
ATOM     22  H   UNL     1       2.306   2.628  -0.007  0.00  0.00    +0.182 HD
BRANCH  20  23
ATOM     23  O   UNL     1       3.050   3.109   1.893  0.00  0.00    -0.295 OA
ATOM     24  H   UNL     1       2.758   4.014   1.704  0.00  0.00    +0.241 HD
ENDBRANCH  20  23
ENDBRANCH  18  21
BRANCH  18  25
ATOM     25  C   UNL     1       3.967  -0.465  -0.995  0.00  0.00    +0.012 C 
BRANCH  25  26
ATOM     26  C   UNL     1       4.752   0.532  -1.864  0.00  0.00    +0.032 C 
BRANCH  26  27
ATOM     27  C   UNL     1       6.019  -0.029  -2.499  0.00  0.00    +0.137 C 
BRANCH  27  28
ATOM     28  O   UNL     1       6.651   0.964  -3.292  0.00  0.00    -0.382 OA
ATOM     29  H   UNL     1       7.455   0.597  -3.691  0.00  0.00    +0.210 HD
ENDBRANCH  27  28
ENDBRANCH  26  27
ENDBRANCH  25  26
ENDBRANCH  18  25
ENDBRANCH   1  18
BRANCH   1  30
ATOM     30  C   UNL     1       2.261  -2.055   1.020  0.00  0.00    +0.010 C 
BRANCH  30  31
ATOM     31  C   UNL     1       1.508  -3.404   0.955  0.00  0.00    +0.000 C 
ATOM     32  C   UNL     1       2.214  -4.428   1.848  0.00  0.00    +0.000 C 
ATOM     33  C   UNL     1       0.044  -3.278   1.382  0.00  0.00    +0.000 C 
ENDBRANCH  30  31
ENDBRANCH   1  30
TORSDOF 14
