REMARK  Name = 9543427
REMARK  2 active torsions:
REMARK  status: ('A' for Active; 'I' for Inactive)
REMARK    1  A    between atoms: S_1  and  C_4
REMARK    2  A    between atoms: C_4  and  S_5
REMARK                            x       y       z     vdW  Elec       q    Type
REMARK                         _______ _______ _______ _____ _____    ______ ____
ROOT
ATOM      1  S   UNL     1       1.266  -0.184   0.478  0.00  0.00    +0.054 S 
ATOM      2  O   UNL     1       1.575  -1.348  -0.416  0.00  0.00    -0.255 OA
ATOM      3  C   UNL     1       2.264   1.214  -0.094  0.00  0.00    +0.107 C 
ENDROOT
BRANCH   1   4
ATOM      4  C   UNL     1      -0.333   0.510  -0.050  0.00  0.00    +0.149 C 
BRANCH   4   5
ATOM      5  S   UNL     1      -1.708  -0.597   0.367  0.00  0.00    -0.125 S 
ATOM      6  C   UNL     1      -3.065   0.405  -0.285  0.00  0.00    +0.070 C 
ENDBRANCH   4   5
ENDBRANCH   1   4
TORSDOF 2
