REMARK  Name = 19241
REMARK  5 active torsions:
REMARK  status: ('A' for Active; 'I' for Inactive)
REMARK    1  A    between atoms: S_1  and  C_4
REMARK    2  A    between atoms: S_1  and  N_10
REMARK    3  A    between atoms: N_10  and  C_12
REMARK    4  A    between atoms: C_12  and  C_13
REMARK    5  A    between atoms: C_13  and  C_14
REMARK                            x       y       z     vdW  Elec       q    Type
REMARK                         _______ _______ _______ _____ _____    ______ ____
ROOT
ATOM      1  S   UNL     1      -0.019  -1.362  -0.242  0.00  0.00    +0.060 S 
ATOM      2  O   UNL     1      -0.371  -1.434  -1.647  0.00  0.00    -0.153 OA
ATOM      3  O   UNL     1       0.246  -2.575   0.507  0.00  0.00    -0.153 OA
ENDROOT
BRANCH   1   4
ATOM      4  C   UNL     1       1.415  -0.339  -0.091  0.00  0.00    +0.122 C 
ATOM      5  C   UNL     1       2.248  -0.501   1.003  0.00  0.00    +0.020 C 
ATOM      6  C   UNL     1       1.677   0.605  -1.068  0.00  0.00    +0.020 C 
ATOM      7  C   UNL     1       3.379   0.307   1.122  0.00  0.00    +0.001 C 
ATOM      8  C   UNL     1       2.808   1.413  -0.948  0.00  0.00    +0.001 C 
ATOM      9  C   UNL     1       3.659   1.264   0.147  0.00  0.00    +0.000 C 
ENDBRANCH   1   4
BRANCH   1  10
ATOM     10  N   UNL     1      -1.194  -0.429   0.580  0.00  0.00    -0.179 NA
ATOM     11  H   UNL     1      -0.872  -0.336   1.543  0.00  0.00    +0.149 HD
BRANCH  10  12
ATOM     12  C   UNL     1      -1.529   0.914   0.120  0.00  0.00    +0.091 C 
BRANCH  12  13
ATOM     13  C   UNL     1      -2.973   1.255   0.484  0.00  0.00    +0.019 C 
BRANCH  13  14
ATOM     14  C   UNL     1      -3.953   0.286  -0.177  0.00  0.00    +0.001 C 
ATOM     15  C   UNL     1      -5.391   0.597   0.209  0.00  0.00    +0.000 C 
ENDBRANCH  13  14
ENDBRANCH  12  13
ENDBRANCH  10  12
ENDBRANCH   1  10
TORSDOF 5
