REMARK  Name = 447532
REMARK  5 active torsions:
REMARK  status: ('A' for Active; 'I' for Inactive)
REMARK    1  A    between atoms: C_4  and  O_13
REMARK    2  A    between atoms: C_10  and  C_12
REMARK    3  A    between atoms: O_13  and  P_14
REMARK    4  A    between atoms: P_14  and  O_16
REMARK    5  A    between atoms: P_14  and  O_18
REMARK                            x       y       z     vdW  Elec       q    Type
REMARK                         _______ _______ _______ _____ _____    ______ ____
ROOT
ATOM      1  N   UNL     1      -1.237  -0.754  -0.020  0.00  0.00    -0.392 NA
ATOM      2  C   UNL     1      -0.531   0.393  -0.013  0.00  0.00    +0.152 C 
ATOM      3  C   UNL     1      -1.161   1.655   0.010  0.00  0.00    +0.099 C 
ATOM      4  C   UNL     1       0.860   0.356  -0.028  0.00  0.00    +0.175 C 
ATOM      5  C   UNL     1      -0.393   2.831   0.017  0.00  0.00    -0.015 C 
ATOM      6  C   UNL     1       1.624   1.526  -0.021  0.00  0.00    +0.039 C 
ATOM      7  C   UNL     1      -2.562   1.692   0.025  0.00  0.00    -0.012 C 
ATOM      8  C   UNL     1       0.997   2.765   0.002  0.00  0.00    -0.001 C 
ATOM      9  C   UNL     1      -3.292   0.512   0.018  0.00  0.00    +0.039 C 
ATOM     10  C   UNL     1      -2.587  -0.674  -0.005  0.00  0.00    +0.198 C 
ENDROOT
BRANCH  10  12
ATOM     11  N   UNL     1      -3.805  -2.960  -0.020  0.00  0.00    -0.188 NA
ATOM     12  C   UNL     1      -3.258  -1.932  -0.013  0.00  0.00    +0.133 C 
ENDBRANCH  10  12
BRANCH   4  13
ATOM     13  O   UNL     1       1.515  -0.844  -0.052  0.00  0.00    -0.400 OA
BRANCH  13  14
ATOM     14  P   UNL     1       3.120  -1.025  -0.073  0.00  0.00    +0.528 P 
ATOM     15  O   UNL     1       3.821  -0.407  -1.248  0.00  0.00    -0.216 OA
BRANCH  14  16
ATOM     16  O   UNL     1       3.597  -0.504   1.382  0.00  0.00    -0.293 OA
ATOM     17  H   UNL     1       3.089  -0.959   2.071  0.00  0.00    +0.223 HD
ENDBRANCH  14  16
BRANCH  14  18
ATOM     18  O   UNL     1       3.295  -2.630   0.042  0.00  0.00    -0.293 OA
ATOM     19  H   UNL     1       2.816  -2.952   0.821  0.00  0.00    +0.223 HD
ENDBRANCH  14  18
ENDBRANCH  13  14
ENDBRANCH   4  13
TORSDOF 5
