REMARK  Name = 448965
REMARK  8 active torsions:
REMARK  status: ('A' for Active; 'I' for Inactive)
REMARK    1  A    between atoms: N_1  and  C_13
REMARK    2  A    between atoms: C_5  and  C_17
REMARK    3  A    between atoms: C_13  and  C_14
REMARK    4  A    between atoms: C_14  and  C_15
REMARK    5  A    between atoms: C_17  and  C_18
REMARK    6  A    between atoms: C_21  and  O_24
REMARK    7  A    between atoms: C_22  and  O_26
REMARK    8  A    between atoms: C_23  and  O_28
REMARK                            x       y       z     vdW  Elec       q    Type
REMARK                         _______ _______ _______ _____ _____    ______ ____
ROOT
ATOM      1  N   UNL     1      -2.499  -0.363  -0.556  0.00  0.00    -0.249 N 
ATOM      2  N   UNL     1      -0.840   1.011  -0.039  0.00  0.00    -0.385 NA
ATOM      3  N   UNL     1      -4.387   1.154  -0.397  0.00  0.00    -0.227 NA
ATOM      4  N   UNL     1      -3.655   3.396   0.227  0.00  0.00    -0.227 NA
ATOM      5  C   UNL     1      -1.158  -0.222  -0.373  0.00  0.00    +0.169 C 
ATOM      6  C   UNL     1      -3.084   0.841  -0.329  0.00  0.00    +0.167 C 
ATOM      7  C   UNL     1      -2.035   1.687  -0.008  0.00  0.00    +0.195 C 
ATOM      8  C   UNL     1      -2.357   3.010   0.277  0.00  0.00    +0.155 C 
ATOM      9  C   UNL     1      -4.576   2.458  -0.102  0.00  0.00    +0.253 C 
ATOM     10  N   UNL     1      -1.356   3.937   0.612  0.00  0.00    -0.341 N 
ATOM     11  H   UNL     1      -1.596   4.870   0.811  0.00  0.00    +0.144 HD
ATOM     12  H   UNL     1      -0.414   3.652   0.647  0.00  0.00    +0.144 HD
ENDROOT
BRANCH   1  13
ATOM     13  C   UNL     1      -3.195  -1.590  -0.930  0.00  0.00    +0.099 C 
BRANCH  13  14
ATOM     14  C   UNL     1      -3.619  -2.405   0.290  0.00  0.00    +0.022 C 
BRANCH  14  15
ATOM     15  C   UNL     1      -4.335  -3.689  -0.125  0.00  0.00    +0.002 C 
ATOM     16  C   UNL     1      -4.725  -4.525   1.083  0.00  0.00    +0.000 C 
ENDBRANCH  14  15
ENDBRANCH  13  14
ENDBRANCH   1  13
BRANCH   5  17
ATOM     17  C   UNL     1      -0.211  -1.344  -0.539  0.00  0.00    +0.102 C 
BRANCH  17  18
ATOM     18  C   UNL     1       1.242  -0.967  -0.287  0.00  0.00    -0.008 C 
ATOM     19  C   UNL     1       2.008  -0.521  -1.344  0.00  0.00    +0.036 C 
ATOM     20  C   UNL     1       1.748  -1.085   0.991  0.00  0.00    +0.036 C 
ATOM     21  C   UNL     1       3.080  -0.741   1.222  0.00  0.00    +0.175 C 
ATOM     22  C   UNL     1       3.340  -0.177  -1.113  0.00  0.00    +0.175 C 
ATOM     23  C   UNL     1       3.876  -0.287   0.170  0.00  0.00    +0.206 C 
BRANCH  21  24
ATOM     24  O   UNL     1       3.592  -0.853   2.480  0.00  0.00    -0.468 OA
ATOM     25  C   UNL     1       3.483   0.289   3.328  0.00  0.00    +0.253 C 
ENDBRANCH  21  24
BRANCH  22  26
ATOM     26  O   UNL     1       4.106   0.265  -2.149  0.00  0.00    -0.468 OA
ATOM     27  C   UNL     1       4.822  -0.721  -2.891  0.00  0.00    +0.253 C 
ENDBRANCH  22  26
BRANCH  23  28
ATOM     28  O   UNL     1       5.178   0.050   0.396  0.00  0.00    -0.465 OA
ATOM     29  C   UNL     1       5.559   1.392   0.106  0.00  0.00    +0.253 C 
ENDBRANCH  23  28
ENDBRANCH  17  18
ENDBRANCH   5  17
TORSDOF 8
