REMARK  Name = 448969
REMARK  7 active torsions:
REMARK  status: ('A' for Active; 'I' for Inactive)
REMARK    1  A    between atoms: N_1  and  C_13
REMARK    2  A    between atoms: C_5  and  C_17
REMARK    3  A    between atoms: C_13  and  C_14
REMARK    4  A    between atoms: C_14  and  C_15
REMARK    5  A    between atoms: C_17  and  C_18
REMARK    6  A    between atoms: C_19  and  O_24
REMARK    7  A    between atoms: C_21  and  O_26
REMARK                            x       y       z     vdW  Elec       q    Type
REMARK                         _______ _______ _______ _____ _____    ______ ____
ROOT
ATOM      1  N   UNL     1      -1.272   0.574   0.055  0.00  0.00    -0.249 N 
ATOM      2  N   UNL     1      -1.139  -1.305  -1.110  0.00  0.00    -0.385 NA
ATOM      3  N   UNL     1      -3.374   0.221   1.215  0.00  0.00    -0.227 NA
ATOM      4  N   UNL     1      -4.351  -1.933   0.614  0.00  0.00    -0.227 NA
ATOM      5  C   UNL     1      -0.550  -0.160  -0.835  0.00  0.00    +0.170 C 
ATOM      6  C   UNL     1      -2.388  -0.129   0.376  0.00  0.00    +0.167 C 
ATOM      7  C   UNL     1      -2.288  -1.299  -0.360  0.00  0.00    +0.195 C 
ATOM      8  C   UNL     1      -3.321  -2.220  -0.218  0.00  0.00    +0.155 C 
ATOM      9  C   UNL     1      -4.314  -0.748   1.269  0.00  0.00    +0.253 C 
ATOM     10  N   UNL     1      -3.303  -3.434  -0.927  0.00  0.00    -0.341 N 
ATOM     11  H   UNL     1      -4.039  -4.079  -0.819  0.00  0.00    +0.144 HD
ATOM     12  H   UNL     1      -2.553  -3.640  -1.531  0.00  0.00    +0.144 HD
ENDROOT
BRANCH   1  13
ATOM     13  C   UNL     1      -0.915   1.889   0.578  0.00  0.00    +0.099 C 
BRANCH  13  14
ATOM     14  C   UNL     1      -1.468   3.021  -0.286  0.00  0.00    +0.022 C 
BRANCH  14  15
ATOM     15  C   UNL     1      -1.073   4.386   0.273  0.00  0.00    +0.002 C 
ATOM     16  C   UNL     1      -1.587   5.517  -0.604  0.00  0.00    +0.000 C 
ENDBRANCH  14  15
ENDBRANCH  13  14
ENDBRANCH   1  13
BRANCH   5  17
ATOM     17  C   UNL     1       0.732   0.310  -1.398  0.00  0.00    +0.105 C 
BRANCH  17  18
ATOM     18  C   UNL     1       1.958  -0.091  -0.591  0.00  0.00    +0.023 C 
ATOM     19  C   UNL     1       2.784   0.885  -0.071  0.00  0.00    +0.135 C 
ATOM     20  C   UNL     1       2.206  -1.437  -0.404  0.00  0.00    +0.036 C 
ATOM     21  C   UNL     1       3.326  -1.821   0.334  0.00  0.00    +0.139 C 
ATOM     22  C   UNL     1       3.904   0.501   0.667  0.00  0.00    +0.040 C 
ATOM     23  C   UNL     1       4.175  -0.852   0.869  0.00  0.00    +0.040 C 
BRANCH  19  24
ATOM     24  O   UNL     1       2.534   2.212  -0.259  0.00  0.00    -0.472 OA
ATOM     25  C   UNL     1       3.453   3.133   0.323  0.00  0.00    +0.252 C 
ENDBRANCH  19  24
BRANCH  21  26
ATOM     26  O   UNL     1       3.591  -3.141   0.532  0.00  0.00    -0.471 OA
ATOM     27  C   UNL     1       2.682  -4.079  -0.043  0.00  0.00    +0.252 C 
ENDBRANCH  21  26
ENDBRANCH  17  18
ENDBRANCH   5  17
TORSDOF 7
