REMARK  Name = 447147
REMARK  3 active torsions:
REMARK  status: ('A' for Active; 'I' for Inactive)
REMARK    1  A    between atoms: C_2  and  O_8
REMARK    2  A    between atoms: C_5  and  O_10
REMARK    3  A    between atoms: C_6  and  O_12
REMARK                            x       y       z     vdW  Elec       q    Type
REMARK                         _______ _______ _______ _____ _____    ______ ____
ROOT
ATOM      1  O   UNL     1       0.473  -1.091   0.696  0.00  0.00    -0.329 OA
ATOM      2  C   UNL     1       0.971   0.963  -0.548  0.00  0.00    +0.140 C 
ATOM      3  C   UNL     1      -0.526   1.211  -0.720  0.00  0.00    +0.066 C 
ATOM      4  C   UNL     1       1.260  -0.535  -0.367  0.00  0.00    +0.145 C 
ATOM      5  C   UNL     1      -1.312   0.523   0.394  0.00  0.00    +0.169 C 
ATOM      6  C   UNL     1      -0.936  -0.956   0.496  0.00  0.00    +0.260 C 
ATOM      7  C   UNL     1       2.723  -0.808  -0.037  0.00  0.00    +0.035 C 
ENDROOT
BRANCH   2   8
ATOM      8  O   UNL     1       1.434   1.679   0.597  0.00  0.00    -0.382 OA
ATOM      9  H   UNL     1       1.252   2.624   0.482  0.00  0.00    +0.210 HD
ENDBRANCH   2   8
BRANCH   5  10
ATOM     10  O   UNL     1      -2.704   0.674   0.150  0.00  0.00    -0.379 OA
ATOM     11  H   UNL     1      -2.921   1.618   0.089  0.00  0.00    +0.211 HD
ENDBRANCH   5  10
BRANCH   6  12
ATOM     12  O   UNL     1      -1.385  -1.659  -0.662  0.00  0.00    -0.358 OA
ATOM     13  H   UNL     1      -1.141  -2.595  -0.586  0.00  0.00    +0.213 HD
ENDBRANCH   6  12
TORSDOF 3
