REMARK  Name = 7967
REMARK  0 active torsions:
REMARK  status: ('A' for Active; 'I' for Inactive)
REMARK                            x       y       z     vdW  Elec       q    Type
REMARK                         _______ _______ _______ _____ _____    ______ ____
ROOT
ATOM      1  O   UNL     1       2.245   0.000   0.297  0.00  0.00    -0.296 OA
ATOM      2  C   UNL     1      -1.835   0.000  -0.114  0.00  0.00    +0.001 C 
ATOM      3  C   UNL     1      -1.064  -1.258   0.279  0.00  0.00    +0.008 C 
ATOM      4  C   UNL     1      -1.063   1.258   0.280  0.00  0.00    +0.008 C 
ATOM      5  C   UNL     1       0.325  -1.286  -0.344  0.00  0.00    +0.065 C 
ATOM      6  C   UNL     1       0.325   1.286  -0.344  0.00  0.00    +0.065 C 
ATOM      7  C   UNL     1       1.066   0.000  -0.054  0.00  0.00    +0.151 C 
ENDROOT
TORSDOF 0
