REMARK  Name = 448972
REMARK  9 active torsions:
REMARK  status: ('A' for Active; 'I' for Inactive)
REMARK    1  A    between atoms: N_2  and  C_14
REMARK    2  A    between atoms: C_6  and  C_19
REMARK    3  A    between atoms: C_14  and  C_15
REMARK    4  A    between atoms: C_15  and  C_16
REMARK    5  A    between atoms: C_16  and  C_17
REMARK    6  A    between atoms: C_19  and  C_21
REMARK    7  A    between atoms: C_24  and  O_27
REMARK    8  A    between atoms: C_25  and  O_29
REMARK    9  A    between atoms: C_26  and  O_31
REMARK                            x       y       z     vdW  Elec       q    Type
REMARK                         _______ _______ _______ _____ _____    ______ ____
ROOT
ATOM      1  F   UNL     1       5.410  -3.208   0.081  0.00  0.00    -0.098 F 
ATOM      2  N   UNL     1       2.162   0.068  -0.761  0.00  0.00    -0.238 N 
ATOM      3  N   UNL     1       0.468  -1.159   0.011  0.00  0.00    -0.383 NA
ATOM      4  N   UNL     1       3.997  -1.484  -0.405  0.00  0.00    -0.299 NA
ATOM      5  N   UNL     1       3.211  -3.573   0.582  0.00  0.00    -0.300 NA
ATOM      6  C   UNL     1       0.815  -0.005  -0.520  0.00  0.00    +0.170 C 
ATOM      7  C   UNL     1       2.707  -1.117  -0.356  0.00  0.00    +0.237 C 
ATOM      8  C   UNL     1       1.640  -1.864   0.119  0.00  0.00    +0.222 C 
ATOM      9  C   UNL     1       1.929  -3.137   0.600  0.00  0.00    +0.225 C 
ATOM     10  C   UNL     1       4.152  -2.732   0.087  0.00  0.00    +0.300 C 
ATOM     11  N   UNL     1       0.908  -3.962   1.103  0.00  0.00    -0.330 N 
ATOM     12  H   UNL     1       1.124  -4.862   1.441  0.00  0.00    +0.145 HD
ATOM     13  H   UNL     1      -0.022  -3.641   1.117  0.00  0.00    +0.145 HD
ENDROOT
BRANCH   2  14
ATOM     14  C   UNL     1       2.877   1.184  -1.333  0.00  0.00    +0.101 C 
BRANCH  14  15
ATOM     15  C   UNL     1       3.362   2.164  -0.261  0.00  0.00    +0.036 C 
BRANCH  15  16
ATOM     16  C   UNL     1       4.130   3.349  -0.849  0.00  0.00    +0.079 C 
BRANCH  16  17
ATOM     17  C   UNL     1       4.573   4.293   0.187  0.00  0.00    -0.078 C 
ATOM     18  C   UNL     1       4.937   5.066   1.030  0.00  0.00    -0.014 C 
ENDBRANCH  16  17
ENDBRANCH  15  16
ENDBRANCH  14  15
ENDBRANCH   2  14
BRANCH   6  19
ATOM     19  C   UNL     1      -0.100   1.111  -0.836  0.00  0.00    +0.102 C 
BRANCH  19  21
ATOM     20 CL   UNL     1      -1.063   1.876   1.969  0.00  0.00    -0.079 Cl
ATOM     21  C   UNL     1      -1.556   0.832  -0.490  0.00  0.00    +0.003 C 
ATOM     22  C   UNL     1      -2.061   1.150   0.755  0.00  0.00    +0.091 C 
ATOM     23  C   UNL     1      -2.338   0.253  -1.471  0.00  0.00    +0.037 C 
ATOM     24  C   UNL     1      -3.401   0.879   1.031  0.00  0.00    +0.186 C 
ATOM     25  C   UNL     1      -3.678  -0.019  -1.195  0.00  0.00    +0.175 C 
ATOM     26  C   UNL     1      -4.210   0.294   0.056  0.00  0.00    +0.207 C 
BRANCH  24  27
ATOM     27  O   UNL     1      -3.939   1.179   2.249  0.00  0.00    -0.467 OA
ATOM     28  C   UNL     1      -3.872   0.167   3.251  0.00  0.00    +0.253 C 
ENDBRANCH  24  27
BRANCH  25  29
ATOM     29  O   UNL     1      -4.457  -0.591  -2.156  0.00  0.00    -0.468 OA
ATOM     30  C   UNL     1      -5.149   0.291  -3.038  0.00  0.00    +0.253 C 
ENDBRANCH  25  29
BRANCH  26  31
ATOM     31  O   UNL     1      -5.520   0.028   0.325  0.00  0.00    -0.465 OA
ATOM     32  C   UNL     1      -5.935  -1.332   0.234  0.00  0.00    +0.253 C 
ENDBRANCH  26  31
ENDBRANCH  19  21
ENDBRANCH   6  19
TORSDOF 9
