REMARK  Name = 1755
REMARK  11 active torsions:
REMARK  status: ('A' for Active; 'I' for Inactive)
REMARK    1  A    between atoms: C_1  and  C_3
REMARK    2  A    between atoms: C_1  and  C_10
REMARK    3  A    between atoms: C_3  and  C_4
REMARK    4  A    between atoms: C_4  and  C_5
REMARK    5  A    between atoms: C_5  and  C_7
REMARK    6  A    between atoms: C_7  and  O_8
REMARK    7  A    between atoms: C_10  and  C_11
REMARK    8  A    between atoms: C_11  and  C_12
REMARK    9  A    between atoms: C_12  and  C_13
REMARK   10  A    between atoms: C_13  and  C_15
REMARK   11  A    between atoms: C_15  and  O_16
REMARK                            x       y       z     vdW  Elec       q    Type
REMARK                         _______ _______ _______ _____ _____    ______ ____
ROOT
ATOM      1  C   UNL     1      -0.520   0.534  -0.129  0.00  0.00    +0.065 C 
ENDROOT
BRANCH   1   3
ATOM      2  O   UNL     1      -1.693  -1.573  -0.048  0.00  0.00    -0.296 OA
ATOM      3  C   UNL     1      -1.761  -0.346  -0.095  0.00  0.00    +0.151 C 
BRANCH   3   4
ATOM      4  C   UNL     1      -3.091   0.397  -0.084  0.00  0.00    +0.076 C 
BRANCH   4   5
ATOM      5  C   UNL     1      -4.300  -0.526   0.040  0.00  0.00    +0.117 C 
BRANCH   5   7
ATOM      6  O   UNL     1      -5.731   1.447   0.022  0.00  0.00    -0.250 OA
ATOM      7  C   UNL     1      -5.609   0.232   0.090  0.00  0.00    +0.314 C 
BRANCH   7   8
ATOM      8  O   UNL     1      -6.666  -0.613   0.215  0.00  0.00    -0.480 OA
ATOM      9  H   UNL     1      -6.524  -1.537   0.264  0.00  0.00    +0.295 HD
ENDBRANCH   7   8
ENDBRANCH   5   7
ENDBRANCH   4   5
ENDBRANCH   3   4
ENDBRANCH   1   3
BRANCH   1  10
ATOM     10  C   UNL     1       0.790  -0.251  -0.154  0.00  0.00    +0.008 C 
BRANCH  10  11
ATOM     11  C   UNL     1       2.019   0.664  -0.115  0.00  0.00    +0.001 C 
BRANCH  11  12
ATOM     12  C   UNL     1       3.316  -0.151  -0.096  0.00  0.00    +0.012 C 
BRANCH  12  13
ATOM     13  C   UNL     1       4.560   0.733  -0.010  0.00  0.00    +0.109 C 
BRANCH  13  15
ATOM     14  O   UNL     1       5.945  -1.274   0.045  0.00  0.00    -0.250 OA
ATOM     15  C   UNL     1       5.843  -0.057   0.080  0.00  0.00    +0.314 C 
BRANCH  15  16
ATOM     16  O   UNL     1       6.898   0.783   0.238  0.00  0.00    -0.480 OA
ATOM     17  H   UNL     1       6.760   1.710   0.257  0.00  0.00    +0.295 HD
ENDBRANCH  15  16
ENDBRANCH  13  15
ENDBRANCH  12  13
ENDBRANCH  11  12
ENDBRANCH  10  11
ENDBRANCH   1  10
TORSDOF 11
