REMARK  Name = 445026
REMARK  14 active torsions:
REMARK  status: ('A' for Active; 'I' for Inactive)
REMARK    1  A    between atoms: C_1  and  N_3
REMARK    2  A    between atoms: C_1  and  C_13
REMARK    3  A    between atoms: C_1  and  C_19
REMARK    4  A    between atoms: C_4  and  O_6
REMARK    5  A    between atoms: O_6  and  P_7
REMARK    6  A    between atoms: P_7  and  O_9
REMARK    7  A    between atoms: P_7  and  O_11
REMARK    8  A    between atoms: C_13  and  N_15
REMARK    9  A    between atoms: C_19  and  C_20
REMARK   10  A    between atoms: C_20  and  C_21
REMARK   11  A    between atoms: C_21  and  C_22
REMARK   12  A    between atoms: C_22  and  C_23
REMARK   13  A    between atoms: C_23  and  C_25
REMARK   14  A    between atoms: C_25  and  O_26
REMARK                            x       y       z     vdW  Elec       q    Type
REMARK                         _______ _______ _______ _____ _____    ______ ____
ROOT
ATOM      1  C   UNL     1      -1.006   1.861  -0.345  0.00  0.00    +0.055 C 
ENDROOT
BRANCH   1   3
ATOM      2  O   UNL     1      -2.930   0.002  -1.495  0.00  0.00    -0.226 OA
ATOM      3  N   UNL     1      -1.724   0.798   0.325  0.00  0.00    -0.274 N 
ATOM      4  C   UNL     1      -2.618  -0.033  -0.311  0.00  0.00    +0.408 C 
ATOM      5  H   UNL     1      -1.564   0.661   1.287  0.00  0.00    +0.153 HD
BRANCH   4   6
ATOM      6  O   UNL     1      -3.134  -0.929   0.575  0.00  0.00    -0.356 OA
BRANCH   6   7
ATOM      7  P   UNL     1      -4.219  -2.070   0.203  0.00  0.00    +0.531 P 
ATOM      8  O   UNL     1      -5.519  -1.550  -0.339  0.00  0.00    -0.215 OA
BRANCH   7   9
ATOM      9  O   UNL     1      -3.407  -3.064  -0.781  0.00  0.00    -0.293 OA
ATOM     10  H   UNL     1      -2.586  -3.347  -0.349  0.00  0.00    +0.223 HD
ENDBRANCH   7   9
BRANCH   7  11
ATOM     11  O   UNL     1      -4.340  -2.918   1.574  0.00  0.00    -0.293 OA
ATOM     12  H   UNL     1      -3.459  -3.213   1.850  0.00  0.00    +0.223 HD
ENDBRANCH   7  11
ENDBRANCH   6   7
ENDBRANCH   4   6
ENDBRANCH   1   3
BRANCH   1  13
ATOM     13  C   UNL     1      -0.770   3.064   0.598  0.00  0.00    -0.047 C 
ATOM     14  C   UNL     1      -2.076   3.569   1.222  0.00  0.00    -0.022 C 
BRANCH  13  15
ATOM     15  N   UNL     1      -0.143   4.171  -0.130  0.00  0.00    +0.383 N 
ATOM     16  H   UNL     1       0.729   3.851  -0.552  0.00  0.00    -0.089 HD
ATOM     17  H   UNL     1       0.052   4.936   0.516  0.00  0.00    -0.089 HD
ATOM     18  H   UNL     1      -0.775   4.498  -0.862  0.00  0.00    -0.089 HD
ENDBRANCH  13  15
ENDBRANCH   1  13
BRANCH   1  19
ATOM     19  C   UNL     1       0.262   1.305  -1.027  0.00  0.00    +0.018 C 
BRANCH  19  20
ATOM     20  C   UNL     1       1.391   0.782  -0.127  0.00  0.00    +0.002 C 
BRANCH  20  21
ATOM     21  C   UNL     1       2.591   0.208  -0.879  0.00  0.00    +0.001 C 
BRANCH  21  22
ATOM     22  C   UNL     1       3.715  -0.182   0.090  0.00  0.00    +0.012 C 
BRANCH  22  23
ATOM     23  C   UNL     1       4.918  -0.795  -0.627  0.00  0.00    +0.109 C 
BRANCH  23  25
ATOM     24  O   UNL     1       5.979  -1.167   1.537  0.00  0.00    -0.250 OA
ATOM     25  C   UNL     1       6.003  -1.249   0.318  0.00  0.00    +0.314 C 
BRANCH  25  26
ATOM     26  O   UNL     1       7.027  -1.804  -0.380  0.00  0.00    -0.480 OA
ATOM     27  H   UNL     1       6.991  -1.840  -1.315  0.00  0.00    +0.295 HD
ENDBRANCH  25  26
ENDBRANCH  23  25
ENDBRANCH  22  23
ENDBRANCH  21  22
ENDBRANCH  20  21
ENDBRANCH  19  20
ENDBRANCH   1  19
TORSDOF 14
