REMARK  Name = 5282253
REMARK  10 active torsions:
REMARK  status: ('A' for Active; 'I' for Inactive)
REMARK    1  A    between atoms: C_2  and  C_23
REMARK    2  A    between atoms: C_3  and  C_8
REMARK    3  A    between atoms: CA_4  and  C_20
REMARK    4  A    between atoms: C_10  and  C_11
REMARK    5  A    between atoms: C_12  and  C_13
REMARK    6  A    between atoms: C_13  and  C_16
REMARK    7  A    between atoms: C_16  and  O_17
REMARK    8  A    between atoms: C_20  and  O_21
REMARK    9  A    between atoms: C_23  and  C_25
REMARK   10  A    between atoms: C_25  and  O_26
REMARK                            x       y       z     vdW  Elec       q    Type
REMARK                         _______ _______ _______ _____ _____    ______ ____
ROOT
ATOM      1  N   UNL     1       2.713   0.045   2.212  0.00  0.00    +0.392 N 
ATOM      2  C   UNL     1       1.757  -0.050   0.002  0.00  0.00    +0.004 C 
ATOM      3  C   UNL     1       0.843  -0.707   1.057  0.00  0.00    -0.004 C 
ATOM      4  CA  UNL     1       2.958   0.451   0.827  0.00  0.00    +0.040 C 
ATOM      5  C   UNL     1       1.822  -1.111   2.151  0.00  0.00    -0.077 C 
ATOM      6  H1  UNL     1       2.271   0.804   2.730  0.00  0.00    -0.084 HD
ATOM      7  H2  UNL     1       3.584  -0.185   2.690  0.00  0.00    -0.084 HD
ENDROOT
BRANCH   3   8
ATOM      8  C   UNL     1      -0.030  -1.826   0.596  0.00  0.00    -0.046 C 
ATOM      9  C   UNL     1       0.618  -3.184   0.689  0.00  0.00    +0.026 C 
ATOM     10  C   UNL     1      -1.288  -1.710   0.128  0.00  0.00    -0.009 C 
BRANCH  10  11
ATOM     11  C   UNL     1      -2.058  -0.493  -0.029  0.00  0.00    -0.005 C 
ATOM     12  C   UNL     1      -3.314  -0.486  -0.508  0.00  0.00    -0.015 C 
BRANCH  12  13
ATOM     13  C   UNL     1      -4.202   0.719  -0.715  0.00  0.00    +0.121 C 
ATOM     14  C   UNL     1      -4.703   0.954  -2.139  0.00  0.00    +0.016 C 
BRANCH  13  16
ATOM     15  O   UNL     1      -5.957  -0.464   0.507  0.00  0.00    -0.250 OA
ATOM     16  C   UNL     1      -5.403   0.587   0.210  0.00  0.00    +0.317 C 
BRANCH  16  17
ATOM     17  O   UNL     1      -5.793   1.789   0.712  0.00  0.00    -0.480 OA
ATOM     18  H   UNL     1      -5.343   2.571   0.459  0.00  0.00    +0.295 HD
ENDBRANCH  16  17
ENDBRANCH  13  16
ENDBRANCH  12  13
ENDBRANCH  10  11
ENDBRANCH   3   8
BRANCH   4  20
ATOM     19  OXT UNL     1       2.454   2.679   1.604  0.00  0.00    -0.253 OA
ATOM     20  C   UNL     1       3.052   1.941   0.835  0.00  0.00    +0.293 C 
BRANCH  20  21
ATOM     21  O   UNL     1       3.896   2.373  -0.134  0.00  0.00    -0.482 OA
ATOM     22  H   UNL     1       4.324   1.753  -0.692  0.00  0.00    +0.295 HD
ENDBRANCH  20  21
ENDBRANCH   4  20
BRANCH   2  23
ATOM     23  C   UNL     1       2.238  -0.993  -1.106  0.00  0.00    +0.108 C 
BRANCH  23  25
ATOM     24  O   UNL     1       2.882   0.684  -2.754  0.00  0.00    -0.250 OA
ATOM     25  C   UNL     1       3.153  -0.291  -2.069  0.00  0.00    +0.314 C 
BRANCH  25  26
ATOM     26  O   UNL     1       4.364  -0.905  -2.076  0.00  0.00    -0.480 OA
ATOM     27  H   UNL     1       4.514  -1.650  -1.528  0.00  0.00    +0.295 HD
ENDBRANCH  25  26
ENDBRANCH  23  25
ENDBRANCH   2  23
TORSDOF 10
