REMARK  Name = 4293
REMARK  6 active torsions:
REMARK  status: ('A' for Active; 'I' for Inactive)
REMARK    1  A    between atoms: S_1  and  C_5
REMARK    2  A    between atoms: S_1  and  N_15
REMARK    3  A    between atoms: C_6  and  S_9
REMARK    4  A    between atoms: S_9  and  N_12
REMARK    5  A    between atoms: N_15  and  C_17
REMARK    6  A    between atoms: C_17  and  C_19
REMARK                            x       y       z     vdW  Elec       q    Type
REMARK                         _______ _______ _______ _____ _____    ______ ____
ROOT
ATOM      1  S   UNL     1      -2.219   1.763   0.308  0.00  0.00    +0.066 S 
ATOM      2  O   UNL     1      -2.015   2.647   1.439  0.00  0.00    -0.152 OA
ATOM      3  O   UNL     1      -2.954   2.196  -0.865  0.00  0.00    -0.152 OA
ENDROOT
BRANCH   1   5
ATOM      4  S   UNL     1       0.547   1.009   0.877  0.00  0.00    -0.047 S 
ATOM      5  C   UNL     1      -0.580   1.413  -0.328  0.00  0.00    +0.153 C 
ATOM      6  C   UNL     1       1.772   0.816  -0.303  0.00  0.00    +0.152 C 
ATOM      7  C   UNL     1      -0.074   1.409  -1.583  0.00  0.00    +0.029 C 
ATOM      8  C   UNL     1       1.307   1.060  -1.576  0.00  0.00    +0.028 C 
BRANCH   6   9
ATOM      9  S   UNL     1       3.344   0.357   0.337  0.00  0.00    +0.063 S 
ATOM     10  O   UNL     1       4.356   0.784  -0.614  0.00  0.00    -0.153 OA
ATOM     11  O   UNL     1       3.411   0.789   1.722  0.00  0.00    -0.153 OA
BRANCH   9  12
ATOM     12  N   UNL     1       3.217  -1.344   0.290  0.00  0.00    -0.203 NA
ATOM     13  H   UNL     1       4.080  -1.759   0.642  0.00  0.00    +0.144 HD
ATOM     14  H   UNL     1       3.061  -1.647  -0.671  0.00  0.00    +0.144 HD
ENDBRANCH   9  12
ENDBRANCH   6   9
ENDBRANCH   1   5
BRANCH   1  15
ATOM     15  N   UNL     1      -2.873   0.279   0.862  0.00  0.00    -0.174 NA
ATOM     16  H   UNL     1      -3.798   0.478   1.243  0.00  0.00    +0.149 HD
BRANCH  15  17
ATOM     17  C   UNL     1      -3.028  -0.817  -0.114  0.00  0.00    +0.124 C 
BRANCH  17  19
ATOM     18  S   UNL     1      -1.362  -2.519   1.279  0.00  0.00    -0.089 S 
ATOM     19  C   UNL     1      -1.824  -1.714  -0.147  0.00  0.00    +0.025 C 
ATOM     20  C   UNL     1      -1.013  -1.985  -1.210  0.00  0.00    +0.004 C 
ATOM     21  C   UNL     1       0.030  -2.886  -0.849  0.00  0.00    +0.007 C 
ATOM     22  C   UNL     1      -0.042  -3.257   0.476  0.00  0.00    +0.035 C 
ENDBRANCH  17  19
ENDBRANCH  15  17
ENDBRANCH   1  15
TORSDOF 6
