REMARK  Name = 6590
REMARK  2 active torsions:
REMARK  status: ('A' for Active; 'I' for Inactive)
REMARK    1  A    between atoms: C_2  and  C_3
REMARK    2  A    between atoms: C_2  and  O_6
REMARK                            x       y       z     vdW  Elec       q    Type
REMARK                         _______ _______ _______ _____ _____    ______ ____
ROOT
ATOM      1  O   UNL     1      -1.121   1.024  -0.717  0.00  0.00    -0.250 OA
ATOM      2  C   UNL     1      -0.752   0.102  -0.005  0.00  0.00    +0.313 C 
ENDROOT
BRANCH   2   3
ATOM      3  C   UNL     1       0.683  -0.216   0.362  0.00  0.00    +0.099 C 
ATOM      4  C   UNL     1       1.277  -1.178  -0.659  0.00  0.00    +0.012 C 
ATOM      5  C   UNL     1       1.512   1.062   0.455  0.00  0.00    +0.012 C 
ENDBRANCH   2   3
BRANCH   2   6
ATOM      6  O   UNL     1      -1.600  -0.794   0.563  0.00  0.00    -0.480 OA
ATOM      7  H   UNL     1      -1.262  -1.483   1.101  0.00  0.00    +0.295 HD
ENDBRANCH   2   6
TORSDOF 2
