REMARK  Name = 5289210
REMARK  2 active torsions:
REMARK  status: ('A' for Active; 'I' for Inactive)
REMARK    1  A    between atoms: S_1  and  S_2
REMARK    2  A    between atoms: S_1  and  S_4
REMARK                            x       y       z     vdW  Elec       q    Type
REMARK                         _______ _______ _______ _____ _____    ______ ____
ROOT
ATOM      1  S   UNL     1       0.000   0.001   1.123  0.00  0.00    +0.000 S 
ENDROOT
BRANCH   1   2
ATOM      2  S   UNL     1       1.339   0.935  -0.118  0.00  0.00    +0.000 S 
ATOM      3  S   UNL     1       2.825  -0.444  -0.444  0.00  0.00    +0.000 S 
ENDBRANCH   1   2
BRANCH   1   4
ATOM      4  S   UNL     1      -1.339  -0.935  -0.118  0.00  0.00    +0.000 S 
ATOM      5  S   UNL     1      -2.825   0.443  -0.444  0.00  0.00    +0.000 S 
ENDBRANCH   1   4
TORSDOF 2
