REMARK  Name = 448651
REMARK  2 active torsions:
REMARK  status: ('A' for Active; 'I' for Inactive)
REMARK    1  A    between atoms: C_4  and  C_9
REMARK    2  A    between atoms: C_9  and  O_10
REMARK                            x       y       z     vdW  Elec       q    Type
REMARK                         _______ _______ _______ _____ _____    ______ ____
ROOT
ATOM      1  O   UNL     1       1.890   1.246   0.000  0.00  0.00    -0.380 OA
ATOM      2  O   UNL     1       0.708  -2.032   0.000  0.00  0.00    -0.267 OA
ATOM      3  N   UNL     1       2.101  -0.153   0.000  0.00  0.00    -0.144 N 
ATOM      4  C   UNL     1      -0.150   0.192   0.001  0.00  0.00    +0.171 C 
ATOM      5  C   UNL     1       0.900  -0.828   0.000  0.00  0.00    +0.286 C 
ATOM      6  C   UNL     1       0.519   1.337   0.000  0.00  0.00    +0.218 C 
ATOM      7  H   UNL     1       2.985  -0.585  -0.001  0.00  0.00    +0.196 HD
ENDROOT
BRANCH   4   9
ATOM      8  O   UNL     1      -2.183  -1.041   0.000  0.00  0.00    -0.245 OA
ATOM      9  C   UNL     1      -1.589   0.034   0.000  0.00  0.00    +0.346 C 
BRANCH   9  10
ATOM     10  O   UNL     1      -2.195   1.246  -0.001  0.00  0.00    -0.477 OA
ATOM     11  H   UNL     1      -1.679   2.028  -0.001  0.00  0.00    +0.295 HD
ENDBRANCH   9  10
ENDBRANCH   4   9
TORSDOF 2
