REMARK  Name = 784625
REMARK  3 active torsions:
REMARK  status: ('A' for Active; 'I' for Inactive)
REMARK    1  A    between atoms: C_2  and  C_7
REMARK    2  A    between atoms: C_4  and  C_14
REMARK    3  A    between atoms: C_14  and  O_15
REMARK                            x       y       z     vdW  Elec       q    Type
REMARK                         _______ _______ _______ _____ _____    ______ ____
ROOT
ATOM      1  O   UNL     1       0.971   0.259   0.355  0.00  0.00    -0.447 OA
ATOM      2  C   UNL     1       0.077  -0.035  -0.618  0.00  0.00    +0.146 C 
ATOM      3  C   UNL     1       0.706  -0.437  -1.765  0.00  0.00    +0.041 C 
ATOM      4  C   UNL     1       2.201   0.041  -0.180  0.00  0.00    +0.220 C 
ATOM      5  C   UNL     1       2.092  -0.389  -1.482  0.00  0.00    +0.047 C 
ENDROOT
BRANCH   2   7
ATOM      6 CL   UNL     1      -1.372  -2.465   0.609  0.00  0.00    -0.082 Cl
ATOM      7  C   UNL     1      -1.310   0.135  -0.246  0.00  0.00    +0.045 C 
ATOM      8  C   UNL     1      -2.054  -0.903   0.316  0.00  0.00    +0.061 C 
ATOM      9  C   UNL     1      -1.902   1.379  -0.464  0.00  0.00    +0.004 C 
ATOM     10  C   UNL     1      -3.390  -0.696   0.660  0.00  0.00    +0.011 C 
ATOM     11  C   UNL     1      -3.238   1.585  -0.120  0.00  0.00    +0.000 C 
ATOM     12  C   UNL     1      -3.982   0.547   0.442  0.00  0.00    +0.001 C 
ENDBRANCH   2   7
BRANCH   4  14
ATOM     13  O   UNL     1       3.329   0.673   1.833  0.00  0.00    -0.242 OA
ATOM     14  C   UNL     1       3.337   0.278   0.644  0.00  0.00    +0.373 C 
BRANCH  14  15
ATOM     15  O   UNL     1       4.534   0.029   0.017  0.00  0.00    -0.475 OA
ATOM     16  H   UNL     1       4.545  -0.267  -0.872  0.00  0.00    +0.296 HD
ENDBRANCH  14  15
ENDBRANCH   4  14
TORSDOF 3
