REMARK  Name = 8617
REMARK  5 active torsions:
REMARK  status: ('A' for Active; 'I' for Inactive)
REMARK    1  A    between atoms: C_2  and  C_11
REMARK    2  A    between atoms: C_11  and  C_12
REMARK    3  A    between atoms: C_12  and  C_13
REMARK    4  A    between atoms: C_13  and  C_15
REMARK    5  A    between atoms: C_15  and  O_16
REMARK                            x       y       z     vdW  Elec       q    Type
REMARK                         _______ _______ _______ _____ _____    ______ ____
ROOT
ATOM      1  N   UNL     1       2.228  -1.918  -0.463  0.00  0.00    -0.312 N 
ATOM      2  C   UNL     1       0.499  -0.903   0.490  0.00  0.00    -0.006 C 
ATOM      3  C   UNL     1       1.528   0.060   0.293  0.00  0.00    +0.011 C 
ATOM      4  C   UNL     1       2.602  -0.603  -0.306  0.00  0.00    +0.048 C 
ATOM      5  C   UNL     1       0.960  -2.110   0.015  0.00  0.00    +0.058 C 
ATOM      6  C   UNL     1       1.650   1.437   0.569  0.00  0.00    +0.001 C 
ATOM      7  C   UNL     1       3.795   0.045  -0.644  0.00  0.00    +0.015 C 
ATOM      8  C   UNL     1       2.838   2.098   0.236  0.00  0.00    +0.000 C 
ATOM      9  C   UNL     1       3.893   1.410  -0.361  0.00  0.00    +0.001 C 
ATOM     10  H   UNL     1       2.792  -2.620  -0.861  0.00  0.00    +0.152 HD
ENDROOT
BRANCH   2  11
ATOM     11  C   UNL     1      -0.827  -0.663   1.093  0.00  0.00    +0.028 C 
BRANCH  11  12
ATOM     12  C   UNL     1      -1.897  -0.262   0.056  0.00  0.00    +0.016 C 
BRANCH  12  13
ATOM     13  C   UNL     1      -3.276  -0.022   0.673  0.00  0.00    +0.110 C 
BRANCH  13  15
ATOM     14  O   UNL     1      -4.152   0.432  -1.554  0.00  0.00    -0.250 OA
ATOM     15  C   UNL     1      -4.326   0.359  -0.346  0.00  0.00    +0.314 C 
BRANCH  15  16
ATOM     16  O   UNL     1      -5.516   0.640   0.249  0.00  0.00    -0.480 OA
ATOM     17  H   UNL     1      -5.602   0.570   1.179  0.00  0.00    +0.295 HD
ENDBRANCH  15  16
ENDBRANCH  13  15
ENDBRANCH  12  13
ENDBRANCH  11  12
ENDBRANCH   2  11
TORSDOF 5
