REMARK  Name = 529
REMARK  6 active torsions:
REMARK  status: ('A' for Active; 'I' for Inactive)
REMARK    1  A    between atoms: P_1  and  O_3
REMARK    2  A    between atoms: P_1  and  O_5
REMARK    3  A    between atoms: P_1  and  O_7
REMARK    4  A    between atoms: O_7  and  C_8
REMARK    5  A    between atoms: C_8  and  C_10
REMARK    6  A    between atoms: C_10  and  O_11
REMARK                            x       y       z     vdW  Elec       q    Type
REMARK                         _______ _______ _______ _____ _____    ______ ____
ROOT
ATOM      1  P   UNL     1       1.761  -0.085   0.006  0.00  0.00    +0.474 P 
ATOM      2  O   UNL     1       2.730  -1.231   0.035  0.00  0.00    -0.227 OA
ENDROOT
BRANCH   1   3
ATOM      3  O   UNL     1       1.882   0.954   1.240  0.00  0.00    -0.303 OA
ATOM      4  H   UNL     1       1.221   1.656   1.137  0.00  0.00    +0.222 HD
ENDBRANCH   1   3
BRANCH   1   5
ATOM      5  O   UNL     1       1.869   0.869  -1.295  0.00  0.00    -0.303 OA
ATOM      6  H   UNL     1       1.211   1.578  -1.232  0.00  0.00    +0.222 HD
ENDBRANCH   1   5
BRANCH   1   7
ATOM      7  O   UNL     1       0.199  -0.510   0.014  0.00  0.00    -0.261 OA
BRANCH   7   8
ATOM      8  C   UNL     1      -0.780   0.514  -0.012  0.00  0.00    +0.262 C 
BRANCH   8  10
ATOM      9  O   UNL     1      -2.407  -1.292   0.005  0.00  0.00    -0.247 OA
ATOM     10  C   UNL     1      -2.155  -0.096   0.000  0.00  0.00    +0.345 C 
BRANCH  10  11
ATOM     11  O   UNL     1      -3.099   0.878   0.006  0.00  0.00    -0.478 OA
ATOM     12  H   UNL     1      -2.843   1.779   0.002  0.00  0.00    +0.295 HD
ENDBRANCH  10  11
ENDBRANCH   8  10
ENDBRANCH   7   8
ENDBRANCH   1   7
TORSDOF 6
