REMARK  Name = 446275
REMARK  2 active torsions:
REMARK  status: ('A' for Active; 'I' for Inactive)
REMARK    1  A    between atoms: C_3  and  S_9
REMARK    2  A    between atoms: S_9  and  N_12
REMARK                            x       y       z     vdW  Elec       q    Type
REMARK                         _______ _______ _______ _____ _____    ______ ____
ROOT
ATOM      1  F   UNL     1      -2.291  -2.368   0.019  0.00  0.00    -0.204 F 
ATOM      2  F   UNL     1      -2.290   2.368   0.019  0.00  0.00    -0.204 F 
ATOM      3  C   UNL     1       0.470   0.000  -0.059  0.00  0.00    +0.126 C 
ATOM      4  C   UNL     1      -0.227   1.208  -0.039  0.00  0.00    +0.050 C 
ATOM      5  C   UNL     1      -0.227  -1.208  -0.039  0.00  0.00    +0.050 C 
ATOM      6  C   UNL     1      -1.621  -1.208   0.000  0.00  0.00    +0.144 C 
ATOM      7  C   UNL     1      -1.621   1.208   0.000  0.00  0.00    +0.144 C 
ATOM      8  C   UNL     1      -2.318   0.000   0.020  0.00  0.00    +0.059 C 
ENDROOT
BRANCH   3   9
ATOM      9  S   UNL     1       2.216   0.000  -0.108  0.00  0.00    +0.057 S 
ATOM     10  O   UNL     1       2.659  -1.260  -0.688  0.00  0.00    -0.153 OA
ATOM     11  O   UNL     1       2.662   1.259  -0.686  0.00  0.00    -0.153 OA
BRANCH   9  12
ATOM     12  N   UNL     1       2.588   0.000   1.560  0.00  0.00    -0.203 NA
ATOM     13  H   UNL     1       3.601   0.000   1.682  0.00  0.00    +0.144 HD
ATOM     14  H   UNL     1       2.193  -0.833   1.997  0.00  0.00    +0.144 HD
ENDBRANCH   9  12
ENDBRANCH   3   9
TORSDOF 2
