REMARK  Name = 446241
REMARK  5 active torsions:
REMARK  status: ('A' for Active; 'I' for Inactive)
REMARK    1  A    between atoms: N_2  and  C_17
REMARK    2  A    between atoms: C_3  and  C_5
REMARK    3  A    between atoms: C_6  and  S_11
REMARK    4  A    between atoms: S_11  and  N_14
REMARK    5  A    between atoms: C_17  and  C_21
REMARK                            x       y       z     vdW  Elec       q    Type
REMARK                         _______ _______ _______ _____ _____    ______ ____
ROOT
ATOM      1  O   UNL     1       0.369  -2.339   0.099  0.00  0.00    -0.270 OA
ATOM      2  N   UNL     1       0.805  -0.446   1.364  0.00  0.00    -0.297 N 
ATOM      3  C   UNL     1      -0.022  -1.264   0.588  0.00  0.00    +0.246 C 
ATOM      4  H   UNL     1       0.430   0.392   1.720  0.00  0.00    +0.150 HD
ENDROOT
BRANCH   3   5
ATOM      5  C   UNL     1      -1.377  -0.794   0.346  0.00  0.00    +0.053 C 
ATOM      6  C   UNL     1      -3.975   0.109  -0.118  0.00  0.00    +0.122 C 
ATOM      7  C   UNL     1      -2.060  -1.194  -0.802  0.00  0.00    +0.006 C 
ATOM      8  C   UNL     1      -1.994   0.058   1.262  0.00  0.00    +0.006 C 
ATOM      9  C   UNL     1      -3.359  -0.743  -1.035  0.00  0.00    +0.020 C 
ATOM     10  C   UNL     1      -3.293   0.510   1.030  0.00  0.00    +0.020 C 
BRANCH   6  11
ATOM     11  S   UNL     1      -5.602   0.673  -0.408  0.00  0.00    +0.057 S 
ATOM     12  O   UNL     1      -6.270  -0.281  -1.282  0.00  0.00    -0.153 OA
ATOM     13  O   UNL     1      -6.204   1.028   0.869  0.00  0.00    -0.153 OA
BRANCH  11  14
ATOM     14  N   UNL     1      -5.298   2.106  -1.288  0.00  0.00    -0.203 NA
ATOM     15  H   UNL     1      -6.183   2.551  -1.530  0.00  0.00    +0.144 HD
ATOM     16  H   UNL     1      -4.787   1.879  -2.142  0.00  0.00    +0.144 HD
ENDBRANCH  11  14
ENDBRANCH   6  11
ENDBRANCH   3   5
BRANCH   2  17
ATOM     17  C   UNL     1       2.181  -0.763   1.672  0.00  0.00    +0.121 C 
BRANCH  17  21
ATOM     18  F   UNL     1       3.310   1.808   1.966  0.00  0.00    -0.204 F 
ATOM     19  F   UNL     1       2.988  -2.135  -0.659  0.00  0.00    -0.204 F 
ATOM     20  F   UNL     1       5.740   1.444  -2.078  0.00  0.00    -0.204 F 
ATOM     21  C   UNL     1       3.132  -0.174   0.671  0.00  0.00    +0.053 C 
ATOM     22  C   UNL     1       3.649   1.099   0.880  0.00  0.00    +0.142 C 
ATOM     23  C   UNL     1       3.486  -0.907  -0.456  0.00  0.00    +0.142 C 
ATOM     24  C   UNL     1       4.532   1.647  -0.051  0.00  0.00    +0.059 C 
ATOM     25  C   UNL     1       4.369  -0.359  -1.387  0.00  0.00    +0.059 C 
ATOM     26  C   UNL     1       4.892   0.918  -1.184  0.00  0.00    +0.145 C 
ENDBRANCH  17  21
ENDBRANCH   2  17
TORSDOF 5
