REMARK  Name = 445615
REMARK  3 active torsions:
REMARK  status: ('A' for Active; 'I' for Inactive)
REMARK    1  A    between atoms: C_3  and  O_10
REMARK    2  A    between atoms: C_4  and  O_12
REMARK    3  A    between atoms: C_5  and  O_14
REMARK                            x       y       z     vdW  Elec       q    Type
REMARK                         _______ _______ _______ _____ _____    ______ ____
ROOT
ATOM      1  N   UNL     1       0.823   0.801   0.071  0.00  0.00    -0.269 N 
ATOM      2  N   UNL     1       1.971  -1.092   0.077  0.00  0.00    -0.229 NA
ATOM      3  C   UNL     1      -1.725  -0.402   0.481  0.00  0.00    +0.173 C 
ATOM      4  C   UNL     1      -1.640   0.985  -0.175  0.00  0.00    +0.160 C 
ATOM      5  C   UNL     1      -0.534  -1.307   0.125  0.00  0.00    +0.194 C 
ATOM      6  C   UNL     1      -0.318   1.694   0.135  0.00  0.00    +0.128 C 
ATOM      7  C   UNL     1       0.760  -0.570   0.099  0.00  0.00    +0.142 C 
ATOM      8  C   UNL     1       2.135   1.169   0.028  0.00  0.00    +0.087 C 
ATOM      9  C   UNL     1       2.826  -0.019   0.031  0.00  0.00    +0.116 C 
ENDROOT
BRANCH   3  10
ATOM     10  O   UNL     1      -1.813  -0.259   1.898  0.00  0.00    -0.379 OA
ATOM     11  H   UNL     1      -2.565   0.312   2.119  0.00  0.00    +0.211 HD
ENDBRANCH   3  10
BRANCH   4  12
ATOM     12  O   UNL     1      -1.787   0.844  -1.586  0.00  0.00    -0.380 OA
ATOM     13  H   UNL     1      -2.625   0.394  -1.781  0.00  0.00    +0.211 HD
ENDBRANCH   4  12
BRANCH   5  14
ATOM     14  O   UNL     1      -0.698  -1.843  -1.184  0.00  0.00    -0.375 OA
ATOM     15  H   UNL     1      -1.531  -2.338  -1.229  0.00  0.00    +0.211 HD
ENDBRANCH   5  14
TORSDOF 3
