REMARK  Name = 447815
REMARK  6 active torsions:
REMARK  status: ('A' for Active; 'I' for Inactive)
REMARK    1  A    between atoms: C_6  and  C_18
REMARK    2  A    between atoms: C_18  and  N_19
REMARK    3  A    between atoms: N_19  and  C_21
REMARK    4  A    between atoms: C_24  and  O_27
REMARK    5  A    between atoms: C_25  and  O_29
REMARK    6  A    between atoms: C_26  and  O_31
REMARK                            x       y       z     vdW  Elec       q    Type
REMARK                         _______ _______ _______ _____ _____    ______ ____
ROOT
ATOM      1  N   UNL     1       1.917  -1.086  -1.775  0.00  0.00    -0.182 NA
ATOM      2  N   UNL     1       3.636   0.460  -1.888  0.00  0.00    -0.273 NA
ATOM      3  N   UNL     1       4.608   1.409   0.102  0.00  0.00    -0.312 NA
ATOM      4  N   UNL     1       3.851   0.804   2.213  0.00  0.00    -0.332 N 
ATOM      5  N   UNL     1       5.379   2.028  -2.021  0.00  0.00    -0.283 N 
ATOM      6  C   UNL     1       1.028  -1.810   0.351  0.00  0.00    +0.014 C 
ATOM      7  C   UNL     1       1.926  -0.977   0.995  0.00  0.00    -0.008 C 
ATOM      8  C   UNL     1       2.816  -0.201   0.238  0.00  0.00    +0.115 C 
ATOM      9  C   UNL     1       1.064  -1.827  -1.027  0.00  0.00    +0.108 C 
ATOM     10  C   UNL     1       2.790  -0.277  -1.160  0.00  0.00    +0.104 C 
ATOM     11  C   UNL     1       1.873  -0.969   2.492  0.00  0.00    +0.032 C 
ATOM     12  C   UNL     1       3.748   0.660   0.812  0.00  0.00    +0.201 C 
ATOM     13  C   UNL     1       4.498   1.262  -1.226  0.00  0.00    +0.206 C 
ATOM     14  H   UNL     1       4.517   1.419   2.597  0.00  0.00    +0.145 HD
ATOM     15  H   UNL     1       3.256   0.290   2.806  0.00  0.00    +0.145 HD
ATOM     16  H   UNL     1       5.342   1.959  -3.002  0.00  0.00    +0.156 HD
ATOM     17  H   UNL     1       6.029   2.631  -1.594  0.00  0.00    +0.156 HD
ENDROOT
BRANCH   6  18
ATOM     18  C   UNL     1       0.050  -2.663   1.081  0.00  0.00    +0.119 C 
BRANCH  18  19
ATOM     19  N   UNL     1      -1.264  -2.582   0.477  0.00  0.00    -0.302 N 
ATOM     20  C   UNL     1      -1.887  -3.814  -0.003  0.00  0.00    +0.112 C 
BRANCH  19  21
ATOM     21  C   UNL     1      -1.926  -1.356   0.340  0.00  0.00    +0.054 C 
ATOM     22  C   UNL     1      -1.564  -0.263   1.137  0.00  0.00    +0.055 C 
ATOM     23  C   UNL     1      -2.957  -1.210  -0.596  0.00  0.00    +0.055 C 
ATOM     24  C   UNL     1      -3.616   0.012  -0.733  0.00  0.00    +0.177 C 
ATOM     25  C   UNL     1      -2.224   0.958   1.000  0.00  0.00    +0.177 C 
ATOM     26  C   UNL     1      -3.250   1.096   0.065  0.00  0.00    +0.206 C 
BRANCH  24  27
ATOM     27  O   UNL     1      -4.617   0.133  -1.650  0.00  0.00    -0.468 OA
ATOM     28  C   UNL     1      -4.247   0.549  -2.962  0.00  0.00    +0.253 C 
ENDBRANCH  24  27
BRANCH  25  29
ATOM     29  O   UNL     1      -1.856   2.009   1.785  0.00  0.00    -0.468 OA
ATOM     30  C   UNL     1      -0.834   2.867   1.282  0.00  0.00    +0.253 C 
ENDBRANCH  25  29
BRANCH  26  31
ATOM     31  O   UNL     1      -3.894   2.290  -0.069  0.00  0.00    -0.465 OA
ATOM     32  C   UNL     1      -5.047   2.498   0.744  0.00  0.00    +0.253 C 
ENDBRANCH  26  31
ENDBRANCH  19  21
ENDBRANCH  18  19
ENDBRANCH   6  18
TORSDOF 6
