REMARK  Name = 90255
REMARK  15 active torsions:
REMARK  status: ('A' for Active; 'I' for Inactive)
REMARK    1  A    between atoms: C_1  and  O_2
REMARK    2  A    between atoms: C_1  and  C_10
REMARK    3  A    between atoms: O_2  and  C_3
REMARK    4  A    between atoms: C_3  and  C_4
REMARK    5  A    between atoms: C_4  and  O_5
REMARK    6  A    between atoms: O_5  and  C_6
REMARK    7  A    between atoms: C_6  and  C_7
REMARK    8  A    between atoms: C_7  and  O_8
REMARK    9  A    between atoms: C_10  and  O_11
REMARK   10  A    between atoms: O_11  and  C_12
REMARK   11  A    between atoms: C_12  and  C_13
REMARK   12  A    between atoms: C_13  and  O_14
REMARK   13  A    between atoms: O_14  and  C_15
REMARK   14  A    between atoms: C_15  and  C_16
REMARK   15  A    between atoms: C_16  and  O_17
REMARK                            x       y       z     vdW  Elec       q    Type
REMARK                         _______ _______ _______ _____ _____    ______ ____
ROOT
ATOM      1  C   UNL     1       0.520   3.375  -0.368  0.00  0.00    +0.174 C 
ENDROOT
BRANCH   1   2
ATOM      2  O   UNL     1      -0.408   2.521   0.289  0.00  0.00    -0.348 OA
BRANCH   2   3
ATOM      3  C   UNL     1      -1.749   2.916   0.036  0.00  0.00    +0.174 C 
BRANCH   3   4
ATOM      4  C   UNL     1      -2.689   1.972   0.760  0.00  0.00    +0.174 C 
BRANCH   4   5
ATOM      5  O   UNL     1      -2.490   0.651   0.270  0.00  0.00    -0.348 OA
BRANCH   5   6
ATOM      6  C   UNL     1      -3.332  -0.282   0.931  0.00  0.00    +0.174 C 
BRANCH   6   7
ATOM      7  C   UNL     1      -3.075  -1.667   0.367  0.00  0.00    +0.174 C 
BRANCH   7   8
ATOM      8  O   UNL     1      -3.380  -1.665  -1.022  0.00  0.00    -0.348 OA
ATOM      9  C   UNL     1      -3.136  -2.936  -1.609  0.00  0.00    +0.174 C 
ENDBRANCH   7   8
ENDBRANCH   6   7
ENDBRANCH   5   6
ENDBRANCH   4   5
ENDBRANCH   3   4
ENDBRANCH   2   3
ENDBRANCH   1   2
BRANCH   1  10
ATOM     10  C   UNL     1       1.929   2.919  -0.041  0.00  0.00    +0.174 C 
BRANCH  10  11
ATOM     11  O   UNL     1       2.093   1.575  -0.472  0.00  0.00    -0.348 OA
BRANCH  11  12
ATOM     12  C   UNL     1       3.409   1.101  -0.209  0.00  0.00    +0.174 C 
BRANCH  12  13
ATOM     13  C   UNL     1       3.522  -0.333  -0.689  0.00  0.00    +0.174 C 
BRANCH  13  14
ATOM     14  O   UNL     1       2.587  -1.135   0.019  0.00  0.00    -0.348 OA
BRANCH  14  15
ATOM     15  C   UNL     1       2.635  -2.491  -0.407  0.00  0.00    +0.174 C 
BRANCH  15  16
ATOM     16  C   UNL     1       1.618  -3.294   0.381  0.00  0.00    +0.169 C 
BRANCH  16  17
ATOM     17  O   UNL     1       1.946  -3.227   1.764  0.00  0.00    -0.379 OA
ATOM     18  H   UNL     1       1.299  -3.739   2.275  0.00  0.00    +0.211 HD
ENDBRANCH  16  17
ENDBRANCH  15  16
ENDBRANCH  14  15
ENDBRANCH  13  14
ENDBRANCH  12  13
ENDBRANCH  11  12
ENDBRANCH  10  11
ENDBRANCH   1  10
TORSDOF 15
