REMARK  Name = 447029
REMARK  3 active torsions:
REMARK  status: ('A' for Active; 'I' for Inactive)
REMARK    1  A    between atoms: N_1  and  C_4
REMARK    2  A    between atoms: N_1  and  C_8
REMARK    3  A    between atoms: N_2  and  O_11
REMARK                            x       y       z     vdW  Elec       q    Type
REMARK                         _______ _______ _______ _____ _____    ______ ____
ROOT
ATOM      1  N   UNL     1      -2.139   0.073   0.094  0.00  0.00    -0.237 N 
ATOM      2  N   UNL     1      -0.703   1.696  -0.584  0.00  0.00    -0.368 N 
ATOM      3  C   UNL     1      -0.818   0.398  -0.131  0.00  0.00    +0.215 C 
ATOM      4  H   UNL     1      -2.845   0.759   0.104  0.00  0.00    +0.197 HD
ATOM      5  H   UNL     1       0.185   2.069  -0.787  0.00  0.00    +0.159 HD
ATOM      6  H   UNL     1      -1.508   2.249  -0.703  0.00  0.00    +0.159 HD
ENDROOT
BRANCH   1   7
ATOM      7  O   UNL     1      -2.423  -1.259   0.305  0.00  0.00    -0.287 OA
ATOM      8  H   UNL     1      -3.376  -1.368   0.451  0.00  0.00    +0.244 HD
ENDBRANCH   1   7
BRANCH   3   9
ATOM      9  N   UNL     1       0.153  -0.441   0.080  0.00  0.00    -0.240 NA
BRANCH   9  10
ATOM     10  C   UNL     1       1.508   0.022  -0.191  0.00  0.00    +0.106 C 
ATOM     11  C   UNL     1       2.068   0.671   1.066  0.00  0.00    +0.026 C 
ATOM     12  C   UNL     1       2.354  -1.160  -0.640  0.00  0.00    +0.026 C 
ENDBRANCH   9  10
ENDBRANCH   3   9
TORSDOF 3
