REMARK  Name = 218
REMARK  2 active torsions:
REMARK  status: ('A' for Active; 'I' for Inactive)
REMARK    1  A    between atoms: CA_9  and  C_17
REMARK    2  A    between atoms: C_17  and  O_18
REMARK                            x       y       z     vdW  Elec       q    Type
REMARK                         _______ _______ _______ _____ _____    ______ ____
ROOT
ATOM      1  O   UNL     1       0.822  -2.585   0.118  0.00  0.00    -0.207 OA
ATOM      2  N   UNL     1      -0.533   1.920   0.076  0.00  0.00    -0.271 NA
ATOM      3  N   UNL     1       1.786   1.260  -0.074  0.00  0.00    -0.279 N 
ATOM      4  N   UNL     1      -1.221  -0.772   0.214  0.00  0.00    -0.395 NA
ATOM      5  N   UNL     1       2.468  -0.996  -0.053  0.00  0.00    -0.301 NA
ATOM      6  N   UNL     1       4.025   0.759  -0.225  0.00  0.00    -0.320 N 
ATOM      7  C   UNL     1      -1.938   1.623   0.180  0.00  0.00    +0.128 C 
ATOM      8  C   UNL     1       0.449   0.957   0.034  0.00  0.00    +0.197 C 
ATOM      9  CA  UNL     1      -2.161   0.125   0.251  0.00  0.00    +0.133 C 
ATOM     10  C   UNL     1       0.078  -0.339   0.103  0.00  0.00    +0.235 C 
ATOM     11  C   UNL     1       1.148  -1.402   0.057  0.00  0.00    +0.236 C 
ATOM     12  C   UNL     1       2.746   0.280  -0.114  0.00  0.00    +0.245 C 
ATOM     13  H   UNL     1      -0.260   2.865   0.032  0.00  0.00    +0.125 HD
ATOM     14  H   UNL     1       2.062   2.204  -0.124  0.00  0.00    +0.152 HD
ATOM     15  H   UNL     1       4.185   1.729  -0.267  0.00  0.00    +0.146 HD
ATOM     16  H   UNL     1       4.784   0.133  -0.262  0.00  0.00    +0.146 HD
ENDROOT
BRANCH   9  17
ATOM     17  C   UNL     1      -3.589  -0.344   0.373  0.00  0.00    +0.193 C 
BRANCH  17  18
ATOM     18  O   UNL     1      -4.079  -0.484  -0.939  0.00  0.00    -0.375 OA
ATOM     19  H   UNL     1      -5.001  -0.786  -0.909  0.00  0.00    +0.211 HD
ENDBRANCH  17  18
ENDBRANCH   9  17
TORSDOF 2
