REMARK  Name = 3534
REMARK  3 active torsions:
REMARK  status: ('A' for Active; 'I' for Inactive)
REMARK    1  A    between atoms: C_5  and  S_17
REMARK    2  A    between atoms: S_17  and  C_21
REMARK    3  A    between atoms: C_18  and  N_25
REMARK                            x       y       z     vdW  Elec       q    Type
REMARK                         _______ _______ _______ _____ _____    ______ ____
ROOT
ATOM      1  N   UNL     1       4.688  -1.533  -0.256  0.00  0.00    -0.332 NA
ATOM      2  N   UNL     1       4.682   0.012   1.593  0.00  0.00    -0.317 NA
ATOM      3  N   UNL     1       3.171   1.741   1.747  0.00  0.00    -0.335 N 
ATOM      4  N   UNL     1       6.246  -1.729   1.488  0.00  0.00    -0.283 N 
ATOM      5  C   UNL     1       1.977   0.900  -0.780  0.00  0.00    +0.022 C 
ATOM      6  C   UNL     1       3.068   0.234  -0.193  0.00  0.00    +0.149 C 
ATOM      7  C   UNL     1       3.645  -0.889  -0.808  0.00  0.00    +0.135 C 
ATOM      8  C   UNL     1       1.454   0.448  -1.987  0.00  0.00    +0.003 C 
ATOM      9  C   UNL     1       3.638   0.634   1.012  0.00  0.00    +0.178 C 
ATOM     10  C   UNL     1       3.101  -1.319  -2.016  0.00  0.00    +0.029 C 
ATOM     11  C   UNL     1       2.017  -0.663  -2.606  0.00  0.00    +0.003 C 
ATOM     12  C   UNL     1       5.150  -1.047   0.914  0.00  0.00    +0.197 C 
ATOM     13  H   UNL     1       3.605   1.988   2.595  0.00  0.00    +0.144 HD
ATOM     14  H   UNL     1       2.410   2.268   1.412  0.00  0.00    +0.144 HD
ATOM     15  H   UNL     1       6.630  -2.513   1.034  0.00  0.00    +0.156 HD
ATOM     16  H   UNL     1       6.625  -1.420   2.342  0.00  0.00    +0.156 HD
ENDROOT
BRANCH   5  17
ATOM     17  S   UNL     1       1.095   2.346  -0.164  0.00  0.00    -0.090 S 
BRANCH  17  21
ATOM     18  C   UNL     1      -3.022   0.385   0.166  0.00  0.00    +0.048 C 
ATOM     19  C   UNL     1      -1.947  -0.122   0.895  0.00  0.00    +0.015 C 
ATOM     20  C   UNL     1      -2.841   1.491  -0.665  0.00  0.00    +0.015 C 
ATOM     21  C   UNL     1      -0.510   1.582  -0.035  0.00  0.00    +0.029 C 
ATOM     22  C   UNL     1      -0.691   0.476   0.795  0.00  0.00    +0.008 C 
ATOM     23  C   UNL     1      -1.585   2.090  -0.765  0.00  0.00    +0.008 C 
BRANCH  18  25
ATOM     24  O   UNL     1      -6.808  -1.443   0.192  0.00  0.00    -0.350 OA
ATOM     25  N   UNL     1      -4.281  -0.215   0.266  0.00  0.00    -0.303 N 
ATOM     26  C   UNL     1      -4.409  -1.627  -0.118  0.00  0.00    +0.123 C 
ATOM     27  C   UNL     1      -5.493   0.593   0.089  0.00  0.00    +0.123 C 
ATOM     28  C   UNL     1      -5.659  -2.223   0.521  0.00  0.00    +0.164 C 
ATOM     29  C   UNL     1      -6.685  -0.121   0.716  0.00  0.00    +0.164 C 
ENDBRANCH  18  25
ENDBRANCH  17  21
ENDBRANCH   5  17
TORSDOF 3
