REMARK  Name = 1712076
REMARK  6 active torsions:
REMARK  status: ('A' for Active; 'I' for Inactive)
REMARK    1  A    between atoms: C_1  and  C_2
REMARK    2  A    between atoms: C_1  and  C_7
REMARK    3  A    between atoms: C_2  and  O_5
REMARK    4  A    between atoms: C_7  and  C_8
REMARK    5  A    between atoms: C_8  and  C_9
REMARK    6  A    between atoms: C_9  and  C_11
REMARK                            x       y       z     vdW  Elec       q    Type
REMARK                         _______ _______ _______ _____ _____    ______ ____
ROOT
ATOM      1  C   UNL     1       1.331   0.818   0.216  0.00  0.00    +0.027 C 
ENDROOT
BRANCH   1   2
ATOM      2  C   UNL     1       2.596  -0.043   0.021  0.00  0.00    +0.088 C 
ATOM      3  C   UNL     1       2.870  -0.355  -1.452  0.00  0.00    +0.029 C 
ATOM      4  C   UNL     1       2.549  -1.335   0.837  0.00  0.00    +0.029 C 
BRANCH   2   5
ATOM      5  O   UNL     1       3.708   0.714   0.517  0.00  0.00    -0.387 OA
ATOM      6  H   UNL     1       3.778   1.547   0.026  0.00  0.00    +0.210 HD
ENDBRANCH   2   5
ENDBRANCH   1   2
BRANCH   1   7
ATOM      7  C   UNL     1       0.017   0.169  -0.230  0.00  0.00    +0.003 C 
BRANCH   7   8
ATOM      8  C   UNL     1      -1.178   1.083   0.077  0.00  0.00    +0.004 C 
BRANCH   8   9
ATOM      9  C   UNL     1      -2.535   0.446  -0.285  0.00  0.00    +0.022 C 
ATOM     10  C   UNL     1      -3.673   1.405   0.072  0.00  0.00    +0.005 C 
BRANCH   9  11
ATOM     11  C   UNL     1      -2.747  -0.868   0.427  0.00  0.00    -0.026 C 
ATOM     12  C   UNL     1      -2.938  -2.034  -0.200  0.00  0.00    -0.005 C 
ENDBRANCH   9  11
ENDBRANCH   8   9
ENDBRANCH   7   8
ENDBRANCH   1   7
TORSDOF 6
