REMARK  Name = 447845
REMARK  4 active torsions:
REMARK  status: ('A' for Active; 'I' for Inactive)
REMARK    1  A    between atoms: C_2  and  N_8
REMARK    2  A    between atoms: C_3  and  O_12
REMARK    3  A    between atoms: C_5  and  O_14
REMARK    4  A    between atoms: C_6  and  O_16
REMARK                            x       y       z     vdW  Elec       q    Type
REMARK                         _______ _______ _______ _____ _____    ______ ____
ROOT
ATOM      1  O   UNL     1      -0.047  -1.593  -0.193  0.00  0.00    -0.333 OA
ATOM      2  C   UNL     1      -1.243   0.522  -0.207  0.00  0.00    -0.008 C 
ATOM      3  C   UNL     1       0.051   1.252   0.186  0.00  0.00    +0.125 C 
ATOM      4  C   UNL     1      -1.214  -0.928   0.308  0.00  0.00    +0.101 C 
ATOM      5  C   UNL     1       1.283   0.432  -0.200  0.00  0.00    +0.192 C 
ATOM      6  C   UNL     1       1.164  -1.012   0.282  0.00  0.00    +0.262 C 
ATOM      7  C   UNL     1      -2.415  -1.749  -0.156  0.00  0.00    +0.030 C 
ENDROOT
BRANCH   2   8
ATOM      8  N   UNL     1      -2.393   1.269   0.308  0.00  0.00    +0.385 N 
ATOM      9  H   UNL     1      -2.372   2.221  -0.058  0.00  0.00    -0.089 HD
ATOM     10  H   UNL     1      -2.353   1.295   1.327  0.00  0.00    -0.089 HD
ATOM     11  H   UNL     1      -3.255   0.811   0.013  0.00  0.00    -0.089 HD
ENDBRANCH   2   8
BRANCH   3  12
ATOM     12  O   UNL     1       0.104   2.506  -0.497  0.00  0.00    -0.384 OA
ATOM     13  H   UNL     1      -0.673   3.036  -0.260  0.00  0.00    +0.210 HD
ENDBRANCH   3  12
BRANCH   5  14
ATOM     14  O   UNL     1       2.429   1.038   0.396  0.00  0.00    -0.378 OA
ATOM     15  H   UNL     1       2.506   1.956   0.090  0.00  0.00    +0.211 HD
ENDBRANCH   5  14
BRANCH   6  16
ATOM     16  O   UNL     1       2.281  -1.737  -0.229  0.00  0.00    -0.358 OA
ATOM     17  H   UNL     1       2.229  -2.660   0.064  0.00  0.00    +0.213 HD
ENDBRANCH   6  16
TORSDOF 4
