REMARK  Name = 4635864
REMARK  6 active torsions:
REMARK  status: ('A' for Active; 'I' for Inactive)
REMARK    1  A    between atoms: C_1  and  N_2
REMARK    2  A    between atoms: C_1  and  N_6
REMARK    3  A    between atoms: C_1  and  N_10
REMARK    4  A    between atoms: N_10  and  C_13
REMARK    5  A    between atoms: C_13  and  C_15
REMARK    6  A    between atoms: C_15  and  O_16
REMARK                            x       y       z     vdW  Elec       q    Type
REMARK                         _______ _______ _______ _____ _____    ______ ____
ROOT
ATOM      1  C   UNL     1       1.898  -0.078   0.269  0.00  0.00    -0.211 C 
ENDROOT
BRANCH   1   2
ATOM      2  N   UNL     1       2.196  -1.456  -0.126  0.00  0.00    +0.359 N 
ATOM      3  H   UNL     1       1.818  -2.099   0.570  0.00  0.00    -0.095 HD
ATOM      4  H   UNL     1       3.206  -1.581  -0.191  0.00  0.00    -0.095 HD
ATOM      5  H   UNL     1       1.771  -1.649  -1.033  0.00  0.00    -0.095 HD
ENDBRANCH   1   2
BRANCH   1   6
ATOM      6  N   UNL     1       2.441   0.840  -0.732  0.00  0.00    +0.359 N 
ATOM      7  H   UNL     1       2.235   1.801  -0.459  0.00  0.00    -0.095 HD
ATOM      8  H   UNL     1       2.016   0.645  -1.638  0.00  0.00    -0.095 HD
ATOM      9  H   UNL     1       3.452   0.714  -0.795  0.00  0.00    -0.095 HD
ENDBRANCH   1   6
BRANCH   1  10
ATOM     10  N   UNL     1       0.453   0.090   0.519  0.00  0.00    +0.371 N 
ATOM     11  C   UNL     1       0.126   1.429   1.008  0.00  0.00    -0.106 C 
ATOM     12  H   UNL     1       0.246  -0.584   1.257  0.00  0.00    -0.085 HD
BRANCH  10  13
ATOM     13  C   UNL     1      -0.400  -0.267  -0.616  0.00  0.00    +0.029 C 
BRANCH  13  15
ATOM     14  O   UNL     1      -2.283  -0.943   0.729  0.00  0.00    -0.253 OA
ATOM     15  C   UNL     1      -1.835  -0.238  -0.167  0.00  0.00    +0.292 C 
BRANCH  15  16
ATOM     16  O   UNL     1      -2.597   0.624  -0.886  0.00  0.00    -0.482 OA
ATOM     17  H   UNL     1      -2.207   1.142  -1.562  0.00  0.00    +0.295 HD
ENDBRANCH  15  16
ENDBRANCH  13  15
ENDBRANCH  10  13
ENDBRANCH   1  10
TORSDOF 6
