REMARK  Name = 5497016
REMARK  12 active torsions:
REMARK  status: ('A' for Active; 'I' for Inactive)
REMARK    1  A    between atoms: C_1  and  C_2
REMARK    2  A    between atoms: C_1  and  C_8
REMARK    3  A    between atoms: C_1  and  C_17
REMARK    4  A    between atoms: C_2  and  N_4
REMARK    5  A    between atoms: C_8  and  C_9
REMARK    6  A    between atoms: C_9  and  C_10
REMARK    7  A    between atoms: C_10  and  C_11
REMARK    8  A    between atoms: C_11  and  C_12
REMARK    9  A    between atoms: C_12  and  C_14
REMARK   10  A    between atoms: C_14  and  O_15
REMARK   11  A    between atoms: C_17  and  C_19
REMARK   12  A    between atoms: C_19  and  O_20
REMARK                            x       y       z     vdW  Elec       q    Type
REMARK                         _______ _______ _______ _____ _____    ______ ____
ROOT
ATOM      1  C   UNL     1       2.153  -0.380  -0.354  0.00  0.00    -0.009 C 
ENDROOT
BRANCH   1   2
ATOM      2  C   UNL     1       3.337  -1.366  -0.121  0.00  0.00    -0.065 C 
ATOM      3  C   UNL     1       3.152  -2.695  -0.859  0.00  0.00    -0.024 C 
BRANCH   2   4
ATOM      4  N   UNL     1       3.591  -1.652   1.292  0.00  0.00    +0.382 N 
ATOM      5  H   UNL     1       3.716  -0.775   1.799  0.00  0.00    -0.089 HD
ATOM      6  H   UNL     1       4.434  -2.218   1.378  0.00  0.00    -0.089 HD
ATOM      7  H   UNL     1       2.798  -2.160   1.683  0.00  0.00    -0.089 HD
ENDBRANCH   2   4
ENDBRANCH   1   2
BRANCH   1   8
ATOM      8  C   UNL     1       0.783  -0.985   0.063  0.00  0.00    -0.002 C 
BRANCH   8   9
ATOM      9  C   UNL     1      -0.417  -0.096  -0.281  0.00  0.00    -0.000 C 
BRANCH   9  10
ATOM     10  C   UNL     1      -1.757  -0.692   0.158  0.00  0.00    +0.001 C 
BRANCH  10  11
ATOM     11  C   UNL     1      -3.006   0.146  -0.142  0.00  0.00    +0.012 C 
BRANCH  11  12
ATOM     12  C   UNL     1      -4.323  -0.515   0.263  0.00  0.00    +0.109 C 
BRANCH  12  14
ATOM     13  O   UNL     1      -5.524   1.420  -0.557  0.00  0.00    -0.250 OA
ATOM     14  C   UNL     1      -5.541   0.331   0.001  0.00  0.00    +0.314 C 
BRANCH  14  15
ATOM     15  O   UNL     1      -6.672  -0.283   0.424  0.00  0.00    -0.480 OA
ATOM     16  H   UNL     1      -6.622  -1.118   0.846  0.00  0.00    +0.295 HD
ENDBRANCH  14  15
ENDBRANCH  12  14
ENDBRANCH  11  12
ENDBRANCH  10  11
ENDBRANCH   9  10
ENDBRANCH   8   9
ENDBRANCH   1   8
BRANCH   1  17
ATOM     17  C   UNL     1       2.350   0.978   0.363  0.00  0.00    +0.107 C 
BRANCH  17  19
ATOM     18  O   UNL     1       4.140   1.637  -1.157  0.00  0.00    -0.250 OA
ATOM     19  C   UNL     1       3.620   1.695  -0.052  0.00  0.00    +0.314 C 
BRANCH  19  20
ATOM     20  O   UNL     1       4.114   2.457   0.959  0.00  0.00    -0.480 OA
ATOM     21  H   UNL     1       3.682   2.471   1.790  0.00  0.00    +0.295 HD
ENDBRANCH  19  20
ENDBRANCH  17  19
ENDBRANCH   1  17
TORSDOF 12
