REMARK  Name = 337359
REMARK  0 active torsions:
REMARK  status: ('A' for Active; 'I' for Inactive)
REMARK                            x       y       z     vdW  Elec       q    Type
REMARK                         _______ _______ _______ _____ _____    ______ ____
ROOT
ATOM      1  F   UNL     1      -2.647   2.898  -0.282  0.00  0.00    -0.204 F 
ATOM      2  O   UNL     1      -1.314  -2.389   0.414  0.00  0.00    -0.476 OA
ATOM      3  O   UNL     1       1.343  -0.705  -2.166  0.00  0.00    -0.273 OA
ATOM      4  O   UNL     1       3.527   1.806   0.985  0.00  0.00    -0.252 OA
ATOM      5  N   UNL     1       1.659   0.407   1.113  0.00  0.00    -0.281 N 
ATOM      6  N   UNL     1       2.689   0.640  -0.844  0.00  0.00    -0.238 N 
ATOM      7  C   UNL     1       0.893  -0.463   0.234  0.00  0.00    +0.153 C 
ATOM      8  C   UNL     1       1.066  -1.919   0.680  0.00  0.00    +0.079 C 
ATOM      9  C   UNL     1      -0.564  -0.076   0.144  0.00  0.00    +0.038 C 
ATOM     10  C   UNL     1       1.640  -0.214  -1.084  0.00  0.00    +0.249 C 
ATOM     11  C   UNL     1       0.003  -2.795   0.037  0.00  0.00    +0.208 C 
ATOM     12  C   UNL     1      -1.568  -1.052   0.239  0.00  0.00    +0.137 C 
ATOM     13  C   UNL     1       2.725   1.038   0.472  0.00  0.00    +0.307 C 
ATOM     14  C   UNL     1      -0.951   1.262  -0.045  0.00  0.00    +0.030 C 
ATOM     15  C   UNL     1      -2.919  -0.693   0.193  0.00  0.00    +0.039 C 
ATOM     16  C   UNL     1      -2.300   1.616  -0.107  0.00  0.00    +0.140 C 
ATOM     17  C   UNL     1      -3.283   0.639   0.017  0.00  0.00    +0.033 C 
ATOM     18  H   UNL     1       1.446   0.537   2.065  0.00  0.00    +0.152 HD
ATOM     19  H   UNL     1       3.335   0.931  -1.528  0.00  0.00    +0.159 HD
ENDROOT
TORSDOF 0
