REMARK  Name = 5287884
REMARK  4 active torsions:
REMARK  status: ('A' for Active; 'I' for Inactive)
REMARK    1  A    between atoms: C_3  and  C_10
REMARK    2  A    between atoms: C_10  and  C_11
REMARK    3  A    between atoms: C_11  and  O_12
REMARK    4  A    between atoms: C_11  and  O_14
REMARK                            x       y       z     vdW  Elec       q    Type
REMARK                         _______ _______ _______ _____ _____    ______ ____
ROOT
ATOM      1  O   UNL     1       2.336   2.191  -0.483  0.00  0.00    -0.296 OA
ATOM      2  C   UNL     1       0.893  -1.059  -0.169  0.00  0.00    +0.007 C 
ATOM      3  C   UNL     1      -0.289  -0.102   0.160  0.00  0.00    +0.013 C 
ATOM      4  C   UNL     1       2.144  -0.162   0.070  0.00  0.00    +0.058 C 
ATOM      5  C   UNL     1       0.120   1.249  -0.434  0.00  0.00    +0.065 C 
ATOM      6  C   UNL     1       1.621   1.213  -0.305  0.00  0.00    +0.150 C 
ATOM      7  C   UNL     1       0.883  -1.529  -1.641  0.00  0.00    +0.000 C 
ATOM      8  C   UNL     1       0.858  -2.309   0.723  0.00  0.00    +0.000 C 
ATOM      9  C   UNL     1       2.674  -0.108   1.499  0.00  0.00    +0.008 C 
ENDROOT
BRANCH   3  10
ATOM     10  C   UNL     1      -1.665  -0.542  -0.327  0.00  0.00    +0.061 C 
BRANCH  10  11
ATOM     11  C   UNL     1      -2.747   0.476   0.011  0.00  0.00    +0.228 C 
BRANCH  11  12
ATOM     12  O   UNL     1      -2.849   0.678   1.415  0.00  0.00    -0.360 OA
ATOM     13  H   UNL     1      -2.000   0.999   1.757  0.00  0.00    +0.213 HD
ENDBRANCH  11  12
BRANCH  11  14
ATOM     14  O   UNL     1      -3.980   0.004  -0.517  0.00  0.00    -0.360 OA
ATOM     15  H   UNL     1      -3.893  -0.128  -1.474  0.00  0.00    +0.213 HD
ENDBRANCH  11  14
ENDBRANCH  10  11
ENDBRANCH   3  10
TORSDOF 4
