REMARK  Name = 69846
REMARK  0 active torsions:
REMARK  status: ('A' for Active; 'I' for Inactive)
REMARK                            x       y       z     vdW  Elec       q    Type
REMARK                         _______ _______ _______ _____ _____    ______ ____
ROOT
ATOM      1 BR   UNL     1      -2.412  -1.919   0.000  0.00  0.00    -0.056 Br
ATOM      2  N   UNL     1      -1.807   0.806   0.000  0.00  0.00    -0.263 NA
ATOM      3  N   UNL     1       0.314   1.904   0.000  0.00  0.00    -0.201 NA
ATOM      4  N   UNL     1       0.941  -1.623   0.000  0.00  0.00    -0.236 NA
ATOM      5  N   UNL     1       2.143   0.344   0.000  0.00  0.00    -0.192 NA
ATOM      6  C   UNL     1       0.073  -0.570   0.000  0.00  0.00    +0.142 C 
ATOM      7  C   UNL     1       0.882   0.656   0.000  0.00  0.00    +0.045 C 
ATOM      8  C   UNL     1      -1.259  -0.461   0.000  0.00  0.00    +0.163 C 
ATOM      9  C   UNL     1      -0.987   1.910   0.000  0.00  0.00    +0.209 C 
ATOM     10  C   UNL     1       2.112  -1.047   0.000  0.00  0.00    +0.261 C 
ATOM     11  H   UNL     1      -2.785   0.919   0.000  0.00  0.00    +0.126 HD
ENDROOT
TORSDOF 0
