REMARK  Name = 447736
REMARK  4 active torsions:
REMARK  status: ('A' for Active; 'I' for Inactive)
REMARK    1  A    between atoms: N_2  and  C_13
REMARK    2  A    between atoms: C_3  and  C_20
REMARK    3  A    between atoms: C_6  and  C_17
REMARK    4  A    between atoms: C_28  and  C_32
REMARK                            x       y       z     vdW  Elec       q    Type
REMARK                         _______ _______ _______ _____ _____    ______ ____
ROOT
ATOM      1  O   UNL     1       0.161  -2.424   0.620  0.00  0.00    -0.270 OA
ATOM      2  N   UNL     1      -0.846  -0.384   0.027  0.00  0.00    -0.280 N 
ATOM      3  C   UNL     1       0.227  -1.238   0.316  0.00  0.00    +0.249 C 
ATOM      4  H   UNL     1      -0.610   0.545  -0.199  0.00  0.00    +0.155 HD
ENDROOT
BRANCH   2  13
ATOM      5  N   UNL     1      -6.929   0.715  -0.350  0.00  0.00    +0.388 N 
ATOM      6  C   UNL     1      -5.538   1.086  -0.678  0.00  0.00    -0.039 C 
ATOM      7  C   UNL     1      -4.517   0.020  -0.302  0.00  0.00    -0.045 C 
ATOM      8  C   UNL     1      -4.936  -1.298  -0.027  0.00  0.00    -0.030 C 
ATOM      9  C   UNL     1      -6.400  -1.657  -0.039  0.00  0.00    +0.003 C 
ATOM     10  C   UNL     1      -7.232  -0.638  -0.813  0.00  0.00    -0.076 C 
ATOM     11  C   UNL     1      -3.141   0.301  -0.298  0.00  0.00    +0.008 C 
ATOM     12  C   UNL     1      -3.992  -2.281   0.304  0.00  0.00    -0.003 C 
ATOM     13  C   UNL     1      -2.208  -0.688   0.021  0.00  0.00    +0.050 C 
ATOM     14  C   UNL     1      -2.633  -1.976   0.328  0.00  0.00    +0.014 C 
ATOM     15  H   UNL     1      -7.565   1.372  -0.802  0.00  0.00    -0.084 HD
ATOM     16  H   UNL     1      -7.044   0.745   0.663  0.00  0.00    -0.084 HD
BRANCH   6  17
ATOM     17  C   UNL     1      -5.276   2.440  -0.006  0.00  0.00    -0.015 C 
ATOM     18  C   UNL     1      -6.313   3.464  -0.454  0.00  0.00    -0.002 C 
ATOM     19  C   UNL     1      -5.283   2.289   1.511  0.00  0.00    -0.002 C 
ENDBRANCH   6  17
ENDBRANCH   2  13
BRANCH   3  20
ATOM     20  C   UNL     1       1.572  -0.608   0.267  0.00  0.00    +0.054 C 
ATOM     21  C   UNL     1       3.944  -0.818  -0.073  0.00  0.00    +0.000 C 
ATOM     22  C   UNL     1       2.665  -1.398  -0.024  0.00  0.00    +0.005 C 
ATOM     23  C   UNL     1       4.086   0.568   0.178  0.00  0.00    +0.000 C 
ATOM     24  C   UNL     1       1.683   0.740   0.515  0.00  0.00    +0.005 C 
ATOM     25  C   UNL     1       2.945   1.333   0.471  0.00  0.00    +0.000 C 
ATOM     26  C   UNL     1       5.364   1.147   0.129  0.00  0.00    +0.003 C 
ATOM     27  C   UNL     1       5.084  -1.583  -0.366  0.00  0.00    +0.000 C 
ATOM     28  C   UNL     1       6.486   0.372  -0.164  0.00  0.00    +0.031 C 
ATOM     29  C   UNL     1       6.346  -0.991  -0.411  0.00  0.00    +0.003 C 
BRANCH  28  32
ATOM     30  N   UNL     1       8.943   0.239  -0.499  0.00  0.00    -0.343 N 
ATOM     31  N   UNL     1       7.934   2.280   0.028  0.00  0.00    -0.285 NA
ATOM     32  C   UNL     1       7.803   0.987  -0.210  0.00  0.00    +0.117 C 
ATOM     33  H   UNL     1       9.825   0.676  -0.526  0.00  0.00    +0.144 HD
ATOM     34  H   UNL     1       8.866  -0.726  -0.677  0.00  0.00    +0.144 HD
ATOM     35  H   UNL     1       8.825   2.698  -0.003  0.00  0.00    +0.188 HD
ENDBRANCH  28  32
ENDBRANCH   3  20
TORSDOF 4
