REMARK  Name = 79124
REMARK  1 active torsions:
REMARK  status: ('A' for Active; 'I' for Inactive)
REMARK    1  A    between atoms: N_2  and  C_3
REMARK                            x       y       z     vdW  Elec       q    Type
REMARK                         _______ _______ _______ _____ _____    ______ ____
ROOT
ATOM      1  O   UNL     1       1.596   0.115  -0.324  0.00  0.00    -0.100 OA
ATOM      2  N   UNL     1       0.637   0.141   0.467  0.00  0.00    -0.048 NA
ENDROOT
BRANCH   2   3
ATOM      3  C   UNL     1      -0.526  -0.599  -0.022  0.00  0.00    +0.125 C 
ATOM      4  C   UNL     1      -1.707   0.344  -0.121  0.00  0.00    +0.023 C 
ENDBRANCH   2   3
TORSDOF 1
