REMARK  Name = 6076
REMARK  3 active torsions:
REMARK  status: ('A' for Active; 'I' for Inactive)
REMARK    1  A    between atoms: P_1  and  O_25
REMARK    2  A    between atoms: C_8  and  O_23
REMARK    3  A    between atoms: C_9  and  N_11
REMARK                            x       y       z     vdW  Elec       q    Type
REMARK                         _______ _______ _______ _____ _____    ______ ____
ROOT
ATOM      1  P   UNL     1       4.516   0.279  -0.642  0.00  0.00    +0.476 P 
ATOM      2  O   UNL     1       0.854  -0.015   1.639  0.00  0.00    -0.333 OA
ATOM      3  O   UNL     1       3.211  -0.636  -0.974  0.00  0.00    -0.271 OA
ATOM      4  O   UNL     1       4.420   0.626   0.943  0.00  0.00    -0.271 OA
ATOM      5  O   UNL     1       5.821  -0.338  -1.056  0.00  0.00    -0.227 OA
ATOM      6  C   UNL     1       2.007  -0.229  -0.365  0.00  0.00    +0.186 C 
ATOM      7  C   UNL     1       2.180  -0.175   1.138  0.00  0.00    +0.177 C 
ATOM      8  C   UNL     1       0.824  -1.162  -0.487  0.00  0.00    +0.188 C 
ATOM      9  C   UNL     1      -0.017  -0.750   0.736  0.00  0.00    +0.225 C 
ATOM     10  C   UNL     1       3.148   0.927   1.519  0.00  0.00    +0.186 C 
ENDROOT
BRANCH   9  11
ATOM     11  N   UNL     1      -1.177   0.076   0.397  0.00  0.00    -0.247 N 
ATOM     12  N   UNL     1      -2.377   1.900  -0.053  0.00  0.00    -0.242 NA
ATOM     13  N   UNL     1      -2.903  -1.620   0.189  0.00  0.00    -0.228 NA
ATOM     14  N   UNL     1      -5.057  -0.627  -0.388  0.00  0.00    -0.229 NA
ATOM     15  C   UNL     1      -2.450  -0.358   0.160  0.00  0.00    +0.152 C 
ATOM     16  C   UNL     1      -1.183   1.439   0.258  0.00  0.00    +0.223 C 
ATOM     17  C   UNL     1      -3.178   0.788  -0.117  0.00  0.00    +0.140 C 
ATOM     18  C   UNL     1      -4.531   0.621  -0.399  0.00  0.00    +0.143 C 
ATOM     19  C   UNL     1      -4.223  -1.655  -0.099  0.00  0.00    +0.253 C 
ATOM     20  N   UNL     1      -5.344   1.729  -0.693  0.00  0.00    -0.342 N 
ATOM     21  H   UNL     1      -6.300   1.599  -0.891  0.00  0.00    +0.144 HD
ATOM     22  H   UNL     1      -4.959   2.635  -0.701  0.00  0.00    +0.144 HD
ENDBRANCH   9  11
BRANCH   8  23
ATOM     23  O   UNL     1       1.248  -2.513  -0.336  0.00  0.00    -0.378 OA
ATOM     24  H   UNL     1       1.777  -2.774  -1.105  0.00  0.00    +0.211 HD
ENDBRANCH   8  23
BRANCH   1  25
ATOM     25  O   UNL     1       4.210   1.693  -1.370  0.00  0.00    -0.302 OA
ATOM     26  H   UNL     1       3.358   2.038  -1.062  0.00  0.00    +0.222 HD
ENDBRANCH   1  25
TORSDOF 3
