REMARK  Name = 446903
REMARK  5 active torsions:
REMARK  status: ('A' for Active; 'I' for Inactive)
REMARK    1  A    between atoms: C_7  and  C_12
REMARK    2  A    between atoms: C_12  and  C_13
REMARK    3  A    between atoms: C_13  and  C_14
REMARK    4  A    between atoms: C_14  and  C_16
REMARK    5  A    between atoms: C_16  and  O_17
REMARK                            x       y       z     vdW  Elec       q    Type
REMARK                         _______ _______ _______ _____ _____    ______ ____
ROOT
ATOM      1  S   UNL     1      -1.902   2.035   0.967  0.00  0.00    -0.138 S 
ATOM      2  O   UNL     1      -2.713  -2.664   0.826  0.00  0.00    -0.253 OA
ATOM      3  N   UNL     1      -1.179  -1.071   0.051  0.00  0.00    -0.288 N 
ATOM      4  N   UNL     1      -3.368  -0.760  -0.372  0.00  0.00    -0.288 N 
ATOM      5  C   UNL     1      -1.217   0.144  -0.741  0.00  0.00    +0.102 C 
ATOM      6  C   UNL     1      -2.725   0.398  -0.961  0.00  0.00    +0.103 C 
ATOM      7  C   UNL     1      -0.576   1.361  -0.067  0.00  0.00    +0.067 C 
ATOM      8  C   UNL     1      -3.166   1.690  -0.277  0.00  0.00    +0.079 C 
ATOM      9  C   UNL     1      -2.452  -1.621   0.241  0.00  0.00    +0.301 C 
ATOM     10  H   UNL     1      -0.353  -1.464   0.413  0.00  0.00    +0.151 HD
ATOM     11  H   UNL     1      -4.339  -0.922  -0.400  0.00  0.00    +0.151 HD
ENDROOT
BRANCH   7  12
ATOM     12  C   UNL     1       0.686   1.082   0.732  0.00  0.00    +0.013 C 
BRANCH  12  13
ATOM     13  C   UNL     1       1.825   0.500  -0.107  0.00  0.00    +0.013 C 
BRANCH  13  14
ATOM     14  C   UNL     1       3.103   0.253   0.695  0.00  0.00    +0.109 C 
BRANCH  14  16
ATOM     15  O   UNL     1       4.125  -0.548  -1.365  0.00  0.00    -0.250 OA
ATOM     16  C   UNL     1       4.212  -0.302  -0.170  0.00  0.00    +0.314 C 
BRANCH  16  17
ATOM     17  O   UNL     1       5.349  -0.498   0.547  0.00  0.00    -0.480 OA
ATOM     18  H   UNL     1       5.367  -0.295   1.462  0.00  0.00    +0.295 HD
ENDBRANCH  16  17
ENDBRANCH  14  16
ENDBRANCH  13  14
ENDBRANCH  12  13
ENDBRANCH   7  12
TORSDOF 5
