REMARK  Name = 697959
REMARK  5 active torsions:
REMARK  status: ('A' for Active; 'I' for Inactive)
REMARK    1  A    between atoms: C_1  and  C_11
REMARK    2  A    between atoms: C_2  and  C_8
REMARK    3  A    between atoms: C_8  and  O_9
REMARK    4  A    between atoms: C_12  and  C_14
REMARK    5  A    between atoms: C_14  and  O_15
REMARK                            x       y       z     vdW  Elec       q    Type
REMARK                         _______ _______ _______ _____ _____    ______ ____
ROOT
ATOM      1  C   UNL     1      -0.412  -0.332  -0.078  0.00  0.00    +0.000 C 
ATOM      2  C   UNL     1       2.359  -0.021   0.001  0.00  0.00    +0.075 C 
ATOM      3  C   UNL     1       0.150   0.941  -0.178  0.00  0.00    +0.000 C 
ATOM      4  C   UNL     1       0.412  -1.449   0.063  0.00  0.00    +0.000 C 
ATOM      5  C   UNL     1       1.536   1.096  -0.139  0.00  0.00    +0.006 C 
ATOM      6  C   UNL     1       1.797  -1.293   0.102  0.00  0.00    +0.006 C 
ENDROOT
BRANCH   2   8
ATOM      7  O   UNL     1       4.624  -0.775   0.163  0.00  0.00    -0.245 OA
ATOM      8  C   UNL     1       3.804   0.141   0.042  0.00  0.00    +0.338 C 
BRANCH   8   9
ATOM      9  O   UNL     1       4.185   1.443  -0.070  0.00  0.00    -0.477 OA
ATOM     10  H   UNL     1       3.538   2.115  -0.161  0.00  0.00    +0.295 HD
ENDBRANCH   8   9
ENDBRANCH   2   8
BRANCH   1  11
ATOM     11  C   UNL     1      -1.857  -0.494  -0.119  0.00  0.00    +0.007 C 
ATOM     12  C   UNL     1      -2.776   0.446   0.121  0.00  0.00    +0.082 C 
BRANCH  12  14
ATOM     13  O   UNL     1      -4.672  -0.997  -0.249  0.00  0.00    -0.245 OA
ATOM     14  C   UNL     1      -4.209   0.096   0.030  0.00  0.00    +0.338 C 
BRANCH  14  15
ATOM     15  O   UNL     1      -4.943   1.197   0.313  0.00  0.00    -0.477 OA
ATOM     16  H   UNL     1      -4.515   2.005   0.520  0.00  0.00    +0.295 HD
ENDBRANCH  14  15
ENDBRANCH  12  14
ENDBRANCH   1  11
TORSDOF 5
