REMARK  Name = 17754073
REMARK  11 active torsions:
REMARK  status: ('A' for Active; 'I' for Inactive)
REMARK    1  A    between atoms: CG_1  and  CD_2
REMARK    2  A    between atoms: CG_1  and  CB_13
REMARK    3  A    between atoms: CD_2  and  CE_3
REMARK    4  A    between atoms: CE_3  and  N_4
REMARK    5  A    between atoms: N_4  and  CA_7
REMARK    6  A    between atoms: CA_7  and  C_10
REMARK    7  A    between atoms: C_10  and  O_11
REMARK    8  A    between atoms: CB_13  and  CA_14
REMARK    9  A    between atoms: CA_14  and  N_15
REMARK   10  A    between atoms: CA_14  and  C_20
REMARK   11  A    between atoms: C_20  and  O_21
REMARK                            x       y       z     vdW  Elec       q    Type
REMARK                         _______ _______ _______ _____ _____    ______ ____
ROOT
ATOM      1  CG  ALA A   1       1.296   0.573  -0.018  0.00  0.00    -0.004 C 
ENDROOT
BRANCH   1   2
ATOM      2  CD  ALA A   1      -0.029   1.017   0.606  0.00  0.00    -0.023 C 
BRANCH   2   3
ATOM      3  CE  ALA A   1      -1.217   0.528  -0.222  0.00  0.00    -0.081 C 
BRANCH   3   4
ATOM      4  N   ALA A   1      -2.470   0.966   0.382  0.00  0.00    +0.392 N 
ATOM      5  H1  ALA A   1      -2.486   1.986   0.416  0.00  0.00    -0.084 HD
ATOM      6  H2  ALA A   1      -2.533   0.577   1.322  0.00  0.00    -0.084 HD
BRANCH   4   7
ATOM      7  CA  ALA A   1      -3.611   0.498  -0.392  0.00  0.00    +0.040 C 
ATOM      8  CB  ALA A   1      -4.832   1.351  -0.075  0.00  0.00    -0.012 C 
BRANCH   7  10
ATOM      9  OXT ALA A   1      -3.659  -1.475   1.053  0.00  0.00    -0.253 OA
ATOM     10  C   ALA A   1      -3.860  -0.952  -0.034  0.00  0.00    +0.293 C 
BRANCH  10  11
ATOM     11  O   ALA A   1      -4.364  -1.624  -1.102  0.00  0.00    -0.482 OA
ATOM     12  H   ALA A   1      -4.500  -1.177  -1.915  0.00  0.00    +0.295 HD
ENDBRANCH  10  11
ENDBRANCH   7  10
ENDBRANCH   4   7
ENDBRANCH   3   4
ENDBRANCH   2   3
ENDBRANCH   1   2
BRANCH   1  13
ATOM     13  CB  ALA A   1       2.530   1.013   0.783  0.00  0.00    -0.011 C 
BRANCH  13  14
ATOM     14  CA  ALA A   1       3.874   0.643   0.144  0.00  0.00    +0.036 C 
BRANCH  14  15
ATOM     15  N   ALA A   1       4.019   1.247  -1.181  0.00  0.00    +0.389 N 
ATOM     16  H1  ALA A   1       3.895   2.257  -1.110  0.00  0.00    -0.088 HD
ATOM     17  H2  ALA A   1       3.315   0.861  -1.810  0.00  0.00    -0.088 HD
ATOM     18  H3  ALA A   1       4.949   1.044  -1.548  0.00  0.00    -0.088 HD
ENDBRANCH  14  15
BRANCH  14  20
ATOM     19  OXT ALA A   1       4.210  -1.401  -1.095  0.00  0.00    -0.253 OA
ATOM     20  C   ALA A   1       4.066  -0.851  -0.009  0.00  0.00    +0.293 C 
BRANCH  20  21
ATOM     21  O   ALA A   1       4.048  -1.536   1.161  0.00  0.00    -0.482 OA
ATOM     22  H   ALA A   1       3.936  -1.077   1.971  0.00  0.00    +0.295 HD
ENDBRANCH  20  21
ENDBRANCH  14  20
ENDBRANCH  13  14
ENDBRANCH   1  13
TORSDOF 11
