REMARK  Name = 6989
REMARK  2 active torsions:
REMARK  status: ('A' for Active; 'I' for Inactive)
REMARK    1  A    between atoms: C_1  and  C_8
REMARK    2  A    between atoms: C_2  and  O_11
REMARK                            x       y       z     vdW  Elec       q    Type
REMARK                         _______ _______ _______ _____ _____    ______ ____
ROOT
ATOM      1  C   UNL     1      -0.646  -0.041   0.000  0.00  0.00    +0.011 C 
ATOM      2  C   UNL     1       0.143   1.109   0.000  0.00  0.00    +0.129 C 
ATOM      3  C   UNL     1      -0.043  -1.300   0.000  0.00  0.00    -0.002 C 
ATOM      4  C   UNL     1       2.136  -0.257   0.000  0.00  0.00    -0.019 C 
ATOM      5  C   UNL     1       1.534   1.002   0.000  0.00  0.00    +0.032 C 
ATOM      6  C   UNL     1       1.347  -1.407   0.000  0.00  0.00    -0.004 C 
ATOM      7  C   UNL     1       3.623  -0.372   0.000  0.00  0.00    +0.031 C 
ENDROOT
BRANCH   1   8
ATOM      8  C   UNL     1      -2.135   0.055   0.000  0.00  0.00    +0.025 C 
ATOM      9  C   UNL     1      -2.764  -0.568   1.260  0.00  0.00    +0.005 C 
ATOM     10  C   UNL     1      -2.764  -0.567  -1.260  0.00  0.00    +0.005 C 
ENDBRANCH   1   8
BRANCH   2  11
ATOM     11  O   UNL     1      -0.429   2.346   0.000  0.00  0.00    -0.506 OA
ATOM     12  H   UNL     1      -1.362   2.430   0.000  0.00  0.00    +0.292 HD
ENDBRANCH   2  11
TORSDOF 2
