REMARK  Name = 445109
REMARK  1 active torsions:
REMARK  status: ('A' for Active; 'I' for Inactive)
REMARK    1  A    between atoms: C_6  and  C_16
REMARK                            x       y       z     vdW  Elec       q    Type
REMARK                         _______ _______ _______ _____ _____    ______ ____
ROOT
ATOM      1  N   UNL     1      -0.074   0.558  -0.294  0.00  0.00    -0.281 NA
ATOM      2  N   UNL     1       0.903  -2.035   0.188  0.00  0.00    -0.308 N 
ATOM      3  N   UNL     1       3.118  -1.196   0.199  0.00  0.00    -0.316 NA
ATOM      4  N   UNL     1       3.547   1.155  -0.080  0.00  0.00    -0.316 NA
ATOM      5  N   UNL     1       5.308  -0.357   0.242  0.00  0.00    -0.283 N 
ATOM      6  C   UNL     1      -0.960  -0.588  -0.470  0.00  0.00    +0.097 C 
ATOM      7  C   UNL     1      -0.500  -1.750   0.425  0.00  0.00    +0.109 C 
ATOM      8  C   UNL     1       1.284   0.316  -0.163  0.00  0.00    +0.191 C 
ATOM      9  C   UNL     1       1.789  -0.965   0.078  0.00  0.00    +0.193 C 
ATOM     10  C   UNL     1       2.219   1.338  -0.211  0.00  0.00    +0.190 C 
ATOM     11  C   UNL     1       3.922  -0.120   0.113  0.00  0.00    +0.198 C 
ATOM     12  H   UNL     1      -0.431   1.475  -0.268  0.00  0.00    +0.124 HD
ATOM     13  H   UNL     1       1.221  -2.963   0.108  0.00  0.00    +0.149 HD
ATOM     14  H   UNL     1       5.639  -1.273   0.386  0.00  0.00    +0.156 HD
ATOM     15  H   UNL     1       5.943   0.393   0.190  0.00  0.00    +0.156 HD
ATOM     16  N   UNL     1       1.756   2.663  -0.420  0.00  0.00    -0.334 N 
ATOM     17  H   UNL     1       2.398   3.408  -0.458  0.00  0.00    +0.144 HD
ATOM     18  H   UNL     1       0.793   2.836  -0.527  0.00  0.00    +0.144 HD
ENDROOT
BRANCH   6  19
ATOM     19  C   UNL     1      -2.397  -0.197  -0.191  0.00  0.00    -0.006 C 
ATOM     20  C   UNL     1      -3.434  -0.807  -0.895  0.00  0.00    -0.003 C 
ATOM     21  C   UNL     1      -2.680   0.774   0.769  0.00  0.00    -0.003 C 
ATOM     22  C   UNL     1      -4.757  -0.447  -0.638  0.00  0.00    -0.000 C 
ATOM     23  C   UNL     1      -4.003   1.135   1.026  0.00  0.00    -0.000 C 
ATOM     24  C   UNL     1      -5.041   0.524   0.322  0.00  0.00    -0.000 C 
ENDBRANCH   6  19
TORSDOF 1
