REMARK  Name = 57484478
REMARK  8 active torsions:
REMARK  status: ('A' for Active; 'I' for Inactive)
REMARK    1  A    between atoms: N_2  and  C_21
REMARK    2  A    between atoms: C_4  and  C_16
REMARK    3  A    between atoms: C_5  and  C_7
REMARK    4  A    between atoms: C_7  and  C_9
REMARK    5  A    between atoms: C_16  and  C_17
REMARK    6  A    between atoms: C_17  and  C_18
REMARK    7  A    between atoms: C_18  and  S_19
REMARK    8  A    between atoms: C_21  and  C_23
REMARK                            x       y       z     vdW  Elec       q    Type
REMARK                         _______ _______ _______ _____ _____    ______ ____
ROOT
ATOM      1  O   UNL     1       1.282  -1.024   0.790  0.00  0.00    -0.267 OA
ATOM      2  N   UNL     1      -0.918  -0.189   0.836  0.00  0.00    -0.218 N 
ATOM      3  N   UNL     1      -0.576   1.795  -0.192  0.00  0.00    -0.383 NA
ATOM      4  C   UNL     1      -1.417   0.986   0.371  0.00  0.00    +0.224 C 
ATOM      5  C   UNL     1       0.620   1.122  -0.111  0.00  0.00    +0.169 C 
ATOM      6  C   UNL     1       0.426  -0.191   0.562  0.00  0.00    +0.281 C 
ENDROOT
BRANCH   4   8
ATOM      7  O   UNL     1      -3.209   1.914   1.516  0.00  0.00    -0.287 OA
ATOM      8  C   UNL     1      -2.847   1.320   0.504  0.00  0.00    +0.218 C 
BRANCH   8   9
ATOM      9  C   UNL     1      -3.752   0.894  -0.635  0.00  0.00    +0.085 C 
BRANCH   9  10
ATOM     10  C   UNL     1      -5.177   0.631  -0.164  0.00  0.00    +0.066 C 
BRANCH  10  11
ATOM     11  S   UNL     1      -6.230   0.132  -1.555  0.00  0.00    -0.139 S 
ATOM     12  C   UNL     1      -5.766  -1.614  -1.623  0.00  0.00    +0.069 C 
ENDBRANCH  10  11
ENDBRANCH   9  10
ENDBRANCH   8   9
ENDBRANCH   4   8
BRANCH   5  13
ATOM     13  C   UNL     1       1.804   1.544  -0.557  0.00  0.00    +0.090 C 
BRANCH  13  15
ATOM     14  O   UNL     1       6.590  -1.235  -0.196  0.00  0.00    -0.287 OA
ATOM     15  C   UNL     1       3.078   0.806  -0.461  0.00  0.00    -0.015 C 
ATOM     16  C   UNL     1       3.470  -0.045  -1.495  0.00  0.00    -0.001 C 
ATOM     17  C   UNL     1       3.889   0.957   0.663  0.00  0.00    -0.001 C 
ATOM     18  C   UNL     1       4.673  -0.744  -1.404  0.00  0.00    +0.042 C 
ATOM     19  C   UNL     1       5.092   0.258   0.755  0.00  0.00    +0.042 C 
ATOM     20  C   UNL     1       5.484  -0.593  -0.279  0.00  0.00    +0.196 C 
ENDBRANCH  13  15
ENDBRANCH   5  13
BRANCH   2  21
ATOM     21  C   UNL     1      -1.633  -1.265   1.498  0.00  0.00    +0.173 C 
BRANCH  21  23
ATOM     22  O   UNL     1      -2.767  -3.232   0.727  0.00  0.00    -0.286 OA
ATOM     23  C   UNL     1      -2.117  -2.227   0.451  0.00  0.00    +0.230 C 
ENDBRANCH  21  23
ENDBRANCH   2  21
TORSDOF 8
