REMARK  Name = 40472480
REMARK  4 active torsions:
REMARK  status: ('A' for Active; 'I' for Inactive)
REMARK    1  A    between atoms: C_1  and  N_2
REMARK    2  A    between atoms: C_1  and  C_6
REMARK    3  A    between atoms: C_1  and  C_8
REMARK    4  A    between atoms: C_8  and  C_9
REMARK                            x       y       z     vdW  Elec       q    Type
REMARK                         _______ _______ _______ _____ _____    ______ ____
ROOT
ATOM      1  C   UNL     1       1.865  -0.464   0.114  0.00  0.00    -0.061 C 
ENDROOT
BRANCH   1   2
ATOM      2  N   UNL     1       2.994  -1.376  -0.104  0.00  0.00    +0.382 N 
ATOM      3  H   UNL     1       2.682  -2.339   0.020  0.00  0.00    -0.089 HD
ATOM      4  H   UNL     1       3.733  -1.169   0.567  0.00  0.00    -0.089 HD
ATOM      5  H   UNL     1       3.351  -1.254  -1.052  0.00  0.00    -0.089 HD
ENDBRANCH   1   2
BRANCH   1   6
ATOM      6  C   UNL     1       2.328   0.994  -0.071  0.00  0.00    -0.022 C 
ATOM      7  C   UNL     1       3.476   1.384   0.853  0.00  0.00    -0.002 C 
ENDBRANCH   1   6
BRANCH   1   8
ATOM      8  C   UNL     1       0.727  -0.840  -0.857  0.00  0.00    +0.004 C 
BRANCH   8   9
ATOM      9  C   UNL     1      -0.638  -0.378  -0.406  0.00  0.00    -0.024 C 
ATOM     10  C   UNL     1      -1.427  -1.206   0.393  0.00  0.00    -0.004 C 
ATOM     11  C   UNL     1      -1.109   0.878  -0.787  0.00  0.00    -0.004 C 
ATOM     12  C   UNL     1      -2.688  -0.778   0.809  0.00  0.00    -0.000 C 
ATOM     13  C   UNL     1      -2.370   1.306  -0.370  0.00  0.00    -0.000 C 
ATOM     14  C   UNL     1      -3.159   0.478   0.427  0.00  0.00    -0.000 C 
ENDBRANCH   8   9
ENDBRANCH   1   8
TORSDOF 4
