REMARK  Name = 9543424
REMARK  5 active torsions:
REMARK  status: ('A' for Active; 'I' for Inactive)
REMARK    1  A    between atoms: S_1  and  C_3
REMARK    2  A    between atoms: S_1  and  C_8
REMARK    3  A    between atoms: C_3  and  C_4
REMARK    4  A    between atoms: C_5  and  S_6
REMARK    5  A    between atoms: C_8  and  C_9
REMARK                            x       y       z     vdW  Elec       q    Type
REMARK                         _______ _______ _______ _____ _____    ______ ____
ROOT
ATOM      1  S   UNL     1      -0.583  -0.280   0.429  0.00  0.00    +0.051 S 
ATOM      2  O   UNL     1      -0.332  -1.621  -0.186  0.00  0.00    -0.255 OA
ENDROOT
BRANCH   1   3
ATOM      3  C   UNL     1       0.688   0.851  -0.211  0.00  0.00    +0.119 C 
BRANCH   3   4
ATOM      4  C   UNL     1       2.027   0.495   0.348  0.00  0.00    -0.005 C 
ATOM      5  C   UNL     1       3.079   0.168  -0.416  0.00  0.00    +0.023 C 
BRANCH   5   6
ATOM      6  S   UNL     1       4.619  -0.227   0.259  0.00  0.00    -0.141 S 
ATOM      7  H   UNL     1       5.492  -0.516  -0.743  0.00  0.00    +0.107 HD
ENDBRANCH   5   6
ENDBRANCH   3   4
ENDBRANCH   1   3
BRANCH   1   8
ATOM      8  C   UNL     1      -1.959   0.484  -0.461  0.00  0.00    +0.118 C 
BRANCH   8   9
ATOM      9  C   UNL     1      -3.235  -0.229  -0.156  0.00  0.00    -0.012 C 
ATOM     10  C   UNL     1      -4.304   0.360   0.394  0.00  0.00    -0.004 C 
ENDBRANCH   8   9
ENDBRANCH   1   8
TORSDOF 5
