REMARK  Name = 68525
REMARK  3 active torsions:
REMARK  status: ('A' for Active; 'I' for Inactive)
REMARK    1  A    between atoms: C_1  and  N_7
REMARK    2  A    between atoms: N_7  and  C_9
REMARK    3  A    between atoms: C_9  and  C_10
REMARK                            x       y       z     vdW  Elec       q    Type
REMARK                         _______ _______ _______ _____ _____    ______ ____
ROOT
ATOM      1  C   UNL     1      -0.399  -0.253  -0.065  0.00  0.00    +0.045 C 
ATOM      2  C   UNL     1      -0.846   1.068  -0.044  0.00  0.00    +0.014 C 
ATOM      3  C   UNL     1      -1.316  -1.301   0.007  0.00  0.00    +0.014 C 
ATOM      4  C   UNL     1      -2.211   1.341   0.049  0.00  0.00    +0.001 C 
ATOM      5  C   UNL     1      -2.681  -1.028   0.099  0.00  0.00    +0.001 C 
ATOM      6  C   UNL     1      -3.128   0.292   0.120  0.00  0.00    +0.000 C 
ENDROOT
BRANCH   1   7
ATOM      7  N   UNL     1       0.981  -0.528  -0.159  0.00  0.00    -0.329 N 
ATOM      8  H   UNL     1       1.274  -1.468  -0.172  0.00  0.00    +0.147 HD
BRANCH   7   9
ATOM      9  C   UNL     1       1.974   0.498  -0.236  0.00  0.00    +0.114 C 
BRANCH   9  10
ATOM     10  C   UNL     1       3.323  -0.141  -0.330  0.00  0.00    -0.005 C 
ATOM     11  C   UNL     1       4.303   0.050   0.560  0.00  0.00    -0.003 C 
ENDBRANCH   9  10
ENDBRANCH   7   9
ENDBRANCH   1   7
TORSDOF 3
