REMARK  Name = 11862103
REMARK  5 active torsions:
REMARK  status: ('A' for Active; 'I' for Inactive)
REMARK    1  A    between atoms: CA_1  and  N_2
REMARK    2  A    between atoms: CA_1  and  C_8
REMARK    3  A    between atoms: CA_1  and  C_9
REMARK    4  A    between atoms: C_9  and  C_10
REMARK    5  A    between atoms: C_10  and  S_11
REMARK                            x       y       z     vdW  Elec       q    Type
REMARK                         _______ _______ _______ _____ _____    ______ ____
ROOT
ATOM      1  CA  UNL     1       1.486  -0.567  -0.621  0.00  0.00    +0.041 C 
ENDROOT
BRANCH   1   2
ATOM      2  N   UNL     1       1.773  -1.874   0.050  0.00  0.00    +0.389 N 
ATOM      3  H1  UNL     1       1.376  -2.634  -0.502  0.00  0.00    -0.088 HD
ATOM      4  H2  UNL     1       1.356  -1.877   0.981  0.00  0.00    -0.088 HD
ATOM      5  H3  UNL     1       2.782  -2.002   0.128  0.00  0.00    -0.088 HD
ENDBRANCH   1   2
BRANCH   1   8
ATOM      6  O   UNL     1       3.047   0.454   0.855  0.00  0.00    -0.248 OA
ATOM      7  OXT UNL     1       1.432   1.746  -0.108  0.00  0.00    -0.248 OA
ATOM      8  C   UNL     1       2.039   0.661   0.122  0.00  0.00    +0.345 C 
ENDBRANCH   1   8
BRANCH   1   9
ATOM      9  C   UNL     1      -0.016  -0.529  -0.933  0.00  0.00    +0.003 C 
BRANCH   9  10
ATOM     10  C   UNL     1      -0.904  -0.355   0.297  0.00  0.00    +0.090 C 
BRANCH  10  11
ATOM     11  S   UNL     1      -2.662  -0.353  -0.183  0.00  0.00    +0.043 S 
ATOM     12  O   UNL     1      -2.900   0.898  -0.969  0.00  0.00    -0.256 OA
ATOM     13  C   UNL     1      -3.293  -0.082   1.489  0.00  0.00    +0.106 C 
ENDBRANCH  10  11
ENDBRANCH   9  10
ENDBRANCH   1   9
TORSDOF 5
