REMARK  Name = 5724
REMARK  5 active torsions:
REMARK  status: ('A' for Active; 'I' for Inactive)
REMARK    1  A    between atoms: N_4  and  C_14
REMARK    2  A    between atoms: N_5  and  C_23
REMARK    3  A    between atoms: C_14  and  C_17
REMARK    4  A    between atoms: C_23  and  C_25
REMARK    5  A    between atoms: C_25  and  O_26
REMARK                            x       y       z     vdW  Elec       q    Type
REMARK                         _______ _______ _______ _____ _____    ______ ____
ROOT
ATOM      1 CL   UNL     1       5.843   0.989  -1.434  0.00  0.00    -0.082 Cl
ATOM      2  O   UNL     1      -0.377  -1.804   1.679  0.00  0.00    -0.246 OA
ATOM      3  O   UNL     1      -0.147   2.765   0.856  0.00  0.00    -0.267 OA
ATOM      4  N   UNL     1      -0.302   0.474   1.255  0.00  0.00    -0.244 N 
ATOM      5  N   UNL     1       1.542  -0.941   0.714  0.00  0.00    -0.270 N 
ATOM      6  C   UNL     1       2.268   0.184   0.222  0.00  0.00    +0.070 A 
ATOM      7  C   UNL     1       1.694   1.456   0.263  0.00  0.00    +0.072 A 
ATOM      8  C   UNL     1       0.245  -0.828   1.245  0.00  0.00    +0.334 A 
ATOM      9  C   UNL     1       0.341   1.638   0.810  0.00  0.00    +0.266 A 
ATOM     10  C   UNL     1       3.563   0.060  -0.311  0.00  0.00    +0.029 C 
ATOM     11  C   UNL     1       2.391   2.576  -0.214  0.00  0.00    +0.007 C 
ATOM     12  C   UNL     1       4.258   1.174  -0.787  0.00  0.00    +0.059 C 
ATOM     13  C   UNL     1       3.673   2.433  -0.738  0.00  0.00    +0.012 C 
ENDROOT
BRANCH   4  14
ATOM     14  C   UNL     1      -1.650   0.653   1.790  0.00  0.00    +0.142 C 
BRANCH  14  17
ATOM     15 BR   UNL     1      -5.962   0.154  -2.596  0.00  0.00    -0.049 Br
ATOM     16  F   UNL     1      -2.865  -1.806   1.114  0.00  0.00    -0.204 F 
ATOM     17  C   UNL     1      -2.699   0.529   0.723  0.00  0.00    +0.028 C 
ATOM     18  C   UNL     1      -3.255  -0.714   0.443  0.00  0.00    +0.138 C 
ATOM     19  C   UNL     1      -3.104   1.661   0.026  0.00  0.00    +0.000 C 
ATOM     20  C   UNL     1      -4.229  -0.826  -0.549  0.00  0.00    +0.036 C 
ATOM     21  C   UNL     1      -4.079   1.549  -0.965  0.00  0.00    +0.007 C 
ATOM     22  C   UNL     1      -4.641   0.306  -1.253  0.00  0.00    +0.037 C 
ENDBRANCH  14  17
ENDBRANCH   4  14
BRANCH   5  23
ATOM     23  C   UNL     1       2.171  -2.261   0.665  0.00  0.00    +0.220 C 
BRANCH  23  25
ATOM     24  O   UNL     1       2.314  -4.122  -0.854  0.00  0.00    -0.248 OA
ATOM     25  C   UNL     1       1.887  -2.998  -0.618  0.00  0.00    +0.337 C 
BRANCH  25  26
ATOM     26  O   UNL     1       1.119  -2.300  -1.486  0.00  0.00    -0.479 OA
ATOM     27  H   UNL     1       0.817  -1.442  -1.258  0.00  0.00    +0.295 HD
ENDBRANCH  25  26
ENDBRANCH  23  25
ENDBRANCH   5  23
TORSDOF 5
