REMARK  Name = 254
REMARK  3 active torsions:
REMARK  status: ('A' for Active; 'I' for Inactive)
REMARK    1  A    between atoms: C_1  and  C_7
REMARK    2  A    between atoms: C_2  and  O_13
REMARK    3  A    between atoms: C_4  and  O_15
REMARK                            x       y       z     vdW  Elec       q    Type
REMARK                         _______ _______ _______ _____ _____    ______ ____
ROOT
ATOM      1  C   UNL     1       0.365  -0.381  -0.001  0.00  0.00    +0.037 C 
ATOM      2  C   UNL     1       1.237   0.710   0.000  0.00  0.00    +0.167 C 
ATOM      3  C   UNL     1       0.877  -1.679   0.000  0.00  0.00    +0.003 C 
ATOM      4  C   UNL     1       2.616   0.502   0.000  0.00  0.00    +0.167 C 
ATOM      5  C   UNL     1       2.256  -1.887   0.000  0.00  0.00    +0.003 C 
ATOM      6  C   UNL     1       3.126  -0.797   0.000  0.00  0.00    +0.040 C 
ENDROOT
BRANCH   1   7
ATOM      7  C   UNL     1      -1.069  -0.188   0.000  0.00  0.00    +0.003 C 
ATOM      8  C   UNL     1      -1.760  -0.095   1.208  0.00  0.00    +0.000 C 
ATOM      9  C   UNL     1      -1.761  -0.095  -1.208  0.00  0.00    +0.000 C 
ATOM     10  C   UNL     1      -3.142   0.091   1.208  0.00  0.00    +0.000 C 
ATOM     11  C   UNL     1      -3.143   0.091  -1.208  0.00  0.00    +0.000 C 
ATOM     12  C   UNL     1      -3.834   0.184   0.001  0.00  0.00    +0.000 C 
ENDBRANCH   1   7
BRANCH   2  13
ATOM     13  O   UNL     1       0.753   1.986   0.000  0.00  0.00    -0.503 OA
ATOM     14  H   UNL     1      -0.172   2.137  -0.001  0.00  0.00    +0.292 HD
ENDBRANCH   2  13
BRANCH   4  15
ATOM     15  O   UNL     1       3.478   1.557   0.000  0.00  0.00    -0.503 OA
ATOM     16  H   UNL     1       3.145   2.433   0.000  0.00  0.00    +0.292 HD
ENDBRANCH   4  15
TORSDOF 3
