REMARK  Name = 443250
REMARK  5 active torsions:
REMARK  status: ('A' for Active; 'I' for Inactive)
REMARK    1  A    between atoms: C_1  and  O_2
REMARK    2  A    between atoms: C_1  and  C_5
REMARK    3  A    between atoms: C_1  and  C_8
REMARK    4  A    between atoms: C_5  and  O_6
REMARK    5  A    between atoms: C_8  and  S_9
REMARK                            x       y       z     vdW  Elec       q    Type
REMARK                         _______ _______ _______ _____ _____    ______ ____
ROOT
ATOM      1  C   UNL     1      -0.793  -0.188   0.422  0.00  0.00    +0.234 C 
ENDROOT
BRANCH   1   2
ATOM      2  O   UNL     1      -0.651  -1.593   0.265  0.00  0.00    -0.373 OA
ATOM      3  H   UNL     1       0.239  -1.861   0.542  0.00  0.00    +0.211 HD
ENDBRANCH   1   2
BRANCH   1   5
ATOM      4  O   UNL     1      -3.020  -0.585  -0.483  0.00  0.00    -0.248 OA
ATOM      5  C   UNL     1      -2.191   0.185  -0.020  0.00  0.00    +0.343 C 
BRANCH   5   6
ATOM      6  O   UNL     1      -2.428   1.504   0.194  0.00  0.00    -0.478 OA
ATOM      7  H   UNL     1      -1.755   2.049   0.551  0.00  0.00    +0.295 HD
ENDBRANCH   5   6
ENDBRANCH   1   5
BRANCH   1   8
ATOM      8  C   UNL     1       0.253   0.505  -0.436  0.00  0.00    +0.199 C 
BRANCH   8   9
ATOM      9  S   UNL     1       1.892   0.049   0.046  0.00  0.00    +0.026 S 
ATOM     10  O   UNL     1       2.683   0.789  -1.173  0.00  0.00    -0.069 OA
ATOM     11  O   UNL     1       2.041  -1.387  -0.103  0.00  0.00    -0.069 OA
ATOM     12  O   UNL     1       2.215   0.722   1.290  0.00  0.00    -0.069 OA
ENDBRANCH   8   9
ENDBRANCH   1   8
TORSDOF 5
