REMARK  Name = 6992107
REMARK  6 active torsions:
REMARK  status: ('A' for Active; 'I' for Inactive)
REMARK    1  A    between atoms: C_2  and  O_7
REMARK    2  A    between atoms: C_3  and  O_9
REMARK    3  A    between atoms: C_3  and  C_15
REMARK    4  A    between atoms: C_4  and  O_11
REMARK    5  A    between atoms: C_5  and  O_13
REMARK    6  A    between atoms: C_15  and  O_16
REMARK                            x       y       z     vdW  Elec       q    Type
REMARK                         _______ _______ _______ _____ _____    ______ ____
ROOT
ATOM      1  O   UNL     1       0.660  -1.124   0.901  0.00  0.00    -0.328 OA
ATOM      2  C   UNL     1      -0.062   1.125   0.307  0.00  0.00    +0.194 C 
ATOM      3  C   UNL     1       1.095   0.108   0.314  0.00  0.00    +0.239 C 
ATOM      4  C   UNL     1      -1.335   0.556  -0.320  0.00  0.00    +0.171 C 
ATOM      5  C   UNL     1      -1.675  -0.800   0.291  0.00  0.00    +0.169 C 
ATOM      6  C   UNL     1      -0.466  -1.724   0.270  0.00  0.00    +0.176 C 
ENDROOT
BRANCH   2   7
ATOM      7  O   UNL     1       0.330   2.300  -0.402  0.00  0.00    -0.378 OA
ATOM      8  H   UNL     1       1.138   2.662  -0.005  0.00  0.00    +0.211 HD
ENDBRANCH   2   7
BRANCH   3   9
ATOM      9  O   UNL     1       2.116   0.671   1.153  0.00  0.00    -0.360 OA
ATOM     10  H   UNL     1       1.754   0.833   2.038  0.00  0.00    +0.213 HD
ENDBRANCH   3   9
BRANCH   4  11
ATOM     11  O   UNL     1      -2.406   1.467  -0.063  0.00  0.00    -0.379 OA
ATOM     12  H   UNL     1      -2.196   2.331  -0.449  0.00  0.00    +0.211 HD
ENDBRANCH   4  11
BRANCH   5  13
ATOM     13  O   UNL     1      -2.739  -1.389  -0.448  0.00  0.00    -0.379 OA
ATOM     14  H   UNL     1      -3.508  -0.798  -0.434  0.00  0.00    +0.211 HD
ENDBRANCH   5  13
BRANCH   3  15
ATOM     15  C   UNL     1       1.715  -0.127  -1.069  0.00  0.00    +0.196 C 
BRANCH  15  16
ATOM     16  O   UNL     1       2.766  -1.064  -0.934  0.00  0.00    -0.378 OA
ATOM     17  H   UNL     1       3.170  -1.225  -1.802  0.00  0.00    +0.211 HD
ENDBRANCH  15  16
ENDBRANCH   3  15
TORSDOF 6
