REMARK  Name = 72792
REMARK  0 active torsions:
REMARK  status: ('A' for Active; 'I' for Inactive)
REMARK                            x       y       z     vdW  Elec       q    Type
REMARK                         _______ _______ _______ _____ _____    ______ ____
ROOT
ATOM      1  N   UNL     1       1.368   1.799   0.000  0.00  0.00    -0.242 NA
ATOM      2  N   UNL     1      -1.367   1.799   0.000  0.00  0.00    -0.242 NA
ATOM      3  C   UNL     1       1.392  -0.602   0.000  0.00  0.00    +0.015 C 
ATOM      4  C   UNL     1      -1.392  -0.602   0.000  0.00  0.00    +0.015 C 
ATOM      5  C   UNL     1       0.697   0.628   0.000  0.00  0.00    +0.099 C 
ATOM      6  C   UNL     1      -0.697   0.628   0.000  0.00  0.00    +0.099 C 
ATOM      7  C   UNL     1       2.794  -0.582   0.000  0.00  0.00    -0.019 C 
ATOM      8  C   UNL     1      -2.794  -0.581   0.000  0.00  0.00    -0.019 C 
ATOM      9  C   UNL     1       0.694  -1.813   0.000  0.00  0.00    +0.001 C 
ATOM     10  C   UNL     1      -0.694  -1.813   0.000  0.00  0.00    +0.001 C 
ATOM     11  C   UNL     1       3.475   0.625   0.000  0.00  0.00    +0.016 C 
ATOM     12  C   UNL     1      -3.475   0.626   0.000  0.00  0.00    +0.016 C 
ATOM     13  C   UNL     1       3.613  -1.834   0.000  0.00  0.00    +0.031 C 
ATOM     14  C   UNL     1      -3.613  -1.834   0.001  0.00  0.00    +0.031 C 
ATOM     15  C   UNL     1       2.720   1.778   0.000  0.00  0.00    +0.099 C 
ATOM     16  C   UNL     1      -2.720   1.779   0.000  0.00  0.00    +0.099 C 
ENDROOT
TORSDOF 0
