REMARK  Name = 17754079
REMARK  14 active torsions:
REMARK  status: ('A' for Active; 'I' for Inactive)
REMARK    1  A    between atoms: C_1  and  N_3
REMARK    2  A    between atoms: C_1  and  C_20
REMARK    3  A    between atoms: C_1  and  C_31
REMARK    4  A    between atoms: C_4  and  C_6
REMARK    5  A    between atoms: C_6  and  O_7
REMARK    6  A    between atoms: C_6  and  C_14
REMARK    7  A    between atoms: O_7  and  P_8
REMARK    8  A    between atoms: P_8  and  O_10
REMARK    9  A    between atoms: P_8  and  O_12
REMARK   10  A    between atoms: C_14  and  C_15
REMARK   11  A    between atoms: C_15  and  C_16
REMARK   12  A    between atoms: N_19  and  C_22
REMARK   13  A    between atoms: C_27  and  N_30
REMARK   14  A    between atoms: C_31  and  C_32
REMARK                            x       y       z     vdW  Elec       q    Type
REMARK                         _______ _______ _______ _____ _____    ______ ____
ROOT
ATOM      1  C   UNL     1      -0.264  -1.107   0.097  0.00  0.00    +0.149 C 
ENDROOT
BRANCH   1   3
ATOM      2  O   UNL     1      -2.673  -0.893   1.662  0.00  0.00    -0.272 OA
ATOM      3  N   UNL     1      -1.417  -0.289  -0.195  0.00  0.00    -0.296 N 
ATOM      4  C   UNL     1      -2.537  -0.251   0.623  0.00  0.00    +0.251 C 
ATOM      5  H   UNL     1      -1.408   0.265  -1.008  0.00  0.00    +0.150 HD
BRANCH   4   6
ATOM      6  C   UNL     1      -3.622   0.672   0.083  0.00  0.00    +0.202 C 
BRANCH   6   7
ATOM      7  O   UNL     1      -4.887   0.118   0.411  0.00  0.00    -0.267 OA
BRANCH   7   8
ATOM      8  P   UNL     1      -5.463  -1.082  -0.509  0.00  0.00    +0.473 P 
ATOM      9  O   UNL     1      -4.605  -2.312  -0.559  0.00  0.00    -0.227 OA
BRANCH   8  10
ATOM     10  O   UNL     1      -6.949  -1.310   0.087  0.00  0.00    -0.303 OA
ATOM     11  H   UNL     1      -7.431  -0.469   0.083  0.00  0.00    +0.222 HD
ENDBRANCH   8  10
BRANCH   8  12
ATOM     12  O   UNL     1      -5.740  -0.374  -1.936  0.00  0.00    -0.303 OA
ATOM     13  H   UNL     1      -6.300   0.408  -1.806  0.00  0.00    +0.222 HD
ENDBRANCH   8  12
ENDBRANCH   7   8
ENDBRANCH   6   7
BRANCH   6  14
ATOM     14  C   UNL     1      -3.491   2.084   0.664  0.00  0.00    +0.040 C 
BRANCH  14  15
ATOM     15  C   UNL     1      -4.562   3.033   0.114  0.00  0.00    +0.003 C 
BRANCH  15  16
ATOM     16  C   UNL     1      -4.446   4.458   0.660  0.00  0.00    +0.000 C 
ATOM     17  C   UNL     1      -5.459   5.421   0.060  0.00  0.00    +0.000 C 
ENDBRANCH  15  16
ENDBRANCH  14  15
ENDBRANCH   6  14
ENDBRANCH   4   6
ENDBRANCH   1   3
BRANCH   1  20
ATOM     18  O   UNL     1       0.933   0.342  -1.418  0.00  0.00    -0.273 OA
ATOM     19  N   UNL     1       2.076  -0.611   0.397  0.00  0.00    -0.283 N 
ATOM     20  C   UNL     1       0.968  -0.352  -0.406  0.00  0.00    +0.244 C 
ATOM     21  H   UNL     1       1.931  -1.223   1.154  0.00  0.00    +0.155 HD
BRANCH  19  22
ATOM     22  C   UNL     1       3.387  -0.098   0.250  0.00  0.00    +0.050 C 
ATOM     23  C   UNL     1       4.386  -0.469   1.151  0.00  0.00    +0.016 C 
ATOM     24  C   UNL     1       3.681   0.776  -0.796  0.00  0.00    +0.016 C 
ATOM     25  C   UNL     1       5.678   0.034   1.005  0.00  0.00    +0.025 C 
ATOM     26  C   UNL     1       4.974   1.279  -0.942  0.00  0.00    +0.025 C 
ATOM     27  C   UNL     1       5.972   0.908  -0.041  0.00  0.00    +0.143 C 
BRANCH  27  30
ATOM     28  O   UNL     1       8.172   1.075   0.631  0.00  0.00    -0.126 OA
ATOM     29  O   UNL     1       7.532   2.205  -1.138  0.00  0.00    -0.126 OA
ATOM     30  N   UNL     1       7.288   1.421  -0.190  0.00  0.00    +0.058 N 
ENDBRANCH  27  30
ENDBRANCH  19  22
ENDBRANCH   1  20
BRANCH   1  31
ATOM     31  C   UNL     1      -0.347  -2.487  -0.569  0.00  0.00    +0.029 C 
BRANCH  31  32
ATOM     32  C   UNL     1       0.605  -3.548   0.019  0.00  0.00    +0.002 C 
ATOM     33  C   UNL     1       0.516  -4.884  -0.720  0.00  0.00    +0.000 C 
ATOM     34  C   UNL     1       0.291  -3.758   1.503  0.00  0.00    +0.000 C 
ENDBRANCH  31  32
ENDBRANCH   1  31
TORSDOF 14
