REMARK  Name = 448254
REMARK  9 active torsions:
REMARK  status: ('A' for Active; 'I' for Inactive)
REMARK    1  A    between atoms: C_1  and  S_2
REMARK    2  A    between atoms: C_1  and  C_11
REMARK    3  A    between atoms: S_2  and  C_3
REMARK    4  A    between atoms: C_3  and  C_4
REMARK    5  A    between atoms: C_4  and  S_5
REMARK    6  A    between atoms: S_5  and  N_8
REMARK    7  A    between atoms: C_11  and  N_12
REMARK    8  A    between atoms: C_11  and  C_17
REMARK    9  A    between atoms: C_17  and  O_18
REMARK                            x       y       z     vdW  Elec       q    Type
REMARK                         _______ _______ _______ _____ _____    ______ ____
ROOT
ATOM      1  C   UNK     1       1.563   0.980   0.073  0.00  0.00    +0.047 C 
ENDROOT
BRANCH   1   2
ATOM      2  S   UNK     1       0.455  -0.307   0.731  0.00  0.00    -0.140 S 
BRANCH   2   3
ATOM      3  C   UNK     1      -1.102   0.336   0.079  0.00  0.00    +0.084 C 
BRANCH   3   4
ATOM      4  C   UNK     1      -2.252  -0.583   0.448  0.00  0.00    +0.180 C 
BRANCH   4   5
ATOM      5  S   UNK     1      -3.787   0.053  -0.152  0.00  0.00    +0.039 S 
ATOM      6  O   UNK     1      -4.074   1.287   0.559  0.00  0.00    -0.158 OA
ATOM      7  O   UNK     1      -3.755   0.019  -1.603  0.00  0.00    -0.158 OA
BRANCH   5   8
ATOM      8  N   UNK     1      -4.843  -1.163   0.405  0.00  0.00    -0.207 NA
ATOM      9  H   UNK     1      -5.799  -0.936   0.131  0.00  0.00    +0.144 HD
ATOM     10  H   UNK     1      -4.786  -1.223   1.422  0.00  0.00    +0.144 HD
ENDBRANCH   5   8
ENDBRANCH   4   5
ENDBRANCH   3   4
ENDBRANCH   2   3
ENDBRANCH   1   2
BRANCH   1  11
ATOM     11  C   UNK     1       3.030   0.693   0.397  0.00  0.00    +0.047 C 
BRANCH  11  12
ATOM     12  N   UNK     1       3.883   1.739  -0.172  0.00  0.00    +0.389 N 
ATOM     13  H   UNK     1       3.595   2.647   0.191  0.00  0.00    -0.088 HD
ATOM     14  H   UNK     1       3.793   1.735  -1.188  0.00  0.00    -0.088 HD
ATOM     15  H   UNK     1       4.854   1.562   0.084  0.00  0.00    -0.088 HD
ENDBRANCH  11  12
BRANCH  11  17
ATOM     16  O   UNK     1       3.436  -0.917  -1.362  0.00  0.00    -0.253 OA
ATOM     17  C   UNK     1       3.495  -0.635  -0.171  0.00  0.00    +0.294 C 
BRANCH  17  18
ATOM     18  O   UNK     1       3.952  -1.501   0.768  0.00  0.00    -0.482 OA
ATOM     19  H   UNK     1       3.980  -1.244   1.669  0.00  0.00    +0.295 HD
ENDBRANCH  17  18
ENDBRANCH  11  17
ENDBRANCH   1  11
TORSDOF 9
