REMARK  Name = 72194
REMARK  3 active torsions:
REMARK  status: ('A' for Active; 'I' for Inactive)
REMARK    1  A    between atoms: N_2  and  C_12
REMARK    2  A    between atoms: C_15  and  C_16
REMARK    3  A    between atoms: C_16  and  O_17
REMARK                            x       y       z     vdW  Elec       q    Type
REMARK                         _______ _______ _______ _____ _____    ______ ____
ROOT
ATOM      1 CL   UNL     1       3.918  -2.648  -0.516  0.00  0.00    +0.024 Cl
ATOM      2  N   UNL     1      -0.264   0.083  -0.004  0.00  0.00    -0.238 N 
ATOM      3  N   UNL     1       0.751   2.048   0.269  0.00  0.00    -0.240 NA
ATOM      4  N   UNL     1       1.675  -1.357  -0.266  0.00  0.00    -0.314 NA
ATOM      5  N   UNL     1       3.750  -0.081  -0.122  0.00  0.00    -0.314 NA
ATOM      6  C   UNL     1       1.075  -0.172  -0.073  0.00  0.00    +0.221 C 
ATOM      7  C   UNL     1      -0.409   1.429   0.202  0.00  0.00    +0.224 C 
ATOM      8  C   UNL     1       1.688   1.059   0.098  0.00  0.00    +0.167 C 
ATOM      9  C   UNL     1       3.078   1.080   0.069  0.00  0.00    +0.212 C 
ATOM     10  C   UNL     1       3.018  -1.210  -0.276  0.00  0.00    +0.207 C 
ATOM     11  N   UNL     1       3.783   2.285   0.235  0.00  0.00    -0.331 N 
ATOM     12  H   UNL     1       4.767   2.287   0.213  0.00  0.00    +0.145 HD
ATOM     13  H   UNL     1       3.292   3.127   0.375  0.00  0.00    +0.145 HD
ENDROOT
BRANCH   2  15
ATOM     14  O   UNL     1      -2.484  -0.266  -0.754  0.00  0.00    -0.337 OA
ATOM     15  C   UNL     1      -1.350  -0.892  -0.127  0.00  0.00    +0.195 C 
ATOM     16  C   UNL     1      -1.816  -1.465   1.207  0.00  0.00    +0.054 C 
ATOM     17  C   UNL     1      -3.113  -0.734   1.466  0.00  0.00    +0.037 C 
ATOM     18  C   UNL     1      -3.640  -0.525   0.058  0.00  0.00    +0.146 C 
BRANCH  18  19
ATOM     19  C   UNL     1      -4.620   0.626  -0.058  0.00  0.00    +0.167 C 
BRANCH  19  20
ATOM     20  O   UNL     1      -5.039   0.739  -1.409  0.00  0.00    -0.379 OA
ATOM     21  H   UNL     1      -5.667   1.474  -1.493  0.00  0.00    +0.211 HD
ENDBRANCH  19  20
ENDBRANCH  18  19
ENDBRANCH   2  15
TORSDOF 3
