REMARK  Name = 444720
REMARK  7 active torsions:
REMARK  status: ('A' for Active; 'I' for Inactive)
REMARK    1  A    between atoms: C_1  and  N_2
REMARK    2  A    between atoms: C_1  and  P_6
REMARK    3  A    between atoms: C_1  and  C_12
REMARK    4  A    between atoms: P_6  and  O_8
REMARK    5  A    between atoms: P_6  and  O_10
REMARK    6  A    between atoms: C_12  and  C_13
REMARK    7  A    between atoms: C_13  and  C_14
REMARK                            x       y       z     vdW  Elec       q    Type
REMARK                         _______ _______ _______ _____ _____    ______ ____
ROOT
ATOM      1  C   UNL     1      -0.765   0.979  -0.444  0.00  0.00    +0.042 C 
ENDROOT
BRANCH   1   2
ATOM      2  N   UNL     1      -0.851   1.821   0.742  0.00  0.00    +0.389 N 
ATOM      3  H   UNL     1      -1.828   1.926   1.014  0.00  0.00    -0.088 HD
ATOM      4  H   UNL     1      -0.454   2.738   0.538  0.00  0.00    -0.088 HD
ATOM      5  H   UNL     1      -0.331   1.387   1.505  0.00  0.00    -0.088 HD
ENDBRANCH   1   2
BRANCH   1   6
ATOM      6  P   UNL     1      -1.648  -0.480   0.083  0.00  0.00    +0.317 P 
ATOM      7  O   UNL     1      -1.058  -1.232   1.239  0.00  0.00    -0.260 OA
BRANCH   6   8
ATOM      8  O   UNL     1      -3.157   0.052   0.326  0.00  0.00    -0.325 OA
ATOM      9  H   UNL     1      -3.717  -0.684   0.619  0.00  0.00    +0.220 HD
ENDBRANCH   6   8
BRANCH   6  10
ATOM     10  O   UNL     1      -1.792  -1.339  -1.280  0.00  0.00    -0.325 OA
ATOM     11  H   UNL     1      -2.266  -2.165  -1.094  0.00  0.00    +0.220 HD
ENDBRANCH   6  10
ENDBRANCH   1   6
BRANCH   1  12
ATOM     12  C   UNL     1       0.678   0.777  -0.910  0.00  0.00    -0.010 C 
BRANCH  12  13
ATOM     13  C   UNL     1       1.608   0.120   0.115  0.00  0.00    -0.002 C 
BRANCH  13  14
ATOM     14  C   UNL     1       3.032  -0.002  -0.432  0.00  0.00    -0.000 C 
ATOM     15  C   UNL     1       3.952  -0.695   0.561  0.00  0.00    -0.000 C 
ENDBRANCH  13  14
ENDBRANCH  12  13
ENDBRANCH   1  12
TORSDOF 7
