REMARK  Name = 5288130
REMARK  9 active torsions:
REMARK  status: ('A' for Active; 'I' for Inactive)
REMARK    1  A    between atoms: CA_1  and  C_2
REMARK    2  A    between atoms: CA_1  and  C_4
REMARK    3  A    between atoms: C_2  and  C_20
REMARK    4  A    between atoms: C_2  and  C_27
REMARK    5  A    between atoms: C_4  and  O_5
REMARK    6  A    between atoms: N_7  and  C_10
REMARK    7  A    between atoms: C_12  and  C_19
REMARK    8  A    between atoms: C_21  and  C_24
REMARK    9  A    between atoms: C_27  and  S_28
REMARK                            x       y       z     vdW  Elec       q    Type
REMARK                         _______ _______ _______ _____ _____    ______ ____
ROOT
ATOM      1  CA  UNL     1       0.504  -0.057   0.114  0.00  0.00    +0.116 C 
ATOM      2  N   UNL     1      -0.632   0.475   0.663  0.00  0.00    -0.339 N 
ATOM      3  H   UNL     1      -0.509   0.922   1.531  0.00  0.00    +0.167 HD
ENDROOT
BRANCH   2   5
ATOM      4  N   UNL     1      -2.776  -0.541   0.490  0.00  0.00    -0.251 N 
ATOM      5  C   UNL     1      -1.905   0.476   0.184  0.00  0.00    +0.120 C 
ATOM      6  C   UNL     1      -3.993  -0.274  -0.131  0.00  0.00    +0.057 C 
ATOM      7  C   UNL     1      -2.550   1.383  -0.622  0.00  0.00    +0.074 C 
ATOM      8  C   UNL     1      -3.870   0.912  -0.823  0.00  0.00    +0.021 C 
ATOM      9  C   UNL     1      -2.555  -1.672   1.276  0.00  0.00    +0.071 C 
ATOM     10  C   UNL     1      -5.048  -1.213   0.059  0.00  0.00    +0.015 C 
ATOM     11  C   UNL     1      -3.553  -2.554   1.452  0.00  0.00    +0.017 C 
ATOM     12  C   UNL     1      -4.837  -2.306   0.817  0.00  0.00    +0.003 C 
BRANCH   7  14
ATOM     13  O   UNL     1      -2.550   3.399  -1.875  0.00  0.00    -0.283 OA
ATOM     14  C   UNL     1      -1.965   2.584  -1.149  0.00  0.00    +0.237 C 
ENDBRANCH   7  14
ENDBRANCH   2   5
BRANCH   1  16
ATOM     15  OXT UNL     1      -0.026  -1.897  -1.356  0.00  0.00    -0.244 OA
ATOM     16  C   UNL     1       0.265  -0.723  -1.197  0.00  0.00    +0.350 C 
BRANCH  16  17
ATOM     17  O   UNL     1       0.402   0.180  -2.197  0.00  0.00    -0.476 OA
ATOM     18  H   UNL     1       0.627   1.068  -2.000  0.00  0.00    +0.295 HD
ENDBRANCH  16  17
ENDBRANCH   1  16
BRANCH   1  19
ATOM     19  C   UNL     1       1.766  -0.041   0.619  0.00  0.00    +0.090 C 
BRANCH  19  20
ATOM     20  C   UNL     1       2.872  -0.674  -0.125  0.00  0.00    -0.014 C 
ATOM     21  C   UNL     1       4.163  -0.742   0.237  0.00  0.00    +0.053 C 
BRANCH  21  24
ATOM     22  O   UNL     1       4.855  -1.945  -1.716  0.00  0.00    -0.270 OA
ATOM     23  N   UNL     1       6.424  -1.397  -0.126  0.00  0.00    -0.325 N 
ATOM     24  C   UNL     1       5.150  -1.423  -0.646  0.00  0.00    +0.243 C 
ATOM     25  H   UNL     1       7.166  -1.816  -0.619  0.00  0.00    +0.145 HD
ATOM     26  H   UNL     1       6.593  -0.960   0.740  0.00  0.00    +0.145 HD
ENDBRANCH  21  24
ENDBRANCH  19  20
BRANCH  19  27
ATOM     27  C   UNL     1       2.100   0.550   1.974  0.00  0.00    +0.157 C 
BRANCH  27  28
ATOM     28  S   UNL     1       2.559   2.241   1.754  0.00  0.00    -0.030 S 
ATOM     29  O   UNL     1       3.807   2.283   1.016  0.00  0.00    -0.176 OA
ATOM     30  O   UNL     1       1.393   2.978   1.308  0.00  0.00    -0.176 OA
ATOM     31  H   UNL     1       2.892   2.925   2.881  0.00  0.00    +0.210 HD
ENDBRANCH  27  28
ENDBRANCH  19  27
ENDBRANCH   1  19
TORSDOF 9
