REMARK  Name = 447742
REMARK  12 active torsions:
REMARK  status: ('A' for Active; 'I' for Inactive)
REMARK    1  A    between atoms: C_2  and  C_10
REMARK    2  A    between atoms: C_3  and  C_19
REMARK    3  A    between atoms: C_4  and  O_8
REMARK    4  A    between atoms: C_10  and  N_11
REMARK    5  A    between atoms: N_11  and  O_13
REMARK    6  A    between atoms: O_13  and  C_14
REMARK    7  A    between atoms: C_14  and  C_16
REMARK    8  A    between atoms: C_16  and  O_17
REMARK    9  A    between atoms: C_19  and  O_20
REMARK   10  A    between atoms: O_20  and  P_21
REMARK   11  A    between atoms: P_21  and  O_23
REMARK   12  A    between atoms: P_21  and  O_25
REMARK                            x       y       z     vdW  Elec       q    Type
REMARK                         _______ _______ _______ _____ _____    ______ ____
ROOT
ATOM      1  N   UNL     1      -3.117   2.334  -0.613  0.00  0.00    -0.245 NA
ATOM      2  C   UNL     1      -0.735   1.105   0.180  0.00  0.00    +0.031 C 
ATOM      3  C   UNL     1      -1.727   0.362  -0.452  0.00  0.00    +0.027 C 
ATOM      4  C   UNL     1      -0.933   2.460   0.416  0.00  0.00    +0.144 C 
ATOM      5  C   UNL     1      -2.131   3.022   0.004  0.00  0.00    +0.093 C 
ATOM      6  C   UNL     1      -2.889   1.018  -0.825  0.00  0.00    +0.097 C 
ATOM      7  C   UNL     1      -2.395   4.474   0.233  0.00  0.00    +0.055 C 
ENDROOT
BRANCH   4   8
ATOM      8  O   UNL     1       0.018   3.210   1.032  0.00  0.00    -0.505 OA
ATOM      9  H   UNL     1       0.823   2.814   1.305  0.00  0.00    +0.292 HD
ENDBRANCH   4   8
BRANCH   2  10
ATOM     10  C   UNL     1       0.540   0.451   0.606  0.00  0.00    +0.126 C 
BRANCH  10  11
ATOM     11  N   UNL     1       1.562   0.497  -0.439  0.00  0.00    -0.185 NA
ATOM     12  H   UNL     1       1.342  -0.158  -1.190  0.00  0.00    +0.155 HD
BRANCH  11  13
ATOM     13  O   UNL     1       2.788   0.109   0.240  0.00  0.00    -0.273 OA
BRANCH  13  14
ATOM     14  C   UNL     1       3.834   0.132  -0.721  0.00  0.00    +0.275 C 
BRANCH  14  16
ATOM     15  O   UNL     1       5.286  -0.539   1.109  0.00  0.00    -0.247 OA
ATOM     16  C   UNL     1       5.132  -0.262  -0.072  0.00  0.00    +0.347 C 
BRANCH  16  17
ATOM     17  O   UNL     1       6.131  -0.273  -0.990  0.00  0.00    -0.478 OA
ATOM     18  H   UNL     1       5.950  -0.051  -1.882  0.00  0.00    +0.295 HD
ENDBRANCH  16  17
ENDBRANCH  14  16
ENDBRANCH  13  14
ENDBRANCH  11  13
ENDBRANCH  10  11
ENDBRANCH   2  10
BRANCH   3  19
ATOM     19  C   UNL     1      -1.569  -1.092  -0.730  0.00  0.00    +0.181 C 
BRANCH  19  20
ATOM     20  O   UNL     1      -2.063  -1.843   0.373  0.00  0.00    -0.268 OA
BRANCH  20  21
ATOM     21  P   UNL     1      -1.995  -3.455   0.296  0.00  0.00    +0.473 P 
ATOM     22  O   UNL     1      -2.535  -4.174   1.497  0.00  0.00    -0.227 OA
BRANCH  21  23
ATOM     23  O   UNL     1      -2.757  -3.778  -1.093  0.00  0.00    -0.303 OA
ATOM     24  H   UNL     1      -2.346  -3.274  -1.813  0.00  0.00    +0.222 HD
ENDBRANCH  21  23
BRANCH  21  25
ATOM     25  O   UNL     1      -0.445  -3.759  -0.052  0.00  0.00    -0.303 OA
ATOM     26  H   UNL     1      -0.185  -3.254  -0.839  0.00  0.00    +0.222 HD
ENDBRANCH  21  25
ENDBRANCH  20  21
ENDBRANCH  19  20
ENDBRANCH   3  19
TORSDOF 12
