REMARK  Name = 447340
REMARK  7 active torsions:
REMARK  status: ('A' for Active; 'I' for Inactive)
REMARK    1  A    between atoms: C_1  and  N_2
REMARK    2  A    between atoms: C_1  and  C_12
REMARK    3  A    between atoms: C_1  and  C_20
REMARK    4  A    between atoms: C_6  and  C_9
REMARK    5  A    between atoms: C_12  and  C_13
REMARK    6  A    between atoms: C_13  and  C_14
REMARK    7  A    between atoms: C_20  and  O_21
REMARK                            x       y       z     vdW  Elec       q    Type
REMARK                         _______ _______ _______ _____ _____    ______ ____
ROOT
ATOM      1  C   UNL     1       0.529   1.988   0.015  0.00  0.00    +0.089 C 
ENDROOT
BRANCH   1   2
ATOM      2  N   UNL     1       1.506   0.925   0.301  0.00  0.00    -0.246 NA
ATOM      3  N   UNL     1       2.958  -0.281   1.419  0.00  0.00    -0.251 NA
ATOM      4  C   UNL     1       1.896  -0.031  -0.568  0.00  0.00    +0.125 C 
ATOM      5  C   UNL     1       2.151   0.755   1.475  0.00  0.00    +0.201 C 
ATOM      6  C   UNL     1       2.804  -0.775   0.148  0.00  0.00    +0.124 C 
BRANCH   6   9
ATOM      7  O   UNL     1       3.401  -2.378  -1.485  0.00  0.00    -0.269 OA
ATOM      8  N   UNL     1       4.402  -2.549   0.556  0.00  0.00    -0.324 N 
ATOM      9  C   UNL     1       3.516  -1.923  -0.325  0.00  0.00    +0.257 C 
ATOM     10  H   UNL     1       4.908  -3.342   0.265  0.00  0.00    +0.145 HD
ATOM     11  H   UNL     1       4.519  -2.198   1.469  0.00  0.00    +0.145 HD
ENDBRANCH   6   9
ENDBRANCH   1   2
BRANCH   1  12
ATOM     12  C   UNL     1      -0.882   1.460  -0.342  0.00  0.00    +0.023 C 
BRANCH  12  13
ATOM     13  C   UNL     1      -1.533   0.575   0.736  0.00  0.00    +0.028 C 
BRANCH  13  14
ATOM     14  C   UNL     1      -2.835  -0.077   0.348  0.00  0.00    -0.022 C 
ATOM     15  C   UNL     1      -4.029   0.585   0.594  0.00  0.00    -0.004 C 
ATOM     16  C   UNL     1      -2.819  -1.329  -0.248  0.00  0.00    -0.004 C 
ATOM     17  C   UNL     1      -5.234  -0.019   0.235  0.00  0.00    -0.000 C 
ATOM     18  C   UNL     1      -4.024  -1.933  -0.606  0.00  0.00    -0.000 C 
ATOM     19  C   UNL     1      -5.232  -1.278  -0.365  0.00  0.00    -0.000 C 
ENDBRANCH  13  14
ENDBRANCH  12  13
ENDBRANCH   1  12
BRANCH   1  20
ATOM     20  C   UNL     1       1.054   2.918  -1.095  0.00  0.00    +0.153 C 
BRANCH  20  21
ATOM     21  O   UNL     1       2.371   3.367  -0.795  0.00  0.00    -0.381 OA
ATOM     22  H   UNL     1       2.683   3.951  -1.504  0.00  0.00    +0.210 HD
ENDBRANCH  20  21
ENDBRANCH   1  20
TORSDOF 7
