REMARK  Name = 24316
REMARK  3 active torsions:
REMARK  status: ('A' for Active; 'I' for Inactive)
REMARK    1  A    between atoms: N_2  and  C_23
REMARK    2  A    between atoms: P_15  and  O_27
REMARK    3  A    between atoms: C_22  and  O_25
REMARK                            x       y       z     vdW  Elec       q    Type
REMARK                         _______ _______ _______ _____ _____    ______ ____
ROOT
ATOM      1  O   UNL     1      -4.939   2.074  -0.682  0.00  0.00    -0.208 OA
ATOM      2  N   UNL     1      -0.946   0.257   0.403  0.00  0.00    -0.207 NA
ATOM      3  N   UNL     1      -2.823  -1.276   0.202  0.00  0.00    -0.279 N 
ATOM      4  N   UNL     1      -2.054   2.147  -0.078  0.00  0.00    -0.241 NA
ATOM      5  N   UNL     1      -4.902  -0.223  -0.377  0.00  0.00    -0.301 NA
ATOM      6  N   UNL     1      -4.736  -2.550  -0.041  0.00  0.00    -0.320 N 
ATOM      7  C   UNL     1      -2.236  -0.077   0.171  0.00  0.00    +0.191 C 
ATOM      8  C   UNL     1      -0.883   1.622   0.240  0.00  0.00    +0.205 C 
ATOM      9  C   UNL     1      -2.903   1.077  -0.120  0.00  0.00    +0.183 C 
ATOM     10  C   UNL     1      -4.321   1.050  -0.418  0.00  0.00    +0.224 C 
ATOM     11  C   UNL     1      -4.187  -1.294  -0.086  0.00  0.00    +0.245 C 
ATOM     12  H   UNL     1      -2.323  -2.097   0.415  0.00  0.00    +0.152 HD
ATOM     13  H   UNL     1      -4.173  -3.326   0.180  0.00  0.00    +0.146 HD
ATOM     14  H   UNL     1      -5.695  -2.675  -0.229  0.00  0.00    +0.146 HD
ENDROOT
BRANCH   2  23
ATOM     15  P   UNL     1       4.746   0.122  -0.649  0.00  0.00    +0.476 P 
ATOM     16  O   UNL     1       1.080   0.071   1.642  0.00  0.00    -0.336 OA
ATOM     17  O   UNL     1       3.391  -0.723  -0.964  0.00  0.00    -0.271 OA
ATOM     18  O   UNL     1       4.675   0.498   0.930  0.00  0.00    -0.271 OA
ATOM     19  O   UNL     1       6.013  -0.575  -1.056  0.00  0.00    -0.227 OA
ATOM     20  C   UNL     1       2.213  -0.239  -0.360  0.00  0.00    +0.186 C 
ATOM     21  C   UNL     1       2.394  -0.171   1.142  0.00  0.00    +0.177 C 
ATOM     22  C   UNL     1       0.980  -1.106  -0.465  0.00  0.00    +0.184 C 
ATOM     23  C   UNL     1       0.167  -0.627   0.753  0.00  0.00    +0.209 C 
ATOM     24  C   UNL     1       3.424   0.880   1.503  0.00  0.00    +0.186 C 
BRANCH  22  25
ATOM     25  O   UNL     1       1.327  -2.477  -0.293  0.00  0.00    -0.378 OA
ATOM     26  H   UNL     1       1.839  -2.779  -1.059  0.00  0.00    +0.211 HD
ENDBRANCH  22  25
BRANCH  15  27
ATOM     27  O   UNL     1       4.519   1.539  -1.399  0.00  0.00    -0.302 OA
ATOM     28  H   UNL     1       3.689   1.936  -1.095  0.00  0.00    +0.222 HD
ENDBRANCH  15  27
ENDBRANCH   2  23
TORSDOF 3
