REMARK  Name = 446807
REMARK  7 active torsions:
REMARK  status: ('A' for Active; 'I' for Inactive)
REMARK    1  A    between atoms: C_2  and  O_13
REMARK    2  A    between atoms: C_3  and  O_7
REMARK    3  A    between atoms: C_4  and  C_18
REMARK    4  A    between atoms: C_5  and  O_9
REMARK    5  A    between atoms: C_6  and  O_11
REMARK    6  A    between atoms: O_13  and  S_14
REMARK    7  A    between atoms: C_18  and  O_19
REMARK                            x       y       z     vdW  Elec       q    Type
REMARK                         _______ _______ _______ _____ _____    ______ ____
ROOT
ATOM      1  O   UNL     1      -2.117   0.236   1.051  0.00  0.00    -0.326 OA
ATOM      2  C   UNL     1       0.273   0.047   0.546  0.00  0.00    +0.206 C 
ATOM      3  C   UNL     1      -0.009  -1.048  -0.486  0.00  0.00    +0.174 C 
ATOM      4  C   UNL     1      -0.924   0.977   0.784  0.00  0.00    +0.179 C 
ATOM      5  C   UNL     1      -1.316  -1.768  -0.147  0.00  0.00    +0.196 C 
ATOM      6  C   UNL     1      -2.466  -0.785   0.111  0.00  0.00    +0.262 C 
ENDROOT
BRANCH   3   7
ATOM      7  O   UNL     1      -0.092  -0.481  -1.790  0.00  0.00    -0.379 OA
ATOM      8  H   UNL     1       0.739  -0.026  -1.998  0.00  0.00    +0.211 HD
ENDBRANCH   3   7
BRANCH   5   9
ATOM      9  O   UNL     1      -1.130  -2.548   1.033  0.00  0.00    -0.378 OA
ATOM     10  H   UNL     1      -0.406  -3.178   0.893  0.00  0.00    +0.211 HD
ENDBRANCH   5   9
BRANCH   6  11
ATOM     11  O   UNL     1      -2.999  -0.264  -1.102  0.00  0.00    -0.358 OA
ATOM     12  H   UNL     1      -3.721   0.351  -0.900  0.00  0.00    +0.213 HD
ENDBRANCH   6  11
BRANCH   2  13
ATOM     13  O   UNL     1       1.425   0.797   0.186  0.00  0.00    -0.198 OA
BRANCH  13  14
ATOM     14  S   UNL     1       2.862   0.041   0.037  0.00  0.00    +0.239 S 
ATOM     15  O   UNL     1       3.917   1.262  -0.203  0.00  0.00    -0.116 OA
ATOM     16  O   UNL     1       3.171  -0.556   1.323  0.00  0.00    -0.022 OA
ATOM     17  O   UNL     1       2.846  -0.778  -1.161  0.00  0.00    -0.116 OA
ENDBRANCH  13  14
ENDBRANCH   2  13
BRANCH   4  18
ATOM     18  C   UNL     1      -1.151   2.057  -0.273  0.00  0.00    +0.169 C 
BRANCH  18  19
ATOM     19  O   UNL     1      -2.292   2.813   0.092  0.00  0.00    -0.379 OA
ATOM     20  H   UNL     1      -2.448   3.503  -0.572  0.00  0.00    +0.211 HD
ENDBRANCH  18  19
ENDBRANCH   4  18
TORSDOF 7
