REMARK  Name = 448650
REMARK  2 active torsions:
REMARK  status: ('A' for Active; 'I' for Inactive)
REMARK    1  A    between atoms: C_5  and  C_9
REMARK    2  A    between atoms: C_9  and  O_10
REMARK                            x       y       z     vdW  Elec       q    Type
REMARK                         _______ _______ _______ _____ _____    ______ ____
ROOT
ATOM      1  O   UNL     1       1.843  -1.209   0.128  0.00  0.00    -0.264 OA
ATOM      2  O   UNL     1       0.622   1.985  -0.240  0.00  0.00    -0.262 OA
ATOM      3  N   UNL     1       2.099   0.171  -0.029  0.00  0.00    -0.157 N 
ATOM      4  N   UNL     1       0.443  -1.428   0.149  0.00  0.00    -0.040 NA
ATOM      5  C   UNL     1      -0.102  -0.263   0.014  0.00  0.00    +0.255 A 
ATOM      6  C   UNL     1       0.910   0.818  -0.106  0.00  0.00    +0.315 A 
ATOM      7  H   UNL     1       2.989   0.590  -0.074  0.00  0.00    +0.213 HD
ENDROOT
BRANCH   5   9
ATOM      8  O   UNL     1      -2.322  -0.997  -0.412  0.00  0.00    -0.243 OA
ATOM      9  C   UNL     1      -1.572  -0.138  -0.003  0.00  0.00    +0.364 C 
BRANCH   9  10
ATOM     10  O   UNL     1      -1.920   1.061   0.499  0.00  0.00    -0.476 OA
ATOM     11  H   UNL     1      -1.258   1.657   0.790  0.00  0.00    +0.295 HD
ENDBRANCH   9  10
ENDBRANCH   5   9
TORSDOF 2
