REMARK  Name = 15759
REMARK  3 active torsions:
REMARK  status: ('A' for Active; 'I' for Inactive)
REMARK    1  A    between atoms: C_1  and  C_10
REMARK    2  A    between atoms: C_2  and  N_7
REMARK    3  A    between atoms: C_10  and  C_11
REMARK                            x       y       z     vdW  Elec       q    Type
REMARK                         _______ _______ _______ _____ _____    ______ ____
ROOT
ATOM      1  C   UNL     1       0.058   0.202   0.320  0.00  0.00    -0.009 C 
ATOM      2  C   UNL     1      -0.641  -0.980   0.070  0.00  0.00    +0.037 C 
ATOM      3  C   UNL     1      -0.602   1.429   0.253  0.00  0.00    -0.003 C 
ATOM      4  C   UNL     1      -1.998  -0.933  -0.248  0.00  0.00    +0.014 C 
ATOM      5  C   UNL     1      -1.960   1.475  -0.064  0.00  0.00    -0.000 C 
ATOM      6  C   UNL     1      -2.658   0.294  -0.315  0.00  0.00    +0.001 C 
ENDROOT
BRANCH   2   7
ATOM      7  N   UNL     1       0.010  -2.231   0.133  0.00  0.00    -0.357 N 
ATOM      8  H   UNL     1       0.968  -2.277   0.356  0.00  0.00    +0.142 HD
ATOM      9  H   UNL     1      -0.494  -3.058  -0.046  0.00  0.00    +0.142 HD
ENDBRANCH   2   7
BRANCH   1  10
ATOM     10  C   UNL     1       1.512   0.182   0.662  0.00  0.00    +0.028 C 
BRANCH  10  11
ATOM     11  C   UNL     1       2.401   0.274  -0.585  0.00  0.00    +0.005 C 
ATOM     12  C   UNL     1       3.878   0.288  -0.227  0.00  0.00    +0.000 C 
ENDBRANCH  10  11
ENDBRANCH   1  10
TORSDOF 3
