REMARK  Name = 763
REMARK  4 active torsions:
REMARK  status: ('A' for Active; 'I' for Inactive)
REMARK    1  A    between atoms: N_1  and  C_4
REMARK    2  A    between atoms: N_1  and  C_9
REMARK    3  A    between atoms: C_9  and  C_11
REMARK    4  A    between atoms: C_11  and  O_12
REMARK                            x       y       z     vdW  Elec       q    Type
REMARK                         _______ _______ _______ _____ _____    ______ ____
ROOT
ATOM      1  N   UNL     1      -2.782  -0.932   0.008  0.00  0.00    -0.370 N 
ATOM      2  N   UNL     1      -2.214   1.275   0.001  0.00  0.00    -0.370 N 
ATOM      3  C   UNL     1      -1.752  -0.022   0.001  0.00  0.00    +0.189 C 
ATOM      4  H   UNL     1      -2.587  -1.897   0.008  0.00  0.00    +0.159 HD
ATOM      5  H   UNL     1      -3.716  -0.619   0.013  0.00  0.00    +0.159 HD
ATOM      6  H   UNL     1      -1.576   2.025  -0.004  0.00  0.00    +0.159 HD
ATOM      7  H   UNL     1      -3.182   1.452   0.007  0.00  0.00    +0.159 HD
ENDROOT
BRANCH   3   8
ATOM      8  N   UNL     1      -0.515  -0.424  -0.006  0.00  0.00    -0.228 NA
BRANCH   8   9
ATOM      9  C   UNL     1       0.515   0.607  -0.014  0.00  0.00    +0.237 C 
BRANCH   9  11
ATOM     10  O   UNL     1       2.051  -1.281  -0.001  0.00  0.00    -0.248 OA
ATOM     11  C   UNL     1       1.853  -0.075   0.000  0.00  0.00    +0.339 C 
BRANCH  11  12
ATOM     12  O   UNL     1       2.845   0.852   0.012  0.00  0.00    -0.479 OA
ATOM     13  H   UNL     1       2.634   1.765   0.012  0.00  0.00    +0.295 HD
ENDBRANCH  11  12
ENDBRANCH   9  11
ENDBRANCH   8   9
ENDBRANCH   3   8
TORSDOF 4
