REMARK  Name = 65355
REMARK  12 active torsions:
REMARK  status: ('A' for Active; 'I' for Inactive)
REMARK    1  A    between atoms: O_1  and  P_2
REMARK    2  A    between atoms: O_1  and  C_18
REMARK    3  A    between atoms: P_2  and  O_4
REMARK    4  A    between atoms: P_2  and  O_6
REMARK    5  A    between atoms: O_6  and  P_7
REMARK    6  A    between atoms: P_7  and  O_9
REMARK    7  A    between atoms: P_7  and  O_11
REMARK    8  A    between atoms: O_11  and  P_12
REMARK    9  A    between atoms: P_12  and  O_14
REMARK   10  A    between atoms: P_12  and  O_16
REMARK   11  A    between atoms: C_18  and  C_21
REMARK   12  A    between atoms: C_20  and  N_26
REMARK                            x       y       z     vdW  Elec       q    Type
REMARK                         _______ _______ _______ _____ _____    ______ ____
ROOT
ATOM      1  O   UNL     1      -1.779  -2.802  -0.186  0.00  0.00    -0.270 OA
ENDROOT
BRANCH   1   2
ATOM      2  P   UNL     1      -2.996  -1.863  -0.693  0.00  0.00    +0.484 P 
ATOM      3  O   UNL     1      -4.339  -2.207  -0.117  0.00  0.00    -0.227 OA
BRANCH   2   4
ATOM      4  O   UNL     1      -2.921  -1.945  -2.307  0.00  0.00    -0.302 OA
ATOM      5  H   UNL     1      -2.028  -1.710  -2.601  0.00  0.00    +0.222 HD
ENDBRANCH   2   4
BRANCH   2   6
ATOM      6  O   UNL     1      -2.506  -0.357  -0.376  0.00  0.00    -0.186 OA
BRANCH   6   7
ATOM      7  P   UNL     1      -3.157   1.076  -0.737  0.00  0.00    +0.492 P 
ATOM      8  O   UNL     1      -3.330   1.348  -2.203  0.00  0.00    -0.226 OA
BRANCH   7   9
ATOM      9  O   UNL     1      -4.524   1.109   0.125  0.00  0.00    -0.302 OA
ATOM     10  H   UNL     1      -4.324   0.924   1.056  0.00  0.00    +0.222 HD
ENDBRANCH   7   9
BRANCH   7  11
ATOM     11  O   UNL     1      -2.201   2.126   0.033  0.00  0.00    -0.186 OA
BRANCH  11  12
ATOM     12  P   UNL     1      -1.737   2.228   1.578  0.00  0.00    +0.481 P 
ATOM     13  O   UNL     1      -0.987   1.032   2.086  0.00  0.00    -0.227 OA
BRANCH  12  14
ATOM     14  O   UNL     1      -3.107   2.569   2.364  0.00  0.00    -0.302 OA
ATOM     15  H   UNL     1      -3.520   3.352   1.968  0.00  0.00    +0.222 HD
ENDBRANCH  12  14
BRANCH  12  16
ATOM     16  O   UNL     1      -0.919   3.621   1.623  0.00  0.00    -0.302 OA
ATOM     17  H   UNL     1      -1.478   4.335   1.278  0.00  0.00    +0.222 HD
ENDBRANCH  12  16
ENDBRANCH  11  12
ENDBRANCH   7  11
ENDBRANCH   6   7
ENDBRANCH   2   6
ENDBRANCH   1   2
BRANCH   1  18
ATOM     18  C   UNL     1      -0.464  -2.573  -0.662  0.00  0.00    +0.188 C 
BRANCH  18  21
ATOM     19  O   UNL     1       1.863  -2.702  -0.060  0.00  0.00    -0.329 OA
ATOM     20  C   UNL     1       2.488  -1.812   0.881  0.00  0.00    +0.223 C 
ATOM     21  C   UNL     1       0.526  -2.990   0.405  0.00  0.00    +0.169 C 
ATOM     22  C   UNL     1       1.486  -1.558   1.941  0.00  0.00    +0.022 C 
ATOM     23  C   UNL     1       0.368  -2.229   1.673  0.00  0.00    +0.005 C 
BRANCH  20  26
ATOM     24  O   UNL     1       5.127  -0.764   0.623  0.00  0.00    -0.252 OA
ATOM     25  O   UNL     1       3.629   2.906  -1.708  0.00  0.00    -0.270 OA
ATOM     26  N   UNL     1       2.834  -0.589   0.217  0.00  0.00    -0.215 N 
ATOM     27  N   UNL     1       4.366   1.062  -0.538  0.00  0.00    -0.236 N 
ATOM     28  C   UNL     1       1.818   0.168  -0.357  0.00  0.00    +0.072 C 
ATOM     29  C   UNL     1       4.175  -0.148   0.139  0.00  0.00    +0.316 C 
ATOM     30  C   UNL     1       2.004   1.325  -1.004  0.00  0.00    +0.047 C 
ATOM     31  C   UNL     1       3.390   1.851  -1.126  0.00  0.00    +0.250 C 
ATOM     32  C   UNL     1       0.894   2.121  -1.613  0.00  0.00    +0.037 C 
ATOM     33  H   UNL     1       5.293   1.387  -0.604  0.00  0.00    +0.159 HD
ENDBRANCH  20  26
ENDBRANCH  18  21
ENDBRANCH   1  18
TORSDOF 12
