REMARK  Name = 6971044
REMARK  5 active torsions:
REMARK  status: ('A' for Active; 'I' for Inactive)
REMARK    1  A    between atoms: C_2  and  C_13
REMARK    2  A    between atoms: C_8  and  O_11
REMARK    3  A    between atoms: C_13  and  CA_14
REMARK    4  A    between atoms: CA_14  and  N_15
REMARK    5  A    between atoms: CA_14  and  C_21
REMARK                            x       y       z     vdW  Elec       q    Type
REMARK                         _______ _______ _______ _____ _____    ______ ____
ROOT
ATOM      1  N   UNL     1       0.634  -2.283   0.241  0.00  0.00    -0.312 N 
ATOM      2  C   UNL     1      -0.419  -0.395   0.745  0.00  0.00    -0.008 C 
ATOM      3  C   UNL     1       0.911  -0.072   0.357  0.00  0.00    +0.014 C 
ATOM      4  C   UNL     1       1.551  -1.274   0.045  0.00  0.00    +0.048 C 
ATOM      5  C   UNL     1      -0.559  -1.761   0.663  0.00  0.00    +0.058 C 
ATOM      6  C   UNL     1       1.635   1.131   0.239  0.00  0.00    +0.038 C 
ATOM      7  C   UNL     1       2.883  -1.333  -0.378  0.00  0.00    +0.018 C 
ATOM      8  C   UNL     1       2.969   1.088  -0.183  0.00  0.00    +0.134 C 
ATOM      9  C   UNL     1       3.581  -0.127  -0.487  0.00  0.00    +0.038 C 
ATOM     10  H   UNL     1       0.811  -3.240   0.097  0.00  0.00    +0.152 HD
ENDROOT
BRANCH   8  11
ATOM     11  O   UNL     1       3.675   2.247  -0.298  0.00  0.00    -0.506 OA
ATOM     12  H   UNL     1       3.268   3.066  -0.095  0.00  0.00    +0.292 HD
ENDBRANCH   8  11
BRANCH   2  13
ATOM     13  C   UNL     1      -1.469   0.557   1.161  0.00  0.00    +0.017 C 
BRANCH  13  14
ATOM     14  CA  UNL     1      -2.329   1.077  -0.015  0.00  0.00    +0.045 C 
BRANCH  14  15
ATOM     15  N   UNL     1      -3.255   2.130   0.512  0.00  0.00    +0.389 N 
ATOM     16  H1  UNL     1      -2.711   2.866   0.963  0.00  0.00    -0.088 HD
ATOM     17  H2  UNL     1      -3.892   1.713   1.191  0.00  0.00    -0.088 HD
ATOM     18  H3  UNL     1      -3.792   2.527  -0.258  0.00  0.00    -0.088 HD
ENDBRANCH  14  15
BRANCH  14  21
ATOM     19  O   UNL     1      -3.861  -0.720   0.048  0.00  0.00    -0.248 OA
ATOM     20  OXT UNL     1      -2.860  -0.203  -1.942  0.00  0.00    -0.248 OA
ATOM     21  C   UNL     1      -3.089  -0.063  -0.708  0.00  0.00    +0.345 C 
ENDBRANCH  14  21
ENDBRANCH  13  14
ENDBRANCH   2  13
TORSDOF 5
