REMARK  Name = 5478838
REMARK  12 active torsions:
REMARK  status: ('A' for Active; 'I' for Inactive)
REMARK    1  A    between atoms: C_1  and  C_4
REMARK    2  A    between atoms: C_1  and  C_12
REMARK    3  A    between atoms: C_1  and  C_23
REMARK    4  A    between atoms: N_3  and  CA_6
REMARK    5  A    between atoms: CA_6  and  C_9
REMARK    6  A    between atoms: C_9  and  O_10
REMARK    7  A    between atoms: C_12  and  P_13
REMARK    8  A    between atoms: P_13  and  O_15
REMARK    9  A    between atoms: P_13  and  C_17
REMARK   10  A    between atoms: C_17  and  N_19
REMARK   11  A    between atoms: C_23  and  C_24
REMARK   12  A    between atoms: C_29  and  C_30
REMARK                            x       y       z     vdW  Elec       q    Type
REMARK                         _______ _______ _______ _____ _____    ______ ____
ROOT
ATOM      1  C   UNL     1       2.023  -1.163   0.434  0.00  0.00    +0.090 C 
ENDROOT
BRANCH   1   4
ATOM      2  O   UNL     1       1.912   0.442   2.256  0.00  0.00    -0.275 OA
ATOM      3  N   UNL     1       1.599   1.202   0.090  0.00  0.00    -0.297 N 
ATOM      4  C   ACE A   0       1.853   0.230   1.046  0.00  0.00    +0.223 C 
ATOM      5  H   UNL     1       1.570   0.941  -0.859  0.00  0.00    +0.150 HD
BRANCH   3   6
ATOM      6  CA  UNL     1       1.375   2.584   0.441  0.00  0.00    +0.171 C 
ATOM      7  CB  UNL     1       2.421   3.477  -0.210  0.00  0.00    +0.033 C 
BRANCH   6   9
ATOM      8  OXT UNL     1      -0.455   4.159   0.326  0.00  0.00    -0.248 OA
ATOM      9  C   UNL     1      -0.022   3.043   0.060  0.00  0.00    +0.332 C 
BRANCH   9  10
ATOM     10  O   UNL     1      -0.765   2.115  -0.589  0.00  0.00    -0.479 OA
ATOM     11  H   UNL     1      -0.403   1.271  -0.776  0.00  0.00    +0.295 HD
ENDBRANCH   9  10
ENDBRANCH   6   9
ENDBRANCH   3   6
ENDBRANCH   1   4
BRANCH   1  12
ATOM     12  C   UNL     1       3.441  -1.669   0.726  0.00  0.00    +0.094 C 
BRANCH  12  13
ATOM     13  P   UNL     1       4.759  -0.607   0.088  0.00  0.00    +0.200 P 
ATOM     14  O   UNL     1       4.864   0.693   0.809  0.00  0.00    -0.292 OA
BRANCH  13  15
ATOM     15  O   UNL     1       6.047  -1.565   0.266  0.00  0.00    -0.344 OA
ATOM     16  H   UNL     1       6.237  -1.679   1.210  0.00  0.00    +0.218 HD
ENDBRANCH  13  15
BRANCH  13  17
ATOM     17  C   UNL     1       4.560  -0.511  -1.673  0.00  0.00    +0.015 C 
ATOM     18  C   UNL     1       4.648  -1.862  -2.362  0.00  0.00    -0.014 C 
BRANCH  17  19
ATOM     19  N   UNL     1       5.684   0.326  -2.067  0.00  0.00    +0.388 N 
ATOM     20  H   UNL     1       5.616   1.230  -1.599  0.00  0.00    -0.089 HD
ATOM     21  H   UNL     1       5.668   0.464  -3.077  0.00  0.00    -0.089 HD
ATOM     22  H   UNL     1       6.557  -0.129  -1.800  0.00  0.00    -0.089 HD
ENDBRANCH  17  19
ENDBRANCH  13  17
ENDBRANCH  12  13
ENDBRANCH   1  12
BRANCH   1  23
ATOM     23  C   UNL     1       0.969  -2.161   0.948  0.00  0.00    +0.036 C 
BRANCH  23  24
ATOM     24  C   UNL     1      -0.449  -1.730   0.648  0.00  0.00    -0.022 C 
ATOM     25  C   UNL     1      -1.058  -2.120  -0.544  0.00  0.00    -0.004 C 
ATOM     26  C   UNL     1      -1.147  -0.942   1.564  0.00  0.00    -0.004 C 
ATOM     27  C   UNL     1      -2.366  -1.722  -0.821  0.00  0.00    -0.000 C 
ATOM     28  C   UNL     1      -2.455  -0.544   1.286  0.00  0.00    -0.000 C 
ATOM     29  C   UNL     1      -3.064  -0.934   0.094  0.00  0.00    -0.000 C 
BRANCH  29  30
ATOM     30  C   UNL     1      -4.421  -0.521  -0.193  0.00  0.00    -0.000 C 
ATOM     31  C   UNL     1      -5.492  -1.319   0.209  0.00  0.00    -0.000 C 
ATOM     32  C   UNL     1      -4.658   0.674  -0.871  0.00  0.00    -0.000 C 
ATOM     33  C   UNL     1      -6.800  -0.921  -0.068  0.00  0.00    +0.000 C 
ATOM     34  C   UNL     1      -5.966   1.073  -1.147  0.00  0.00    +0.000 C 
ATOM     35  C   UNL     1      -7.037   0.275  -0.746  0.00  0.00    +0.000 C 
ENDBRANCH  29  30
ENDBRANCH  23  24
ENDBRANCH   1  23
TORSDOF 12
