REMARK  Name = 444941
REMARK  8 active torsions:
REMARK  status: ('A' for Active; 'I' for Inactive)
REMARK    1  A    between atoms: C_2  and  N_6
REMARK    2  A    between atoms: C_3  and  O_17
REMARK    3  A    between atoms: C_4  and  O_19
REMARK    4  A    between atoms: C_5  and  C_21
REMARK    5  A    between atoms: C_21  and  O_22
REMARK    6  A    between atoms: O_22  and  P_23
REMARK    7  A    between atoms: P_23  and  O_25
REMARK    8  A    between atoms: P_23  and  O_27
REMARK                            x       y       z     vdW  Elec       q    Type
REMARK                         _______ _______ _______ _____ _____    ______ ____
ROOT
ATOM      1  O   UNL     1       1.264   0.069   0.152  0.00  0.00    -0.333 OA
ATOM      2  C   UNL     1       0.029  -0.578  -0.227  0.00  0.00    +0.224 C 
ATOM      3  C   UNL     1       0.251  -2.079  -0.054  0.00  0.00    +0.187 C 
ATOM      4  C   UNL     1       1.713  -2.177  -0.441  0.00  0.00    +0.171 C 
ATOM      5  C   UNL     1       2.292  -0.937   0.230  0.00  0.00    +0.176 C 
ENDROOT
BRANCH   2   6
ATOM      6  N   UNL     1      -1.093  -0.015   0.515  0.00  0.00    -0.262 N 
ATOM      7  N   UNL     1      -2.219   0.891   2.213  0.00  0.00    -0.251 NA
ATOM      8  C   UNL     1      -2.379   0.162   0.060  0.00  0.00    +0.064 C 
ATOM      9  C   UNL     1      -1.053   0.439   1.809  0.00  0.00    +0.221 C 
ATOM     10  C   UNL     1      -3.059   0.727   1.136  0.00  0.00    +0.073 C 
ATOM     11  C   UNL     1      -2.983  -0.118  -1.166  0.00  0.00    +0.011 C 
ATOM     12  C   UNL     1      -4.340   0.197  -1.286  0.00  0.00    -0.028 C 
ATOM     13  C   UNL     1      -4.422   1.037   0.998  0.00  0.00    +0.068 C 
ATOM     14  C   UNL     1      -5.049   0.765  -0.224  0.00  0.00    -0.042 C 
ATOM     15  C   UNL     1      -5.021  -0.088  -2.586  0.00  0.00    +0.030 C 
ATOM     16  C   UNL     1      -6.500   1.097  -0.369  0.00  0.00    +0.026 C 
ENDBRANCH   2   6
BRANCH   3  17
ATOM     17  O   UNL     1       0.081  -2.460   1.308  0.00  0.00    -0.378 OA
ATOM     18  H   UNL     1      -0.856  -2.395   1.548  0.00  0.00    +0.211 HD
ENDBRANCH   3  17
BRANCH   4  19
ATOM     19  O   UNL     1       2.334  -3.361   0.011  0.00  0.00    -0.379 OA
ATOM     20  H   UNL     1       1.939  -4.125  -0.438  0.00  0.00    +0.211 HD
ENDBRANCH   4  19
BRANCH   5  21
ATOM     21  C   UNL     1       3.557  -0.428  -0.439  0.00  0.00    +0.186 C 
BRANCH  21  22
ATOM     22  O   UNL     1       4.005   0.727   0.250  0.00  0.00    -0.271 OA
BRANCH  22  23
ATOM     23  P   UNL     1       5.348   1.464  -0.273  0.00  0.00    +0.473 P 
ATOM     24  O   UNL     1       5.753   2.678   0.512  0.00  0.00    -0.227 OA
BRANCH  23  25
ATOM     25  O   UNL     1       5.058   1.721  -1.843  0.00  0.00    -0.303 OA
ATOM     26  H   UNL     1       4.805   0.886  -2.266  0.00  0.00    +0.222 HD
ENDBRANCH  23  25
BRANCH  23  27
ATOM     27  O   UNL     1       6.434   0.266  -0.287  0.00  0.00    -0.303 OA
ATOM     28  H   UNL     1       6.093  -0.473  -0.814  0.00  0.00    +0.222 HD
ENDBRANCH  23  27
ENDBRANCH  22  23
ENDBRANCH  21  22
ENDBRANCH   5  21
TORSDOF 8
