REMARK  Name = 5288814
REMARK  5 active torsions:
REMARK  status: ('A' for Active; 'I' for Inactive)
REMARK    1  A    between atoms: N_2  and  S_16
REMARK    2  A    between atoms: C_4  and  C_12
REMARK    3  A    between atoms: N_11  and  O_14
REMARK    4  A    between atoms: S_16  and  C_19
REMARK    5  A    between atoms: C_24  and  O_25
REMARK                            x       y       z     vdW  Elec       q    Type
REMARK                         _______ _______ _______ _____ _____    ______ ____
ROOT
ATOM      1  S   UNL     1       1.393  -2.768   0.962  0.00  0.00    -0.140 S 
ATOM      2  N   UNL     1       0.802   0.045  -0.111  0.00  0.00    -0.147 NA
ATOM      3  C   UNL     1       2.731  -1.559   0.510  0.00  0.00    +0.063 C 
ATOM      4  C   UNL     1       2.190  -0.104   0.406  0.00  0.00    +0.166 C 
ATOM      5  C   UNL     1       0.458  -0.596  -1.400  0.00  0.00    +0.097 C 
ATOM      6  C   UNL     1      -0.295  -1.893  -1.135  0.00  0.00    +0.031 C 
ATOM      7  C   UNL     1       0.563  -3.051  -0.635  0.00  0.00    +0.059 C 
ATOM      8  C   UNL     1       3.532  -2.051  -0.711  0.00  0.00    +0.013 C 
ATOM      9  C   UNL     1       3.710  -1.615   1.713  0.00  0.00    +0.013 C 
ENDROOT
BRANCH   4  12
ATOM     10  O   UNL     1       3.306   0.623  -1.568  0.00  0.00    -0.271 OA
ATOM     11  N   UNL     1       3.587   1.838   0.378  0.00  0.00    -0.196 N 
ATOM     12  C   UNL     1       3.084   0.809  -0.374  0.00  0.00    +0.261 C 
ATOM     13  H   UNL     1       3.376   1.940   1.334  0.00  0.00    +0.182 HD
BRANCH  11  14
ATOM     14  O   UNL     1       4.423   2.736  -0.300  0.00  0.00    -0.295 OA
ATOM     15  H   UNL     1       4.726   3.423   0.315  0.00  0.00    +0.241 HD
ENDBRANCH  11  14
ENDBRANCH   4  12
BRANCH   2  16
ATOM     16  S   UNL     1      -0.028   1.490   0.280  0.00  0.00    +0.064 S 
ATOM     17  O   UNL     1       0.100   2.428  -0.817  0.00  0.00    -0.153 OA
ATOM     18  O   UNL     1       0.309   1.883   1.634  0.00  0.00    -0.153 OA
BRANCH  16  19
ATOM     19  C   UNL     1      -1.695   0.902   0.289  0.00  0.00    +0.122 C 
ATOM     20  C   UNL     1      -2.432   0.938  -0.882  0.00  0.00    +0.023 C 
ATOM     21  C   UNL     1      -2.235   0.416   1.468  0.00  0.00    +0.023 C 
ATOM     22  C   UNL     1      -3.747   0.475  -0.875  0.00  0.00    +0.038 C 
ATOM     23  C   UNL     1      -3.551  -0.047   1.476  0.00  0.00    +0.038 C 
ATOM     24  C   UNL     1      -4.307  -0.018   0.304  0.00  0.00    +0.139 C 
BRANCH  24  25
ATOM     25  O   UNL     1      -5.591  -0.470   0.311  0.00  0.00    -0.471 OA
ATOM     26  C   UNL     1      -6.307  -0.411  -0.921  0.00  0.00    +0.252 C 
ENDBRANCH  24  25
ENDBRANCH  16  19
ENDBRANCH   2  16
TORSDOF 5
