REMARK  Name = 445393
REMARK  4 active torsions:
REMARK  status: ('A' for Active; 'I' for Inactive)
REMARK    1  A    between atoms: C_10  and  C_17
REMARK    2  A    between atoms: C_17  and  O_18
REMARK    3  A    between atoms: O_18  and  S_19
REMARK    4  A    between atoms: S_19  and  N_22
REMARK                            x       y       z     vdW  Elec       q    Type
REMARK                         _______ _______ _______ _____ _____    ______ ____
ROOT
ATOM      1  S   UNL     1       3.009  -1.908  -0.318  0.00  0.00    +0.212 S 
ATOM      2  O   UNL     1       0.983   2.573  -0.336  0.00  0.00    -0.329 OA
ATOM      3  O   UNL     1      -1.272   1.990  -0.065  0.00  0.00    -0.310 OA
ATOM      4  O   UNL     1      -0.181   0.560   1.430  0.00  0.00    -0.327 OA
ATOM      5  O   UNL     1       2.073  -0.835  -1.123  0.00  0.00    -0.199 OA
ATOM      6  O   UNL     1       3.073  -1.089   1.099  0.00  0.00    -0.199 OA
ATOM      7  O   UNL     1       4.331  -1.914  -0.912  0.00  0.00    -0.118 OA
ATOM      8  O   UNL     1       2.256  -3.130  -0.121  0.00  0.00    -0.118 OA
ATOM      9  C   UNL     1       0.795   1.205  -0.730  0.00  0.00    +0.203 C 
ATOM     10  C   UNL     1      -0.455   0.809   0.048  0.00  0.00    +0.247 C 
ATOM     11  C   UNL     1       2.047   0.413  -0.411  0.00  0.00    +0.211 C 
ATOM     12  C   UNL     1       2.162   0.022   1.071  0.00  0.00    +0.209 C 
ATOM     13  C   UNL     1      -0.345   3.083  -0.152  0.00  0.00    +0.190 C 
ATOM     14  C   UNL     1       0.830  -0.409   1.667  0.00  0.00    +0.179 C 
ATOM     15  C   UNL     1      -0.726   3.946  -1.350  0.00  0.00    +0.061 C 
ATOM     16  C   UNL     1      -0.385   3.890   1.139  0.00  0.00    +0.061 C 
ENDROOT
BRANCH  10  17
ATOM     17  C   UNL     1      -1.226  -0.350  -0.573  0.00  0.00    +0.232 C 
BRANCH  17  18
ATOM     18  O   UNL     1      -2.352  -0.631   0.240  0.00  0.00    -0.224 OA
BRANCH  18  19
ATOM     19  S   UNL     1      -3.379  -1.837  -0.175  0.00  0.00    +0.046 S 
ATOM     20  O   UNL     1      -4.025  -1.481  -1.425  0.00  0.00    -0.056 OA
ATOM     21  O   UNL     1      -2.648  -3.087  -0.066  0.00  0.00    -0.056 OA
BRANCH  19  22
ATOM     22  N   UNL     1      -4.564  -1.819   1.063  0.00  0.00    -0.204 NA
ATOM     23  H   UNL     1      -5.096  -0.950   1.012  0.00  0.00    +0.144 HD
ATOM     24  H   UNL     1      -4.107  -1.885   1.973  0.00  0.00    +0.144 HD
ENDBRANCH  19  22
ENDBRANCH  18  19
ENDBRANCH  17  18
ENDBRANCH  10  17
TORSDOF 4
