REMARK  Name = 5326637
REMARK  3 active torsions:
REMARK  status: ('A' for Active; 'I' for Inactive)
REMARK    1  A    between atoms: C_8  and  N_18
REMARK    2  A    between atoms: C_9  and  O_19
REMARK    3  A    between atoms: C_10  and  O_21
REMARK                            x       y       z     vdW  Elec       q    Type
REMARK                         _______ _______ _______ _____ _____    ______ ____
ROOT
ATOM      1  O   UNL     1       0.187  -1.317  -0.001  0.00  0.00    -0.451 OA
ATOM      2  O   UNL     1      -1.423   2.445  -0.002  0.00  0.00    -0.286 OA
ATOM      3  C   UNL     1       0.513   1.103   0.000  0.00  0.00    +0.109 A 
ATOM      4  C   UNL     1       0.993  -0.206   0.000  0.00  0.00    +0.174 A 
ATOM      5  C   UNL     1      -1.789   0.119   0.000  0.00  0.00    +0.107 A 
ATOM      6  C   UNL     1      -1.174  -1.133   0.000  0.00  0.00    +0.151 A 
ATOM      7  C   UNL     1      -0.942   1.322   0.000  0.00  0.00    +0.207 A 
ATOM      8  C   UNL     1       2.371  -0.436  -0.001  0.00  0.00    +0.177 C 
ATOM      9  C   UNL     1       1.397   2.185   0.000  0.00  0.00    +0.140 C 
ATOM     10  C   UNL     1      -3.182   0.226   0.001  0.00  0.00    +0.140 C 
ATOM     11  C   UNL     1      -1.959  -2.288  -0.001  0.00  0.00    +0.038 C 
ATOM     12  C   UNL     1       3.258   0.641  -0.001  0.00  0.00    +0.030 C 
ATOM     13  C   UNL     1       2.772   1.948  -0.001  0.00  0.00    +0.039 C 
ATOM     14  C   UNL     1      -3.961  -0.931   0.000  0.00  0.00    +0.037 C 
ATOM     15  C   UNL     1      -3.351  -2.186   0.000  0.00  0.00    +0.006 C 
ENDROOT
BRANCH   8  18
ATOM     16  O   UNL     1       4.141  -1.913   0.001  0.00  0.00    -0.126 OA
ATOM     17  O   UNL     1       2.102  -2.726   0.001  0.00  0.00    -0.126 OA
ATOM     18  N   UNL     1       2.898  -1.758   0.000  0.00  0.00    +0.061 N 
ENDBRANCH   8  18
BRANCH   9  19
ATOM     19  O   UNL     1       0.978   3.481   0.002  0.00  0.00    -0.505 OA
ATOM     20  H   UNL     1       0.062   3.677   0.003  0.00  0.00    +0.292 HD
ENDBRANCH   9  19
BRANCH  10  21
ATOM     21  O   UNL     1      -3.831   1.424   0.001  0.00  0.00    -0.505 OA
ATOM     22  H   UNL     1      -3.340   2.222   0.001  0.00  0.00    +0.292 HD
ENDBRANCH  10  21
TORSDOF 3
