REMARK  Name = 9084
REMARK  2 active torsions:
REMARK  status: ('A' for Active; 'I' for Inactive)
REMARK    1  A    between atoms: C_1  and  C_4
REMARK    2  A    between atoms: C_1  and  C_7
REMARK                            x       y       z     vdW  Elec       q    Type
REMARK                         _______ _______ _______ _____ _____    ______ ____
ROOT
ATOM      1  C   UNL     1       0.000   0.490   0.815  0.00  0.00    +0.228 C 
ENDROOT
BRANCH   1   4
ATOM      2  O   UNL     1      -1.331  -1.224  -0.104  0.00  0.00    -0.245 OA
ATOM      3  O   UNL     1      -1.998   0.951  -0.346  0.00  0.00    -0.245 OA
ATOM      4  C   UNL     1      -1.230   0.027   0.042  0.00  0.00    +0.376 C 
ENDBRANCH   1   4
BRANCH   1   7
ATOM      5  O   UNL     1       1.331  -1.224  -0.104  0.00  0.00    -0.245 OA
ATOM      6  O   UNL     1       1.999   0.951  -0.345  0.00  0.00    -0.245 OA
ATOM      7  C   UNL     1       1.230   0.027   0.042  0.00  0.00    +0.376 C 
ENDBRANCH   1   7
TORSDOF 2
