REMARK  Name = 6407
REMARK  1 active torsions:
REMARK  status: ('A' for Active; 'I' for Inactive)
REMARK    1  A    between atoms: C_4  and  C_6
REMARK                            x       y       z     vdW  Elec       q    Type
REMARK                         _______ _______ _______ _____ _____    ______ ____
ROOT
ATOM      1 CL   UNL     1      -0.131  -0.006   1.778  0.00  0.00    -0.075 Cl
ATOM      2 CL   UNL     1      -1.246   1.460  -0.477  0.00  0.00    -0.075 Cl
ATOM      3 CL   UNL     1      -1.246  -1.457  -0.487  0.00  0.00    -0.075 Cl
ATOM      4  C   UNL     1      -0.376   0.000   0.026  0.00  0.00    +0.256 C 
ENDROOT
BRANCH   4   6
ATOM      5  O   UNL     1       2.049   0.000  -0.147  0.00  0.00    -0.284 OA
ATOM      6  C   UNL     1       0.949   0.002  -0.692  0.00  0.00    +0.253 C 
ENDBRANCH   4   6
TORSDOF 1
