REMARK  Name = 70119
REMARK  2 active torsions:
REMARK  status: ('A' for Active; 'I' for Inactive)
REMARK    1  A    between atoms: C_2  and  C_8
REMARK    2  A    between atoms: C_8  and  O_9
REMARK                            x       y       z     vdW  Elec       q    Type
REMARK                         _______ _______ _______ _____ _____    ______ ____
ROOT
ATOM      1 BR   UNL     1      -3.606   0.001   0.279  0.00  0.00    -0.049 Br
ATOM      2  C   UNL     1       1.041  -0.001  -0.274  0.00  0.00    +0.007 C 
ATOM      3  C   UNL     1       0.348  -1.209  -0.191  0.00  0.00    -0.001 C 
ATOM      4  C   UNL     1       0.349   1.207  -0.192  0.00  0.00    -0.001 C 
ATOM      5  C   UNL     1      -1.037  -1.208  -0.026  0.00  0.00    +0.006 C 
ATOM      6  C   UNL     1      -1.036   1.208  -0.027  0.00  0.00    +0.006 C 
ATOM      7  C   UNL     1      -1.729   0.000   0.056  0.00  0.00    +0.035 C 
ENDROOT
BRANCH   2   8
ATOM      8  C   UNL     1       2.522   0.000  -0.450  0.00  0.00    +0.164 C 
BRANCH   8   9
ATOM      9  O   UNL     1       3.150   0.001   0.826  0.00  0.00    -0.377 OA
ATOM     10  H   UNL     1       4.113   0.001   0.712  0.00  0.00    +0.211 HD
ENDBRANCH   8   9
ENDBRANCH   2   8
TORSDOF 2
