REMARK  Name = 448524
REMARK  5 active torsions:
REMARK  status: ('A' for Active; 'I' for Inactive)
REMARK    1  A    between atoms: C_1  and  C_2
REMARK    2  A    between atoms: C_1  and  C_6
REMARK    3  A    between atoms: C_2  and  C_3
REMARK    4  A    between atoms: C_3  and  O_4
REMARK    5  A    between atoms: C_6  and  N_7
REMARK                            x       y       z     vdW  Elec       q    Type
REMARK                         _______ _______ _______ _____ _____    ______ ____
ROOT
ATOM      1  C   UNL     1       0.649  -0.391  -0.030  0.00  0.00    -0.021 C 
ENDROOT
BRANCH   1   2
ATOM      2  C   UNL     1      -0.663   0.388  -0.009  0.00  0.00    +0.030 C 
BRANCH   2   3
ATOM      3  C   UNL     1      -1.869  -0.541   0.008  0.00  0.00    +0.137 C 
BRANCH   3   4
ATOM      4  O   UNL     1      -3.054   0.243   0.012  0.00  0.00    -0.382 OA
ATOM      5  H   UNL     1      -3.828  -0.341   0.022  0.00  0.00    +0.210 HD
ENDBRANCH   3   4
ENDBRANCH   2   3
ENDBRANCH   1   2
BRANCH   1   6
ATOM      6  C   UNL     1       1.844   0.550  -0.003  0.00  0.00    -0.086 C 
BRANCH   6   7
ATOM      7  N   UNL     1       3.092  -0.250   0.022  0.00  0.00    +0.380 N 
ATOM      8  H   UNL     1       3.897   0.377   0.040  0.00  0.00    -0.089 HD
ATOM      9  H   UNL     1       3.137  -0.836  -0.812  0.00  0.00    -0.089 HD
ATOM     10  H   UNL     1       3.102  -0.840   0.854  0.00  0.00    -0.089 HD
ENDBRANCH   6   7
ENDBRANCH   1   6
TORSDOF 5
