REMARK  Name = 1521
REMARK  5 active torsions:
REMARK  status: ('A' for Active; 'I' for Inactive)
REMARK    1  A    between atoms: C_7  and  C_19
REMARK    2  A    between atoms: C_9  and  N_11
REMARK    3  A    between atoms: C_12  and  C_15
REMARK    4  A    between atoms: C_15  and  O_16
REMARK    5  A    between atoms: C_19  and  O_20
REMARK                            x       y       z     vdW  Elec       q    Type
REMARK                         _______ _______ _______ _____ _____    ______ ____
ROOT
ATOM      1  S   UNL     1       4.503   1.631   0.389  0.00  0.00    -0.135 S 
ATOM      2  S   UNL     1       0.144   1.673  -0.022  0.00  0.00    -0.076 S 
ATOM      3  C   UNL     1       1.961  -0.153  -0.003  0.00  0.00    -0.010 A 
ATOM      4  C   UNL     1       3.297  -0.834   0.018  0.00  0.00    +0.038 C 
ATOM      5  C   UNL     1       1.795   1.222  -0.017  0.00  0.00    +0.016 A 
ATOM      6  C   UNL     1       4.433   0.044  -0.506  0.00  0.00    +0.063 C 
ATOM      7  C   UNL     1       0.700  -0.829   0.017  0.00  0.00    +0.091 A 
ATOM      8  C   UNL     1       2.857   2.274  -0.063  0.00  0.00    +0.090 C 
ATOM      9  C   UNL     1      -0.365   0.043   0.009  0.00  0.00    +0.087 A 
ENDROOT
BRANCH   9  11
ATOM     10  O   UNL     1      -2.624   2.008  -0.012  0.00  0.00    -0.263 OA
ATOM     11  N   UNL     1      -1.716  -0.179   0.021  0.00  0.00    -0.270 N 
ATOM     12  C   UNL     1      -2.720   0.792   0.011  0.00  0.00    +0.326 C 
ATOM     13  H   UNL     1      -2.009  -1.118   0.040  0.00  0.00    +0.156 HD
BRANCH  12  15
ATOM     14  O   UNL     1      -4.316  -1.010   0.052  0.00  0.00    -0.240 OA
ATOM     15  C   UNL     1      -4.111   0.187   0.030  0.00  0.00    +0.393 C 
BRANCH  15  16
ATOM     16  O   UNL     1      -5.038   1.157   0.018  0.00  0.00    -0.474 OA
ATOM     17  H   UNL     1      -4.776   2.056   0.001  0.00  0.00    +0.296 HD
ENDBRANCH  15  16
ENDBRANCH  12  15
ENDBRANCH   9  11
BRANCH   7  19
ATOM     18  O   UNL     1       1.305  -3.060   0.570  0.00  0.00    -0.245 OA
ATOM     19  C   UNL     1       0.519  -2.260   0.048  0.00  0.00    +0.339 C 
BRANCH  19  20
ATOM     20  O   UNL     1      -0.624  -2.706  -0.560  0.00  0.00    -0.477 OA
ATOM     21  H   UNL     1      -1.215  -2.094  -0.953  0.00  0.00    +0.295 HD
ENDBRANCH  19  20
ENDBRANCH   7  19
TORSDOF 5
