REMARK  Name = 446816
REMARK  3 active torsions:
REMARK  status: ('A' for Active; 'I' for Inactive)
REMARK    1  A    between atoms: N_2  and  C_18
REMARK    2  A    between atoms: N_3  and  C_8
REMARK    3  A    between atoms: C_16  and  C_20
REMARK                            x       y       z     vdW  Elec       q    Type
REMARK                         _______ _______ _______ _____ _____    ______ ____
ROOT
ATOM      1  O   UNL     1      -0.639  -1.039   0.000  0.00  0.00    -0.252 OA
ATOM      2  N   UNL     1       0.382   1.077   0.000  0.00  0.00    -0.255 N 
ATOM      3  N   UNL     1      -1.927   0.910   0.000  0.00  0.00    -0.268 N 
ATOM      4  C   UNL     1      -0.723   0.184   0.000  0.00  0.00    +0.309 C 
ATOM      5  H   UNL     1       0.167   2.037   0.000  0.00  0.00    +0.158 HD
ATOM      6  H   UNL     1      -1.839   1.891   0.000  0.00  0.00    +0.156 HD
ENDROOT
BRANCH   3   8
ATOM      7 CL   UNL     1      -7.445  -1.193   0.000  0.00  0.00    -0.082 Cl
ATOM      8  C   UNL     1      -3.249   0.406   0.000  0.00  0.00    +0.052 C 
ATOM      9  C   UNL     1      -4.312   1.294   0.000  0.00  0.00    +0.016 C 
ATOM     10  C   UNL     1      -3.452  -0.964   0.000  0.00  0.00    +0.016 C 
ATOM     11  C   UNL     1      -5.616   0.797   0.000  0.00  0.00    +0.013 C 
ATOM     12  C   UNL     1      -4.755  -1.461   0.000  0.00  0.00    +0.013 C 
ATOM     13  C   UNL     1      -5.837  -0.580   0.000  0.00  0.00    +0.058 C 
ENDBRANCH   3   8
BRANCH   2  18
ATOM     14  N   UNL     1       2.712   1.681   0.000  0.00  0.00    -0.197 N 
ATOM     15  N   UNL     1       3.946   1.151  -0.001  0.00  0.00    -0.181 NA
ATOM     16  C   UNL     1       3.660  -0.122  -0.001  0.00  0.00    +0.078 C 
ATOM     17  C   UNL     1       2.337  -0.471  -0.001  0.00  0.00    +0.048 C 
ATOM     18  C   UNL     1       1.712   0.753   0.000  0.00  0.00    +0.124 C 
ATOM     19  C   UNL     1       2.564   3.119   0.001  0.00  0.00    +0.141 C 
BRANCH  16  20
ATOM     20  C   UNL     1       4.840  -1.109   0.000  0.00  0.00    +0.037 C 
ATOM     21  C   UNL     1       4.785  -2.010  -1.256  0.00  0.00    +0.006 C 
ATOM     22  C   UNL     1       4.790  -2.003   1.261  0.00  0.00    +0.006 C 
ATOM     23  C   UNL     1       6.225  -0.420  -0.004  0.00  0.00    +0.006 C 
ENDBRANCH  16  20
ENDBRANCH   2  18
TORSDOF 3
