REMARK  Name = 5287754
REMARK  12 active torsions:
REMARK  status: ('A' for Active; 'I' for Inactive)
REMARK    1  A    between atoms: C_2  and  O_10
REMARK    2  A    between atoms: C_3  and  C_23
REMARK    3  A    between atoms: C_7  and  O_8
REMARK    4  A    between atoms: O_10  and  C_11
REMARK    5  A    between atoms: C_11  and  C_12
REMARK    6  A    between atoms: C_12  and  C_13
REMARK    7  A    between atoms: C_13  and  C_14
REMARK    8  A    between atoms: C_14  and  C_17
REMARK    9  A    between atoms: C_14  and  C_18
REMARK   10  A    between atoms: C_18  and  C_19
REMARK   11  A    between atoms: C_19  and  C_22
REMARK   12  A    between atoms: C_23  and  C_28
REMARK                            x       y       z     vdW  Elec       q    Type
REMARK                         _______ _______ _______ _____ _____    ______ ____
ROOT
ATOM      1 BR   UNL     1      -0.641   4.258  -0.479  0.00  0.00    -0.043 Br
ATOM      2  C   UNL     1      -1.293   1.863   0.955  0.00  0.00    +0.147 C 
ATOM      3  C   UNL     1      -3.470   0.832   1.028  0.00  0.00    -0.012 C 
ATOM      4  C   UNL     1      -2.127   0.844   1.405  0.00  0.00    +0.034 C 
ATOM      5  C   UNL     1      -1.787   2.869   0.132  0.00  0.00    +0.102 C 
ATOM      6  C   UNL     1      -3.971   1.839   0.203  0.00  0.00    +0.034 C 
ATOM      7  C   UNL     1      -3.130   2.857  -0.246  0.00  0.00    +0.147 C 
ENDROOT
BRANCH   7   8
ATOM      8  O   UNL     1      -3.655   3.825  -1.050  0.00  0.00    -0.471 OA
ATOM      9  C   UNL     1      -3.610   3.591  -2.456  0.00  0.00    +0.252 C 
ENDBRANCH   7   8
BRANCH   2  10
ATOM     10  O   UNL     1       0.021   1.843   1.345  0.00  0.00    -0.475 OA
BRANCH  10  11
ATOM     11  C   UNL     1       0.784   0.704   0.973  0.00  0.00    +0.205 C 
BRANCH  11  12
ATOM     12  C   UNL     1       2.253   1.086   0.830  0.00  0.00    +0.048 C 
BRANCH  12  13
ATOM     13  C   UNL     1       3.126  -0.114   0.439  0.00  0.00    +0.015 C 
BRANCH  13  14
ATOM     14  C   UNL     1       4.621   0.240   0.371  0.00  0.00    +0.104 C 
BRANCH  14  17
ATOM     15  O   UNL     1       4.529   0.919  -1.891  0.00  0.00    -0.246 OA
ATOM     16  O   UNL     1       5.346   2.395  -0.350  0.00  0.00    -0.246 OA
ATOM     17  C   UNL     1       4.858   1.294  -0.729  0.00  0.00    +0.364 C 
ENDBRANCH  14  17
BRANCH  14  18
ATOM     18  C   UNL     1       5.455  -1.017   0.072  0.00  0.00    +0.023 C 
BRANCH  18  19
ATOM     19  C   UNL     1       6.960  -0.746   0.085  0.00  0.00    +0.115 C 
BRANCH  19  22
ATOM     20  O   UNL     1       9.084  -1.726  -0.154  0.00  0.00    -0.246 OA
ATOM     21  O   UNL     1       7.254  -3.087  -0.247  0.00  0.00    -0.246 OA
ATOM     22  C   UNL     1       7.845  -1.980  -0.125  0.00  0.00    +0.365 C 
ENDBRANCH  19  22
ENDBRANCH  18  19
ENDBRANCH  14  18
ENDBRANCH  13  14
ENDBRANCH  12  13
ENDBRANCH  11  12
ENDBRANCH  10  11
ENDBRANCH   2  10
BRANCH   3  23
ATOM     23  C   UNL     1      -4.369  -0.257   1.507  0.00  0.00    +0.058 C 
BRANCH  23  28
ATOM     24  N   UNL     1      -5.397  -2.564  -1.220  0.00  0.00    -0.275 N 
ATOM     25  N   UNL     1      -3.582  -3.603  -0.080  0.00  0.00    -0.359 NA
ATOM     26  N   UNL     1      -2.587  -2.483   1.758  0.00  0.00    -0.333 N 
ATOM     27  N   UNL     1      -4.648  -4.642  -1.936  0.00  0.00    -0.321 N 
ATOM     28  C   UNL     1      -4.420  -1.461   0.588  0.00  0.00    +0.040 C 
ATOM     29  C   UNL     1      -3.557  -2.519   0.725  0.00  0.00    +0.177 C 
ATOM     30  C   UNL     1      -5.359  -1.495  -0.412  0.00  0.00    +0.065 C 
ATOM     31  C   UNL     1      -4.529  -3.566  -1.038  0.00  0.00    +0.237 C 
ATOM     32  H   UNL     1      -6.062  -2.612  -1.944  0.00  0.00    +0.156 HD
ATOM     33  H   UNL     1      -1.960  -3.233   1.870  0.00  0.00    +0.145 HD
ATOM     34  H   UNL     1      -2.541  -1.708   2.363  0.00  0.00    +0.145 HD
ATOM     35  H   UNL     1      -5.338  -4.623  -2.638  0.00  0.00    +0.146 HD
ATOM     36  H   UNL     1      -4.043  -5.415  -1.861  0.00  0.00    +0.146 HD
ENDBRANCH  23  28
ENDBRANCH   3  23
TORSDOF 12
