REMARK  Name = 449088
REMARK  2 active torsions:
REMARK  status: ('A' for Active; 'I' for Inactive)
REMARK    1  A    between atoms: C_5  and  C_17
REMARK    2  A    between atoms: C_8  and  C_11
REMARK                            x       y       z     vdW  Elec       q    Type
REMARK                         _______ _______ _______ _____ _____    ______ ____
ROOT
ATOM      1  O   UNL     1      -0.671  -1.556   0.483  0.00  0.00    -0.270 OA
ATOM      2  N   UNL     1       2.989   1.579  -0.119  0.00  0.00    -0.239 N 
ATOM      3  N   UNL     1       1.703   1.928  -0.296  0.00  0.00    -0.166 NA
ATOM      4  N   UNL     1      -0.333   0.697  -0.098  0.00  0.00    -0.265 N 
ATOM      5  C   UNL     1       3.161   0.275   0.241  0.00  0.00    +0.045 C 
ATOM      6  C   UNL     1       1.901  -0.268   0.304  0.00  0.00    +0.048 C 
ATOM      7  C   UNL     1       1.060   0.797  -0.035  0.00  0.00    +0.153 C 
ATOM      8  C   UNL     1      -1.110  -0.441   0.157  0.00  0.00    +0.251 C 
ATOM      9  H   UNL     1       3.737   2.207  -0.239  0.00  0.00    +0.174 HD
ATOM     10  H   UNL     1      -0.821   1.514  -0.348  0.00  0.00    +0.157 HD
ENDROOT
BRANCH   8  11
ATOM     11  C   UNL     1      -2.548  -0.258   0.047  0.00  0.00    +0.054 C 
ATOM     12  C   UNL     1      -3.366  -1.339  -0.282  0.00  0.00    +0.005 C 
ATOM     13  C   UNL     1      -3.110   0.999   0.270  0.00  0.00    +0.005 C 
ATOM     14  C   UNL     1      -4.746  -1.163  -0.388  0.00  0.00    +0.000 C 
ATOM     15  C   UNL     1      -4.489   1.175   0.164  0.00  0.00    +0.000 C 
ATOM     16  C   UNL     1      -5.308   0.095  -0.165  0.00  0.00    +0.000 C 
ENDBRANCH   8  11
BRANCH   5  17
ATOM     17  C   UNL     1       4.485  -0.428   0.513  0.00  0.00    +0.037 C 
ATOM     18  C   UNL     1       5.559  -0.408  -0.545  0.00  0.00    +0.006 C 
ATOM     19  C   UNL     1       4.823  -1.683  -0.252  0.00  0.00    +0.006 C 
ENDBRANCH   5  17
TORSDOF 2
