REMARK  Name = 445154
REMARK  5 active torsions:
REMARK  status: ('A' for Active; 'I' for Inactive)
REMARK    1  A    between atoms: C_1  and  C_11
REMARK    2  A    between atoms: C_4  and  O_7
REMARK    3  A    between atoms: C_5  and  O_9
REMARK    4  A    between atoms: C_12  and  C_13
REMARK    5  A    between atoms: C_18  and  O_19
REMARK                            x       y       z     vdW  Elec       q    Type
REMARK                         _______ _______ _______ _____ _____    ______ ____
ROOT
ATOM      1  C   UNL     1      -1.732  -0.254   0.044  0.00  0.00    +0.006 C 
ATOM      2  C   UNL     1      -2.224   1.028   0.226  0.00  0.00    +0.037 C 
ATOM      3  C   UNL     1      -2.581  -1.329  -0.165  0.00  0.00    +0.037 C 
ATOM      4  C   UNL     1      -3.959  -1.116  -0.192  0.00  0.00    +0.137 C 
ATOM      5  C   UNL     1      -3.602   1.241   0.199  0.00  0.00    +0.137 C 
ATOM      6  C   UNL     1      -4.470   0.169  -0.010  0.00  0.00    +0.073 C 
ENDROOT
BRANCH   4   7
ATOM      7  O   UNL     1      -4.806  -2.162  -0.397  0.00  0.00    -0.505 OA
ATOM      8  H   UNL     1      -4.463  -3.025  -0.519  0.00  0.00    +0.292 HD
ENDBRANCH   4   7
BRANCH   5   9
ATOM      9  O   UNL     1      -4.101   2.495   0.378  0.00  0.00    -0.505 OA
ATOM     10  H   UNL     1      -3.518   3.216   0.518  0.00  0.00    +0.292 HD
ENDBRANCH   5   9
BRANCH   1  11
ATOM     11  C   UNL     1      -0.276  -0.479   0.074  0.00  0.00    +0.000 C 
ATOM     12  C   UNL     1       0.665   0.475  -0.115  0.00  0.00    +0.000 C 
BRANCH  12  13
ATOM     13  C   UNL     1       2.102   0.257  -0.066  0.00  0.00    +0.000 C 
ATOM     14  C   UNL     1       2.616  -0.865   0.582  0.00  0.00    +0.003 C 
ATOM     15  C   UNL     1       2.967   1.172  -0.668  0.00  0.00    +0.003 C 
ATOM     16  C   UNL     1       3.994  -1.074   0.629  0.00  0.00    +0.037 C 
ATOM     17  C   UNL     1       4.345   0.963  -0.621  0.00  0.00    +0.037 C 
ATOM     18  C   UNL     1       4.859  -0.160   0.027  0.00  0.00    +0.134 C 
BRANCH  18  19
ATOM     19  O   UNL     1       6.204  -0.363   0.073  0.00  0.00    -0.506 OA
ATOM     20  H   UNL     1       6.549  -1.117   0.509  0.00  0.00    +0.292 HD
ENDBRANCH  18  19
ENDBRANCH  12  13
ENDBRANCH   1  11
TORSDOF 5
