REMARK  Name = 5289089
REMARK  3 active torsions:
REMARK  status: ('A' for Active; 'I' for Inactive)
REMARK    1  A    between atoms: C_2  and  C_3
REMARK    2  A    between atoms: C_2  and  C_7
REMARK    3  A    between atoms: C_7  and  O_8
REMARK                            x       y       z     vdW  Elec       q    Type
REMARK                         _______ _______ _______ _____ _____    ______ ____
ROOT
ATOM      1  O   UNL     1      -0.186  -1.394   0.329  0.00  0.00    -0.280 OA
ATOM      2  C   UNL     1       0.107  -0.214   0.218  0.00  0.00    +0.270 C 
ENDROOT
BRANCH   2   3
ATOM      3  C   UNL     1      -0.854   0.905   0.362  0.00  0.00    +0.044 C 
ATOM      4  C   UNL     1      -2.140   0.731   0.031  0.00  0.00    -0.022 C 
ATOM      5  C   UNL     1      -2.687  -0.557  -0.490  0.00  0.00    +0.031 C 
ENDBRANCH   2   3
BRANCH   2   7
ATOM      6  O   UNL     1       1.922   1.310  -0.204  0.00  0.00    -0.241 OA
ATOM      7  C   UNL     1       1.543   0.164  -0.076  0.00  0.00    +0.378 C 
BRANCH   7   8
ATOM      8  O   UNL     1       2.296  -0.944  -0.171  0.00  0.00    -0.475 OA
ATOM      9  H   UNL     1       1.905  -1.787  -0.055  0.00  0.00    +0.296 HD
ENDBRANCH   7   8
ENDBRANCH   2   7
TORSDOF 3
