REMARK  Name = 447546
REMARK  10 active torsions:
REMARK  status: ('A' for Active; 'I' for Inactive)
REMARK    1  A    between atoms: N_1  and  C_23
REMARK    2  A    between atoms: C_8  and  N_11
REMARK    3  A    between atoms: N_12  and  C_16
REMARK    4  A    between atoms: C_16  and  C_17
REMARK    5  A    between atoms: C_23  and  C_24
REMARK    6  A    between atoms: C_24  and  C_25
REMARK    7  A    between atoms: C_25  and  N_26
REMARK    8  A    between atoms: C_25  and  C_36
REMARK    9  A    between atoms: C_30  and  C_33
REMARK   10  A    between atoms: C_36  and  O_37
REMARK                            x       y       z     vdW  Elec       q    Type
REMARK                         _______ _______ _______ _____ _____    ______ ____
ROOT
ATOM      1  N   UNL     1       3.432  -1.539  -0.840  0.00  0.00    -0.286 N 
ATOM      2  C   UNL     1       2.425  -2.357  -0.379  0.00  0.00    +0.053 C 
ATOM      3  C   UNL     1       2.916  -3.665  -0.403  0.00  0.00    +0.015 C 
ATOM      4  C   UNL     1       4.539  -2.282  -1.152  0.00  0.00    +0.065 C 
ATOM      5  C   UNL     1       4.250  -3.601  -0.892  0.00  0.00    +0.017 C 
ATOM      6  C   UNL     1       1.131  -2.043   0.052  0.00  0.00    +0.030 C 
ATOM      7  C   UNL     1       2.075  -4.712   0.024  0.00  0.00    +0.003 C 
ATOM      8  C   UNL     1       0.316  -3.099   0.471  0.00  0.00    +0.053 C 
ATOM      9  C   UNL     1       0.779  -4.413   0.459  0.00  0.00    +0.015 C 
ENDROOT
BRANCH   8  11
ATOM     10  O   UNL     1      -1.157  -0.494   0.697  0.00  0.00    -0.252 OA
ATOM     11  N   UNL     1      -0.981  -2.829   0.911  0.00  0.00    -0.268 N 
ATOM     12  N   UNL     1      -2.936  -1.739   1.492  0.00  0.00    -0.285 N 
ATOM     13  C   UNL     1      -1.635  -1.584   1.000  0.00  0.00    +0.305 C 
ATOM     14  H   UNL     1      -1.508  -3.611   1.195  0.00  0.00    +0.156 HD
ATOM     15  H   UNL     1      -3.249  -2.645   1.713  0.00  0.00    +0.151 HD
BRANCH  12  16
ATOM     16  C   UNL     1      -3.841  -0.630   1.689  0.00  0.00    +0.118 C 
BRANCH  16  17
ATOM     17  C   UNL     1      -4.665  -0.353   0.465  0.00  0.00    -0.003 C 
ATOM     18  C   UNL     1      -4.201   0.537  -0.502  0.00  0.00    -0.003 C 
ATOM     19  C   UNL     1      -5.896  -0.988   0.295  0.00  0.00    -0.003 C 
ATOM     20  C   UNL     1      -4.967   0.794  -1.639  0.00  0.00    -0.000 C 
ATOM     21  C   UNL     1      -6.662  -0.731  -0.842  0.00  0.00    -0.000 C 
ATOM     22  C   UNL     1      -6.197   0.160  -1.809  0.00  0.00    -0.000 C 
ENDBRANCH  16  17
ENDBRANCH  12  16
ENDBRANCH   8  11
BRANCH   1  23
ATOM     23  C   UNL     1       3.349  -0.101  -0.981  0.00  0.00    +0.097 C 
BRANCH  23  24
ATOM     24  C   UNL     1       3.786   0.682   0.265  0.00  0.00    +0.040 C 
BRANCH  24  25
ATOM     25  C   UNL     1       3.725   2.220   0.128  0.00  0.00    +0.091 C 
BRANCH  25  26
ATOM     26  N   UNL     1       2.385   2.728  -0.213  0.00  0.00    -0.246 NA
ATOM     27  N   UNL     1       0.678   3.703  -1.244  0.00  0.00    -0.251 NA
ATOM     28  C   UNL     1       1.241   2.586   0.532  0.00  0.00    +0.125 C 
ATOM     29  C   UNL     1       2.011   3.405  -1.276  0.00  0.00    +0.201 C 
ATOM     30  C   UNL     1       0.168   3.183  -0.088  0.00  0.00    +0.124 C 
BRANCH  30  33
ATOM     31  O   UNL     1      -1.617   2.797   1.413  0.00  0.00    -0.269 OA
ATOM     32  N   UNL     1      -2.094   3.945  -0.497  0.00  0.00    -0.324 N 
ATOM     33  C   UNL     1      -1.190   3.271   0.333  0.00  0.00    +0.257 C 
ATOM     34  H   UNL     1      -3.039   4.023  -0.235  0.00  0.00    +0.145 HD
ATOM     35  H   UNL     1      -1.784   4.341  -1.344  0.00  0.00    +0.145 HD
ENDBRANCH  30  33
ENDBRANCH  25  26
BRANCH  25  36
ATOM     36  C   UNL     1       4.247   2.898   1.406  0.00  0.00    +0.153 C 
BRANCH  36  37
ATOM     37  O   UNL     1       4.584   4.252   1.126  0.00  0.00    -0.381 OA
ATOM     38  H   UNL     1       4.913   4.676   1.934  0.00  0.00    +0.210 HD
ENDBRANCH  36  37
ENDBRANCH  25  36
ENDBRANCH  24  25
ENDBRANCH  23  24
ENDBRANCH   1  23
TORSDOF 10
