REMARK  Name = 5287417
REMARK  5 active torsions:
REMARK  status: ('A' for Active; 'I' for Inactive)
REMARK    1  A    between atoms: C_8  and  O_17
REMARK    2  A    between atoms: C_13  and  C_24
REMARK    3  A    between atoms: C_15  and  O_19
REMARK    4  A    between atoms: C_16  and  O_21
REMARK    5  A    between atoms: C_24  and  O_25
REMARK                            x       y       z     vdW  Elec       q    Type
REMARK                         _______ _______ _______ _____ _____    ______ ____
ROOT
ATOM      1  O   UNL     1      -3.899  -0.127   0.649  0.00  0.00    -0.329 OA
ATOM      2  O   UNL     1      -0.393   2.014  -0.008  0.00  0.00    -0.458 OA
ATOM      3  O   UNL     1      -0.087  -2.039   0.320  0.00  0.00    -0.287 OA
ATOM      4  C   UNL     1      -3.987   1.022  -0.199  0.00  0.00    +0.126 C 
ATOM      5  C   UNL     1      -2.813   1.958   0.104  0.00  0.00    +0.094 C 
ATOM      6  C   UNL     1      -1.494  -0.130   0.214  0.00  0.00    +0.103 A 
ATOM      7  C   UNL     1      -1.511   1.210   0.110  0.00  0.00    +0.129 A 
ATOM      8  C   UNL     1      -2.752  -0.942   0.364  0.00  0.00    +0.266 C 
ATOM      9  C   UNL     1      -0.183  -0.824   0.215  0.00  0.00    +0.202 A 
ATOM     10  C   UNL     1       1.007   0.034   0.082  0.00  0.00    +0.083 A 
ATOM     11  C   UNL     1       0.839   1.413  -0.022  0.00  0.00    +0.151 A 
ATOM     12  C   UNL     1      -5.320   1.707   0.068  0.00  0.00    +0.033 C 
ATOM     13  C   UNL     1       2.288  -0.523   0.062  0.00  0.00    +0.118 C 
ATOM     14  C   UNL     1       1.952   2.245  -0.147  0.00  0.00    +0.077 C 
ATOM     15  C   UNL     1       3.400   0.311  -0.063  0.00  0.00    +0.174 C 
ATOM     16  C   UNL     1       3.232   1.692  -0.167  0.00  0.00    +0.171 C 
ENDROOT
BRANCH   8  17
ATOM     17  O   UNL     1      -2.944  -1.721  -0.815  0.00  0.00    -0.324 OA
ATOM     18  C   UNL     1      -4.121  -2.509  -0.726  0.00  0.00    +0.177 C 
ENDBRANCH   8  17
BRANCH  15  19
ATOM     19  O   UNL     1       4.662  -0.210  -0.085  0.00  0.00    -0.503 OA
ATOM     20  H   UNL     1       4.787  -1.136  -0.016  0.00  0.00    +0.292 HD
ENDBRANCH  15  19
BRANCH  16  21
ATOM     21  O   UNL     1       4.312   2.515  -0.290  0.00  0.00    -0.503 OA
ATOM     22  H   UNL     1       4.189   3.441  -0.360  0.00  0.00    +0.292 HD
ENDBRANCH  16  21
BRANCH  13  24
ATOM     23  O   UNL     1       2.711  -2.575   1.219  0.00  0.00    -0.245 OA
ATOM     24  C   UNL     1       2.539  -1.959   0.166  0.00  0.00    +0.341 C 
BRANCH  24  25
ATOM     25  O   UNL     1       2.562  -2.566  -1.050  0.00  0.00    -0.477 OA
ATOM     26  H   UNL     1       2.426  -2.061  -1.828  0.00  0.00    +0.295 HD
ENDBRANCH  24  25
ENDBRANCH  13  24
TORSDOF 5
