REMARK  Name = 3465283
REMARK  3 active torsions:
REMARK  status: ('A' for Active; 'I' for Inactive)
REMARK    1  A    between atoms: C_7  and  C_16
REMARK    2  A    between atoms: C_16  and  C_17
REMARK    3  A    between atoms: C_17  and  C_18
REMARK                            x       y       z     vdW  Elec       q    Type
REMARK                         _______ _______ _______ _____ _____    ______ ____
ROOT
ATOM      1  O   UNL     1       2.243   2.703   0.134  0.00  0.00    -0.264 OA
ATOM      2  O   UNL     1       2.171  -2.687   0.161  0.00  0.00    -0.264 OA
ATOM      3  N   UNL     1      -0.220   1.081  -0.452  0.00  0.00    -0.314 N 
ATOM      4  N   UNL     1      -0.233  -1.150  -0.436  0.00  0.00    -0.314 N 
ATOM      5  N   UNL     1       3.339   0.698   0.418  0.00  0.00    -0.262 N 
ATOM      6  N   UNL     1       3.321  -0.702   0.425  0.00  0.00    -0.262 N 
ATOM      7  C   UNL     1      -0.955  -0.064  -0.621  0.00  0.00    +0.144 C 
ATOM      8  C   UNL     1       1.052   0.694  -0.139  0.00  0.00    +0.122 A 
ATOM      9  C   UNL     1       1.015  -0.677  -0.137  0.00  0.00    +0.122 A 
ATOM     10  C   UNL     1       2.219   1.475   0.139  0.00  0.00    +0.286 A 
ATOM     11  C   UNL     1       2.187  -1.460   0.155  0.00  0.00    +0.286 A 
ATOM     12  H   UNL     1      -0.546   2.005  -0.539  0.00  0.00    +0.148 HD
ATOM     13  H   UNL     1      -0.525  -2.089  -0.500  0.00  0.00    +0.148 HD
ATOM     14  H   UNL     1       4.187   1.156   0.622  0.00  0.00    +0.190 HD
ATOM     15  H   UNL     1       4.158  -1.176   0.633  0.00  0.00    +0.190 HD
ENDROOT
BRANCH   7  16
ATOM     16  C   UNL     1      -2.387  -0.008  -0.970  0.00  0.00    +0.040 C 
BRANCH  16  17
ATOM     17  C   UNL     1      -3.301   0.026   0.273  0.00  0.00    +0.003 C 
BRANCH  17  18
ATOM     18  C   UNL     1      -4.785   0.040  -0.095  0.00  0.00    +0.000 C 
ATOM     19  C   UNL     1      -5.666   0.033   1.144  0.00  0.00    +0.000 C 
ENDBRANCH  17  18
ENDBRANCH  16  17
ENDBRANCH   7  16
TORSDOF 3
