REMARK  Name = 448326
REMARK  7 active torsions:
REMARK  status: ('A' for Active; 'I' for Inactive)
REMARK    1  A    between atoms: C_2  and  N_11
REMARK    2  A    between atoms: C_3  and  O_22
REMARK    3  A    between atoms: C_12  and  C_14
REMARK    4  A    between atoms: C_19  and  O_20
REMARK    5  A    between atoms: O_22  and  C_24
REMARK    6  A    between atoms: C_24  and  C_25
REMARK    7  A    between atoms: C_30  and  O_31
REMARK                            x       y       z     vdW  Elec       q    Type
REMARK                         _______ _______ _______ _____ _____    ______ ____
ROOT
ATOM      1  N   UNL     1      -0.180   2.745  -0.072  0.00  0.00    +0.385 N 
ATOM      2  C   UNL     1       0.524   0.477  -0.954  0.00  0.00    +0.091 C 
ATOM      3  C   UNL     1      -0.321  -0.354   0.028  0.00  0.00    +0.185 C 
ATOM      4  C   UNL     1      -0.345   0.180   1.463  0.00  0.00    +0.043 C 
ATOM      5  C   UNL     1       0.019   1.897  -1.244  0.00  0.00    -0.058 C 
ATOM      6  C   UNL     1      -1.245   1.384   1.748  0.00  0.00    -0.020 C 
ATOM      7  C   UNL     1      -1.408   2.421   0.641  0.00  0.00    -0.082 C 
ATOM      8  H   UNL     1      -0.222   3.718  -0.374  0.00  0.00    -0.084 HD
ATOM      9  H   UNL     1       0.602   2.587   0.565  0.00  0.00    -0.084 HD
ENDROOT
BRANCH   2  11
ATOM     10  O   UNL     1       2.505  -1.490  -1.608  0.00  0.00    -0.270 OA
ATOM     11  N   UNL     1       1.916   0.493  -0.561  0.00  0.00    -0.301 N 
ATOM     12  C   UNL     1       2.795  -0.508  -0.929  0.00  0.00    +0.246 C 
ATOM     13  H   UNL     1       2.248   1.241  -0.014  0.00  0.00    +0.150 HD
BRANCH  12  14
ATOM     14  C   UNL     1       4.184  -0.359  -0.424  0.00  0.00    +0.054 C 
ATOM     15  C   UNL     1       4.950  -1.490  -0.240  0.00  0.00    +0.008 C 
ATOM     16  C   UNL     1       4.662   0.907  -0.154  0.00  0.00    +0.008 C 
ATOM     17  C   UNL     1       6.255  -1.351   0.235  0.00  0.00    +0.037 C 
ATOM     18  C   UNL     1       5.966   1.047   0.321  0.00  0.00    +0.037 C 
ATOM     19  C   UNL     1       6.763  -0.082   0.515  0.00  0.00    +0.134 C 
BRANCH  19  20
ATOM     20  O   UNL     1       8.034   0.054   0.980  0.00  0.00    -0.506 OA
ATOM     21  H   UNL     1       8.569  -0.704   1.111  0.00  0.00    +0.292 HD
ENDBRANCH  19  20
ENDBRANCH  12  14
ENDBRANCH   2  11
BRANCH   3  22
ATOM     22  O   UNL     1      -1.643  -0.497  -0.481  0.00  0.00    -0.448 OA
BRANCH  22  24
ATOM     23  O   UNL     1      -2.146  -2.233   0.944  0.00  0.00    -0.245 OA
ATOM     24  C   UNL     1      -2.472  -1.280   0.253  0.00  0.00    +0.341 C 
BRANCH  24  25
ATOM     25  C   UNL     1      -3.877  -0.823   0.107  0.00  0.00    +0.076 C 
ATOM     26  C   UNL     1      -4.753  -1.014   1.156  0.00  0.00    +0.010 C 
ATOM     27  C   UNL     1      -4.263  -0.221  -1.073  0.00  0.00    +0.010 C 
ATOM     28  C   UNL     1      -6.073  -0.584   1.019  0.00  0.00    +0.037 C 
ATOM     29  C   UNL     1      -5.583   0.209  -1.210  0.00  0.00    +0.037 C 
ATOM     30  C   UNL     1      -6.488   0.027  -0.164  0.00  0.00    +0.134 C 
BRANCH  30  31
ATOM     31  O   UNL     1      -7.776   0.445  -0.298  0.00  0.00    -0.506 OA
ATOM     32  H   UNL     1      -8.384   0.323   0.405  0.00  0.00    +0.292 HD
ENDBRANCH  30  31
ENDBRANCH  24  25
ENDBRANCH  22  24
ENDBRANCH   3  22
TORSDOF 7
