REMARK  Name = 448062
REMARK  5 active torsions:
REMARK  status: ('A' for Active; 'I' for Inactive)
REMARK    1  A    between atoms: N_1  and  C_25
REMARK    2  A    between atoms: C_4  and  O_14
REMARK    3  A    between atoms: O_14  and  C_17
REMARK    4  A    between atoms: C_25  and  C_26
REMARK    5  A    between atoms: C_34  and  C_38
REMARK                            x       y       z     vdW  Elec       q    Type
REMARK                         _______ _______ _______ _____ _____    ______ ____
ROOT
ATOM      1  N   UNL     1      -3.039  -0.511  -0.881  0.00  0.00    -0.323 N 
ATOM      2  C   UNL     1      -2.289  -1.556  -0.395  0.00  0.00    +0.063 A 
ATOM      3  C   UNL     1      -3.079  -2.235   0.532  0.00  0.00    +0.017 A 
ATOM      4  C   UNL     1      -0.466  -3.067  -0.048  0.00  0.00    +0.140 C 
ATOM      5  C   UNL     1      -4.285  -0.491  -0.300  0.00  0.00    +0.060 A 
ATOM      6  C   UNL     1      -4.341  -1.562   0.593  0.00  0.00    +0.017 A 
ATOM      7  C   UNL     1      -0.981  -1.947  -0.706  0.00  0.00    +0.054 C 
ATOM      8  C   UNL     1      -2.536  -3.362   1.184  0.00  0.00    +0.005 C 
ATOM      9  C   UNL     1      -1.230  -3.766   0.883  0.00  0.00    +0.037 C 
ATOM     10  C   UNL     1      -5.356   0.387  -0.497  0.00  0.00    +0.017 C 
ATOM     11  C   UNL     1      -5.528  -1.766   1.327  0.00  0.00    +0.001 C 
ATOM     12  C   UNL     1      -6.521   0.163   0.242  0.00  0.00    +0.001 C 
ATOM     13  C   UNL     1      -6.608  -0.897   1.141  0.00  0.00    +0.000 C 
ENDROOT
BRANCH   4  14
ATOM     14  O   UNL     1       0.804  -3.480  -0.323  0.00  0.00    -0.479 OA
BRANCH  14  17
ATOM     15  N   UNL     1       4.668  -1.980  -0.080  0.00  0.00    -0.297 N 
ATOM     16  N   UNL     1       6.642  -1.865  -1.344  0.00  0.00    -0.289 NA
ATOM     17  C   UNL     1       1.853  -2.553  -0.068  0.00  0.00    +0.169 C 
ATOM     18  C   UNL     1       2.605  -2.252  -1.365  0.00  0.00    +0.065 C 
ATOM     19  C   UNL     1       2.798  -3.153   0.973  0.00  0.00    +0.065 C 
ATOM     20  C   UNL     1       3.824  -1.372  -1.107  0.00  0.00    +0.096 C 
ATOM     21  C   UNL     1       4.015  -2.260   1.198  0.00  0.00    +0.096 C 
ATOM     22  C   UNL     1       5.993  -2.181  -0.267  0.00  0.00    +0.100 C 
ATOM     23  C   UNL     1       6.759  -2.817   0.865  0.00  0.00    +0.068 C 
ATOM     24  H   UNL     1       6.169  -1.448  -2.100  0.00  0.00    +0.188 HD
ENDBRANCH  14  17
ENDBRANCH   4  14
BRANCH   1  25
ATOM     25  C   UNL     1      -2.579   0.440  -1.874  0.00  0.00    +0.133 C 
BRANCH  25  26
ATOM     26  C   UNL     1      -1.917   1.628  -1.231  0.00  0.00    +0.000 C 
ATOM     27  C   UNL     1      -0.550   1.600  -0.988  0.00  0.00    -0.002 C 
ATOM     28  C   UNL     1      -2.679   2.733  -0.890  0.00  0.00    -0.002 C 
ATOM     29  C   UNL     1       0.084   2.701  -0.389  0.00  0.00    -0.000 C 
ATOM     30  C   UNL     1      -0.686   3.835  -0.036  0.00  0.00    -0.000 C 
ATOM     31  C   UNL     1      -2.067   3.835  -0.293  0.00  0.00    -0.000 C 
ATOM     32  C   UNL     1       1.464   2.701  -0.131  0.00  0.00    +0.003 C 
ATOM     33  C   UNL     1      -0.052   4.936   0.564  0.00  0.00    +0.000 C 
ATOM     34  C   UNL     1       2.077   3.803   0.466  0.00  0.00    +0.031 C 
ATOM     35  C   UNL     1       1.320   4.918   0.812  0.00  0.00    +0.003 C 
BRANCH  34  38
ATOM     36  N   UNL     1       4.149   4.873   1.319  0.00  0.00    -0.343 N 
ATOM     37  N   UNL     1       4.226   2.730   0.391  0.00  0.00    -0.285 NA
ATOM     38  C   UNL     1       3.508   3.788   0.725  0.00  0.00    +0.117 C 
ATOM     39  H   UNL     1       5.119   4.842   1.485  0.00  0.00    +0.144 HD
ATOM     40  H   UNL     1       3.632   5.672   1.572  0.00  0.00    +0.144 HD
ATOM     41  H   UNL     1       5.195   2.717   0.566  0.00  0.00    +0.188 HD
ENDBRANCH  34  38
ENDBRANCH  25  26
ENDBRANCH   1  25
TORSDOF 5
