REMARK  Name = 31260
REMARK  3 active torsions:
REMARK  status: ('A' for Active; 'I' for Inactive)
REMARK    1  A    between atoms: C_1  and  C_2
REMARK    2  A    between atoms: C_1  and  C_5
REMARK    3  A    between atoms: C_5  and  O_6
REMARK                            x       y       z     vdW  Elec       q    Type
REMARK                         _______ _______ _______ _____ _____    ______ ____
ROOT
ATOM      1  C   UNL     1      -0.365   0.046   0.761  0.00  0.00    +0.032 C 
ENDROOT
BRANCH   1   2
ATOM      2  C   UNL     1       1.140   0.008   0.452  0.00  0.00    +0.002 C 
ATOM      3  C   UNL     1       1.484  -1.278  -0.303  0.00  0.00    +0.000 C 
ATOM      4  C   UNL     1       1.599   1.221  -0.359  0.00  0.00    +0.000 C 
ENDBRANCH   1   2
BRANCH   1   5
ATOM      5  C   UNL     1      -1.248  -0.030  -0.478  0.00  0.00    +0.137 C 
BRANCH   5   6
ATOM      6  O   UNL     1      -2.610   0.033  -0.072  0.00  0.00    -0.382 OA
ATOM      7  H   UNL     1      -3.183  -0.014  -0.854  0.00  0.00    +0.210 HD
ENDBRANCH   5   6
ENDBRANCH   1   5
TORSDOF 3
