REMARK  Name = 6802
REMARK  5 active torsions:
REMARK  status: ('A' for Active; 'I' for Inactive)
REMARK    1  A    between atoms: N9_2  and  C1*_16
REMARK    2  A    between atoms: C2*_17  and  O2*_20
REMARK    3  A    between atoms: C3*_18  and  O3*_22
REMARK    4  A    between atoms: C4*_19  and  C5*_24
REMARK    5  A    between atoms: C5*_24  and  O5*_25
REMARK                            x       y       z     vdW  Elec       q    Type
REMARK                         _______ _______ _______ _____ _____    ______ ____
ROOT
ATOM      1  O6  G   A   1      -4.202  -1.942   0.432  0.00  0.00    -0.208 OA
ATOM      2  N9  G   A   1       0.011  -0.397  -0.120  0.00  0.00    -0.207 NA
ATOM      3  N3  G   A   1      -1.789   1.217  -0.389  0.00  0.00    -0.279 N 
ATOM      4  N7  G   A   1      -1.266  -2.186   0.341  0.00  0.00    -0.241 NA
ATOM      5  N1  G   A   1      -3.990   0.308  -0.078  0.00  0.00    -0.301 NA
ATOM      6  N2  G   A   1      -3.643   2.581  -0.599  0.00  0.00    -0.320 N 
ATOM      7  C4  G   A   1      -1.281   0.006  -0.145  0.00  0.00    +0.191 C 
ATOM      8  C8  G   A   1      -0.031  -1.741   0.179  0.00  0.00    +0.205 C 
ATOM      9  C5  G   A   1      -2.049  -1.086   0.136  0.00  0.00    +0.183 C 
ATOM     10  C6  G   A   1      -3.494  -0.975   0.183  0.00  0.00    +0.224 C 
ATOM     11  C2  G   A   1      -3.178   1.316  -0.342  0.00  0.00    +0.245 C 
ATOM     12  H3  G   A   1      -1.217   1.992  -0.590  0.00  0.00    +0.152 HD
ATOM     13  H21 G   A   1      -3.009   3.309  -0.792  0.00  0.00    +0.146 HD
ATOM     14  H22 G   A   1      -4.611   2.761  -0.589  0.00  0.00    +0.146 HD
ENDROOT
BRANCH   2  16
ATOM     15  O4* G   A   1       2.221  -0.412  -0.982  0.00  0.00    -0.336 OA
ATOM     16  C1* G   A   1       1.210   0.402  -0.357  0.00  0.00    +0.209 C 
ATOM     17  C2* G   A   1       1.841   0.963   0.909  0.00  0.00    +0.183 C 
ATOM     18  C3* G   A   1       3.281   1.148   0.472  0.00  0.00    +0.171 C 
ATOM     19  C4* G   A   1       3.509  -0.070  -0.418  0.00  0.00    +0.175 C 
BRANCH  17  20
ATOM     20  O2* G   A   1       1.226   2.170   1.313  0.00  0.00    -0.378 OA
ATOM     21  H2* G   A   1       0.311   1.992   1.580  0.00  0.00    +0.211 HD
ENDBRANCH  17  20
BRANCH  18  22
ATOM     22  O3* G   A   1       3.389   2.327  -0.325  0.00  0.00    -0.379 OA
ATOM     23  H3* G   A   1       3.245   3.108   0.233  0.00  0.00    +0.211 HD
ENDBRANCH  18  22
BRANCH  19  24
ATOM     24  C5* G   A   1       4.033  -1.276   0.348  0.00  0.00    +0.169 C 
BRANCH  24  25
ATOM     25  O5* G   A   1       4.202  -2.352  -0.558  0.00  0.00    -0.379 OA
ATOM     26  H5* G   A   1       4.536  -3.127  -0.081  0.00  0.00    +0.211 HD
ENDBRANCH  24  25
ENDBRANCH  19  24
ENDBRANCH   2  16
TORSDOF 5
