REMARK  Name = 4592
REMARK  5 active torsions:
REMARK  status: ('A' for Active; 'I' for Inactive)
REMARK    1  A    between atoms: N_5  and  C_22
REMARK    2  A    between atoms: N_13  and  C_15
REMARK    3  A    between atoms: C_15  and  C_16
REMARK    4  A    between atoms: C_22  and  C_23
REMARK    5  A    between atoms: C_23  and  O_24
REMARK                            x       y       z     vdW  Elec       q    Type
REMARK                         _______ _______ _______ _____ _____    ______ ____
ROOT
ATOM      1  N   UNL     1      -2.649   2.939  -0.032  0.00  0.00    -0.259 N 
ATOM      2  N   UNL     1      -3.058   0.549   0.103  0.00  0.00    -0.311 NA
ATOM      3  N   UNL     1      -0.420   2.943  -0.103  0.00  0.00    -0.240 NA
ATOM      4  N   UNL     1      -0.967  -0.710   0.102  0.00  0.00    -0.311 NA
ATOM      5  N   UNL     1      -3.043  -1.788   0.225  0.00  0.00    -0.256 N 
ATOM      6  C   UNL     1      -0.882   1.653  -0.021  0.00  0.00    +0.167 C 
ATOM      7  C   UNL     1      -2.267   1.629   0.023  0.00  0.00    +0.220 C 
ATOM      8  C   UNL     1      -0.230   0.424   0.021  0.00  0.00    +0.215 C 
ATOM      9  C   UNL     1      -2.315  -0.579   0.138  0.00  0.00    +0.202 C 
ATOM     10  C   UNL     1      -1.505   3.689  -0.107  0.00  0.00    +0.222 C 
ATOM     11  C   UNL     1      -3.999   3.448  -0.016  0.00  0.00    +0.117 C 
ATOM     12  H   UNL     1      -4.026  -1.745   0.255  0.00  0.00    +0.160 HD
ATOM     13  N   UNL     1       1.173   0.354  -0.019  0.00  0.00    -0.302 N 
ATOM     14  H   UNL     1       1.684   1.194  -0.077  0.00  0.00    +0.150 HD
ENDROOT
BRANCH  13  15
ATOM     15  C   UNL     1       1.895  -0.883   0.022  0.00  0.00    +0.116 C 
BRANCH  15  16
ATOM     16  C   UNL     1       3.377  -0.629   0.000  0.00  0.00    -0.003 C 
ATOM     17  C   UNL     1       4.042  -0.559  -1.217  0.00  0.00    -0.003 C 
ATOM     18  C   UNL     1       4.063  -0.467   1.197  0.00  0.00    -0.003 C 
ATOM     19  C   UNL     1       5.417  -0.323  -1.238  0.00  0.00    -0.000 C 
ATOM     20  C   UNL     1       5.438  -0.232   1.176  0.00  0.00    -0.000 C 
ATOM     21  C   UNL     1       6.115  -0.160  -0.042  0.00  0.00    -0.000 C 
ENDBRANCH  15  16
ENDBRANCH  13  15
BRANCH   5  22
ATOM     22  C   UNL     1      -2.412  -3.068   0.271  0.00  0.00    +0.130 C 
BRANCH  22  23
ATOM     23  C   UNL     1      -3.463  -4.164   0.328  0.00  0.00    +0.159 C 
BRANCH  23  24
ATOM     24  O   UNL     1      -4.310  -4.067  -0.811  0.00  0.00    -0.380 OA
ATOM     25  H   UNL     1      -4.981  -4.767  -0.775  0.00  0.00    +0.211 HD
ENDBRANCH  23  24
ENDBRANCH  22  23
ENDBRANCH   5  22
TORSDOF 5
