REMARK  Name = 447961
REMARK  3 active torsions:
REMARK  status: ('A' for Active; 'I' for Inactive)
REMARK    1  A    between atoms: N_1  and  C_18
REMARK    2  A    between atoms: C_4  and  C_12
REMARK    3  A    between atoms: C_21  and  N_26
REMARK                            x       y       z     vdW  Elec       q    Type
REMARK                         _______ _______ _______ _____ _____    ______ ____
ROOT
ATOM      1  N   UNL     1      -1.538  -2.284  -0.121  0.00  0.00    -0.247 N 
ATOM      2  N   UNL     1       0.525  -1.170  -0.008  0.00  0.00    -0.341 NA
ATOM      3  N   UNL     1       0.422  -3.555  -0.341  0.00  0.00    -0.170 NA
ATOM      4  C   UNL     1       1.871  -1.260  -0.049  0.00  0.00    +0.140 C 
ATOM      5  C   UNL     1      -0.131  -2.339  -0.159  0.00  0.00    +0.148 C 
ATOM      6  C   UNL     1       2.555  -2.444  -0.229  0.00  0.00    +0.051 C 
ATOM      7  C   UNL     1       1.771  -3.571  -0.371  0.00  0.00    +0.114 C 
ATOM      8  H   UNL     1      -1.971  -3.161  -0.234  0.00  0.00    +0.165 HD
ENDROOT
BRANCH   4  12
ATOM      9  S   UNL     1       4.088   0.224  -0.642  0.00  0.00    -0.054 S 
ATOM     10  N   UNL     1       3.122   2.174   0.754  0.00  0.00    -0.389 NA
ATOM     11  N   UNL     1       5.225   2.594  -0.240  0.00  0.00    -0.328 N 
ATOM     12  C   UNL     1       2.563  -0.009   0.111  0.00  0.00    +0.156 C 
ATOM     13  C   UNL     1       2.215   1.133   0.806  0.00  0.00    +0.106 C 
ATOM     14  C   UNL     1       0.977   1.336   1.588  0.00  0.00    +0.063 C 
ATOM     15  C   UNL     1       4.148   1.807   0.018  0.00  0.00    +0.204 C 
ATOM     16  H   UNL     1       5.960   2.255  -0.801  0.00  0.00    +0.145 HD
ATOM     17  H   UNL     1       5.271   3.504   0.133  0.00  0.00    +0.145 HD
ENDBRANCH   4  12
BRANCH   1  18
ATOM     18  C   UNL     1      -2.448  -1.220   0.047  0.00  0.00    +0.059 C 
ATOM     19  C   UNL     1      -2.112   0.061  -0.391  0.00  0.00    +0.039 C 
ATOM     20  C   UNL     1      -3.684  -1.449   0.650  0.00  0.00    +0.015 C 
ATOM     21  C   UNL     1      -3.013   1.113  -0.225  0.00  0.00    +0.144 C 
ATOM     22  C   UNL     1      -4.585  -0.397   0.817  0.00  0.00    +0.003 C 
ATOM     23  C   UNL     1      -4.249   0.884   0.379  0.00  0.00    +0.024 C 
BRANCH  21  26
ATOM     24  O   UNL     1      -3.497   3.349  -0.513  0.00  0.00    -0.126 OA
ATOM     25  O   UNL     1      -1.554   2.603  -1.211  0.00  0.00    -0.126 OA
ATOM     26  N   UNL     1      -2.672   2.418  -0.671  0.00  0.00    +0.058 N 
ENDBRANCH  21  26
ENDBRANCH   1  18
TORSDOF 3
