REMARK  Name = 5311
REMARK  9 active torsions:
REMARK  status: ('A' for Active; 'I' for Inactive)
REMARK    1  A    between atoms: C_1  and  C_2
REMARK    2  A    between atoms: C_1  and  C_12
REMARK    3  A    between atoms: C_2  and  C_3
REMARK    4  A    between atoms: C_3  and  C_4
REMARK    5  A    between atoms: C_4  and  C_5
REMARK    6  A    between atoms: C_5  and  C_8
REMARK    7  A    between atoms: N_7  and  O_10
REMARK    8  A    between atoms: C_12  and  C_15
REMARK    9  A    between atoms: N_14  and  C_17
REMARK                            x       y       z     vdW  Elec       q    Type
REMARK                         _______ _______ _______ _____ _____    ______ ____
ROOT
ATOM      1  C   UNL     1       0.374   0.483  -0.145  0.00  0.00    +0.010 C 
ENDROOT
BRANCH   1   2
ATOM      2  C   UNL     1       1.704  -0.261  -0.296  0.00  0.00    +0.001 C 
BRANCH   2   3
ATOM      3  C   UNL     1       2.893   0.691  -0.136  0.00  0.00    +0.001 C 
BRANCH   3   4
ATOM      4  C   UNL     1       4.223  -0.058  -0.256  0.00  0.00    +0.010 C 
BRANCH   4   5
ATOM      5  C   UNL     1       5.429   0.862  -0.070  0.00  0.00    +0.087 C 
BRANCH   5   8
ATOM      6  O   UNL     1       7.327  -0.017  -1.248  0.00  0.00    -0.273 OA
ATOM      7  N   UNL     1       7.187  -0.358   1.034  0.00  0.00    -0.197 N 
ATOM      8  C   UNL     1       6.746   0.121  -0.173  0.00  0.00    +0.244 C 
ATOM      9  H   UNL     1       6.681  -0.219   1.867  0.00  0.00    +0.182 HD
BRANCH   7  10
ATOM     10  O   UNL     1       8.400  -1.059   1.010  0.00  0.00    -0.295 OA
ATOM     11  H   UNL     1       8.621  -1.354   1.907  0.00  0.00    +0.241 HD
ENDBRANCH   7  10
ENDBRANCH   5   8
ENDBRANCH   4   5
ENDBRANCH   3   4
ENDBRANCH   2   3
ENDBRANCH   1   2
BRANCH   1  12
ATOM     12  C   UNL     1      -0.831  -0.449  -0.265  0.00  0.00    +0.085 C 
BRANCH  12  15
ATOM     13  O   UNL     1      -2.252   1.436   0.223  0.00  0.00    -0.275 OA
ATOM     14  N   UNL     1      -3.217  -0.667  -0.172  0.00  0.00    -0.284 N 
ATOM     15  C   UNL     1      -2.171   0.243  -0.047  0.00  0.00    +0.226 C 
ATOM     16  H   UNL     1      -2.963  -1.596  -0.376  0.00  0.00    +0.155 HD
BRANCH  14  17
ATOM     17  C   UNL     1      -4.603  -0.412  -0.040  0.00  0.00    +0.050 C 
ATOM     18  C   UNL     1      -5.521  -1.451  -0.194  0.00  0.00    +0.015 C 
ATOM     19  C   UNL     1      -5.051   0.878   0.244  0.00  0.00    +0.015 C 
ATOM     20  C   UNL     1      -6.886  -1.200  -0.063  0.00  0.00    +0.001 C 
ATOM     21  C   UNL     1      -6.417   1.129   0.374  0.00  0.00    +0.001 C 
ATOM     22  C   UNL     1      -7.335   0.089   0.221  0.00  0.00    +0.000 C 
ENDBRANCH  14  17
ENDBRANCH  12  15
ENDBRANCH   1  12
TORSDOF 9
