REMARK  Name = 440046
REMARK  2 active torsions:
REMARK  status: ('A' for Active; 'I' for Inactive)
REMARK    1  A    between atoms: CA_5  and  C_7
REMARK    2  A    between atoms: C_7  and  O_8
REMARK                            x       y       z     vdW  Elec       q    Type
REMARK                         _______ _______ _______ _____ _____    ______ ____
ROOT
ATOM      1  N   PRO A   1      -0.646  -1.148  -0.256  0.00  0.00    -0.268 NA
ATOM      2  CG  PRO A   1      -2.112   0.624   0.410  0.00  0.00    +0.033 C 
ATOM      3  CB  PRO A   1      -0.752   1.216   0.119  0.00  0.00    +0.054 C 
ATOM      4  CD  PRO A   1      -2.061  -0.722  -0.298  0.00  0.00    +0.126 C 
ATOM      5  CA  PRO A   1       0.009  -0.053  -0.034  0.00  0.00    +0.129 C 
ENDROOT
BRANCH   5   7
ATOM      6  OXT PRO A   1       2.126  -0.998   0.441  0.00  0.00    -0.244 OA
ATOM      7  C   PRO A   1       1.487  -0.047   0.034  0.00  0.00    +0.351 C 
BRANCH   7   8
ATOM      8  O   PRO A   1       1.948   1.128  -0.416  0.00  0.00    -0.476 OA
ATOM      9  H   PRO A   1       1.348   1.787  -0.705  0.00  0.00    +0.295 HD
ENDBRANCH   7   8
ENDBRANCH   5   7
TORSDOF 2
