REMARK  Name = 446491
REMARK  8 active torsions:
REMARK  status: ('A' for Active; 'I' for Inactive)
REMARK    1  A    between atoms: C_2  and  O_16
REMARK    2  A    between atoms: C_3  and  N_6
REMARK    3  A    between atoms: C_4  and  O_18
REMARK    4  A    between atoms: C_5  and  C_20
REMARK    5  A    between atoms: C_20  and  O_21
REMARK    6  A    between atoms: O_21  and  P_22
REMARK    7  A    between atoms: P_22  and  O_24
REMARK    8  A    between atoms: P_22  and  O_26
REMARK                            x       y       z     vdW  Elec       q    Type
REMARK                         _______ _______ _______ _____ _____    ______ ____
ROOT
ATOM      1  O   UNL     1       1.042   0.066   0.090  0.00  0.00    -0.333 OA
ATOM      2  C   UNL     1       0.043  -2.081  -0.187  0.00  0.00    +0.187 C 
ATOM      3  C   UNL     1      -0.173  -0.578  -0.352  0.00  0.00    +0.224 C 
ATOM      4  C   UNL     1       1.522  -2.173  -0.507  0.00  0.00    +0.171 C 
ATOM      5  C   UNL     1       2.067  -0.940   0.203  0.00  0.00    +0.176 C 
ENDROOT
BRANCH   3   6
ATOM      6  N   UNL     1      -1.329  -0.025   0.344  0.00  0.00    -0.262 N 
ATOM      7  N   UNL     1      -2.534   0.861   1.998  0.00  0.00    -0.247 NA
ATOM      8  C   UNL     1      -2.592   0.157  -0.169  0.00  0.00    +0.064 C 
ATOM      9  C   UNL     1      -1.350   0.414   1.643  0.00  0.00    +0.222 C 
ATOM     10  C   UNL     1      -3.322   0.709   0.880  0.00  0.00    +0.090 C 
ATOM     11  C   UNL     1      -3.138  -0.110  -1.425  0.00  0.00    -0.006 C 
ATOM     12  C   UNL     1      -4.678   1.020   0.682  0.00  0.00    +0.012 C 
ATOM     13  C   UNL     1      -5.247   0.761  -0.571  0.00  0.00    -0.038 C 
ATOM     14  C   UNL     1      -4.489   0.206  -1.605  0.00  0.00    +0.049 C 
ATOM     15  C   UNL     1      -6.686   1.083  -0.804  0.00  0.00    +0.027 C 
ENDBRANCH   3   6
BRANCH   2  16
ATOM     16  O   UNL     1      -0.188  -2.478   1.162  0.00  0.00    -0.378 OA
ATOM     17  H   UNL     1      -1.136  -2.417   1.359  0.00  0.00    +0.211 HD
ENDBRANCH   2  16
BRANCH   4  18
ATOM     18  O   UNL     1       2.123  -3.361  -0.040  0.00  0.00    -0.379 OA
ATOM     19  H   UNL     1       1.750  -4.120  -0.515  0.00  0.00    +0.211 HD
ENDBRANCH   4  18
BRANCH   5  20
ATOM     20  C   UNL     1       3.360  -0.422  -0.401  0.00  0.00    +0.186 C 
BRANCH  20  21
ATOM     21  O   UNL     1       3.775   0.726   0.322  0.00  0.00    -0.271 OA
BRANCH  21  22
ATOM     22  P   UNL     1       5.139   1.470  -0.131  0.00  0.00    +0.473 P 
ATOM     23  O   UNL     1       5.505   2.675   0.685  0.00  0.00    -0.227 OA
BRANCH  22  24
ATOM     24  O   UNL     1       4.921   1.745  -1.710  0.00  0.00    -0.303 OA
ATOM     25  H   UNL     1       4.689   0.914  -2.154  0.00  0.00    +0.222 HD
ENDBRANCH  22  24
BRANCH  22  26
ATOM     26  O   UNL     1       6.227   0.274  -0.109  0.00  0.00    -0.303 OA
ATOM     27  H   UNL     1       5.912  -0.460  -0.659  0.00  0.00    +0.222 HD
ENDBRANCH  22  26
ENDBRANCH  21  22
ENDBRANCH  20  21
ENDBRANCH   5  20
TORSDOF 8
