REMARK  Name = 1715
REMARK  6 active torsions:
REMARK  status: ('A' for Active; 'I' for Inactive)
REMARK    1  A    between atoms: C_1  and  C_5
REMARK    2  A    between atoms: C_1  and  C_17
REMARK    3  A    between atoms: C_13  and  O_15
REMARK    4  A    between atoms: C_17  and  N_18
REMARK    5  A    between atoms: C_19  and  C_25
REMARK    6  A    between atoms: C_25  and  C_26
REMARK                            x       y       z     vdW  Elec       q    Type
REMARK                         _______ _______ _______ _____ _____    ______ ____
ROOT
ATOM      1  C   UNL     1       0.536   1.729  -0.305  0.00  0.00    +0.063 C 
ENDROOT
BRANCH   1   5
ATOM      2  S   UNL     1       4.411  -0.571  -3.049  0.00  0.00    -0.112 S 
ATOM      3  O   UNL     1       2.331   1.841   1.238  0.00  0.00    -0.275 OA
ATOM      4  N   UNL     1       2.910   1.629  -1.004  0.00  0.00    -0.275 N 
ATOM      5  C   UNL     1       2.001   1.739   0.054  0.00  0.00    +0.224 C 
ATOM      6  C   UNL     1       4.343   1.634  -0.707  0.00  0.00    +0.121 C 
ATOM      7  C   UNL     1       2.535   1.396  -2.405  0.00  0.00    +0.106 C 
ATOM      8  C   UNL     1       4.861   0.251  -0.386  0.00  0.00    +0.006 C 
ATOM      9  C   UNL     1       2.673  -0.068  -2.811  0.00  0.00    +0.084 C 
ATOM     10  C   UNL     1       4.925  -0.778  -1.346  0.00  0.00    +0.023 C 
ATOM     11  C   UNL     1       5.301  -0.015   0.923  0.00  0.00    +0.035 C 
ATOM     12  C   UNL     1       5.445  -2.031  -0.984  0.00  0.00    +0.009 C 
ATOM     13  C   UNL     1       5.803  -1.268   1.273  0.00  0.00    +0.139 C 
ATOM     14  C   UNL     1       5.877  -2.275   0.319  0.00  0.00    +0.037 C 
BRANCH  13  15
ATOM     15  O   UNL     1       6.223  -1.502   2.546  0.00  0.00    -0.471 OA
ATOM     16  C   UNL     1       6.730  -2.804   2.834  0.00  0.00    +0.252 C 
ENDBRANCH  13  15
ENDBRANCH   1   5
BRANCH   1  17
ATOM     17  C   UNL     1      -0.284   1.857   0.964  0.00  0.00    -0.068 C 
BRANCH  17  18
ATOM     18  N   UNL     1      -1.709   1.861   0.634  0.00  0.00    +0.387 N 
ATOM     19  C   UNL     1      -4.455   0.841   0.728  0.00  0.00    +0.000 C 
ATOM     20  C   UNL     1      -4.010   2.077   1.516  0.00  0.00    -0.023 C 
ATOM     21  C   UNL     1      -3.549   0.651  -0.493  0.00  0.00    -0.023 C 
ATOM     22  C   UNL     1      -2.518   2.017   1.850  0.00  0.00    -0.077 C 
ATOM     23  C   UNL     1      -2.072   0.637  -0.092  0.00  0.00    -0.077 C 
ATOM     24  H   UNL     1      -1.900   2.657   0.025  0.00  0.00    -0.080 HD
BRANCH  19  25
ATOM     25  C   UNL     1      -5.919   0.954   0.312  0.00  0.00    +0.026 C 
BRANCH  25  26
ATOM     26  C   UNL     1      -6.516  -0.394   0.010  0.00  0.00    -0.022 C 
ATOM     27  C   UNL     1      -6.451  -0.897  -1.282  0.00  0.00    -0.004 C 
ATOM     28  C   UNL     1      -7.125  -1.117   1.028  0.00  0.00    -0.004 C 
ATOM     29  C   UNL     1      -7.004  -2.147  -1.562  0.00  0.00    -0.000 C 
ATOM     30  C   UNL     1      -7.678  -2.366   0.747  0.00  0.00    -0.000 C 
ATOM     31  C   UNL     1      -7.617  -2.881  -0.547  0.00  0.00    -0.000 C 
ENDBRANCH  25  26
ENDBRANCH  19  25
ENDBRANCH  17  18
ENDBRANCH   1  17
TORSDOF 6
