REMARK  Name = 449381
REMARK  8 active torsions:
REMARK  status: ('A' for Active; 'I' for Inactive)
REMARK    1  A    between atoms: C_1  and  N_8
REMARK    2  A    between atoms: C_2  and  N_12
REMARK    3  A    between atoms: C_3  and  O_20
REMARK    4  A    between atoms: C_6  and  C_17
REMARK    5  A    between atoms: C_17  and  O_18
REMARK    6  A    between atoms: O_20  and  C_21
REMARK    7  A    between atoms: C_21  and  C_22
REMARK    8  A    between atoms: C_21  and  C_24
REMARK                            x       y       z     vdW  Elec       q    Type
REMARK                         _______ _______ _______ _____ _____    ______ ____
ROOT
ATOM      1  C   UNL     1      -0.022   1.383  -0.086  0.00  0.00    +0.083 C 
ATOM      2  C   UNL     1      -1.277   2.086   0.465  0.00  0.00    -0.040 C 
ATOM      3  C   UNL     1       0.034  -0.090   0.368  0.00  0.00    +0.153 C 
ATOM      4  C   UNL     1      -2.554   1.360   0.009  0.00  0.00    +0.013 C 
ATOM      5  C   UNL     1      -1.299  -0.784   0.335  0.00  0.00    +0.006 C 
ATOM      6  C   UNL     1      -2.454  -0.127   0.163  0.00  0.00    +0.049 C 
ENDROOT
BRANCH   1   8
ATOM      7  O   UNL     1       2.491   1.570  -1.528  0.00  0.00    -0.275 OA
ATOM      8  N   UNL     1       1.184   2.070   0.332  0.00  0.00    -0.305 N 
ATOM      9  C   UNL     1       2.336   2.101  -0.432  0.00  0.00    +0.223 C 
ATOM     10  C   UNL     1       3.429   2.902   0.224  0.00  0.00    +0.095 C 
ATOM     11  H   UNL     1       1.183   2.536   1.199  0.00  0.00    +0.149 HD
ENDBRANCH   1   8
BRANCH   2  12
ATOM     12  N   UNL     1      -1.342   3.481   0.023  0.00  0.00    +0.383 N 
ATOM     13  H   UNL     1      -0.498   3.972   0.320  0.00  0.00    -0.089 HD
ATOM     14  H   UNL     1      -2.159   3.931   0.434  0.00  0.00    -0.089 HD
ATOM     15  H   UNL     1      -1.412   3.513  -0.994  0.00  0.00    -0.089 HD
ENDBRANCH   2  12
BRANCH   6  17
ATOM     16  O   UNL     1      -3.852  -1.958   0.751  0.00  0.00    -0.245 OA
ATOM     17  C   UNL     1      -3.689  -0.915   0.143  0.00  0.00    +0.334 C 
BRANCH  17  18
ATOM     18  O   UNL     1      -4.601  -0.307  -0.644  0.00  0.00    -0.477 OA
ATOM     19  H   UNL     1      -4.387   0.497  -1.075  0.00  0.00    +0.295 HD
ENDBRANCH  17  18
ENDBRANCH   6  17
BRANCH   3  20
ATOM     20  O   UNL     1       0.939  -0.782  -0.494  0.00  0.00    -0.353 OA
BRANCH  20  21
ATOM     21  C   UNL     1       1.588  -1.844   0.187  0.00  0.00    +0.116 C 
BRANCH  21  22
ATOM     22  C   UNL     1       2.860  -1.295   0.844  0.00  0.00    +0.030 C 
ATOM     23  C   UNL     1       3.600  -2.357   1.647  0.00  0.00    +0.003 C 
ENDBRANCH  21  22
BRANCH  21  24
ATOM     24  C   UNL     1       1.929  -2.966  -0.801  0.00  0.00    +0.030 C 
ATOM     25  C   UNL     1       0.701  -3.528  -1.504  0.00  0.00    +0.003 C 
ENDBRANCH  21  24
ENDBRANCH  20  21
ENDBRANCH   3  20
TORSDOF 8
