REMARK  Name = 6973609
REMARK  1 active torsions:
REMARK  status: ('A' for Active; 'I' for Inactive)
REMARK    1  A    between atoms: C_3  and  C_10
REMARK                            x       y       z     vdW  Elec       q    Type
REMARK                         _______ _______ _______ _____ _____    ______ ____
ROOT
ATOM      1  S   UNK     1      -2.350  -0.869  -0.114  0.00  0.00    -0.166 S 
ATOM      2  N   UNK     1      -0.688   1.163  -0.122  0.00  0.00    +0.399 N 
ATOM      3  C   UNK     1       0.089   0.014   0.444  0.00  0.00    +0.056 C 
ATOM      4  C   UNK     1      -0.575  -1.232  -0.113  0.00  0.00    +0.045 C 
ATOM      5  C   UNK     1      -2.144   0.912   0.057  0.00  0.00    -0.021 C 
ATOM      6  H   UNK     1      -0.478   1.258  -1.115  0.00  0.00    -0.082 HD
ATOM      7  H   UNK     1      -0.428   2.021   0.365  0.00  0.00    -0.082 HD
ENDROOT
BRANCH   3  10
ATOM      8  O   UNK     1       2.052   1.145  -0.165  0.00  0.00    -0.248 OA
ATOM      9  O   UNK     1       2.070  -1.139  -0.030  0.00  0.00    -0.248 OA
ATOM     10  C   UNK     1       1.546   0.008   0.044  0.00  0.00    +0.346 C 
ENDBRANCH   3  10
TORSDOF 1
