REMARK  Name = 17754027
REMARK  1 active torsions:
REMARK  status: ('A' for Active; 'I' for Inactive)
REMARK    1  A    between atoms: C_5  and  C_18
REMARK                            x       y       z     vdW  Elec       q    Type
REMARK                         _______ _______ _______ _____ _____    ______ ____
ROOT
ATOM      1 BR   UNL     1       0.847   3.952   0.424  0.00  0.00    -0.019 Br
ATOM      2  O   UNL     1       3.922  -0.455  -0.741  0.00  0.00    -0.268 OA
ATOM      3  N   UNL     1       2.198  -1.977  -0.935  0.00  0.00    -0.299 N 
ATOM      4  N   UNL     1       1.855   1.471  -0.371  0.00  0.00    -0.399 NA
ATOM      5  C   UNL     1      -0.142  -1.014   1.095  0.00  0.00    +0.075 C 
ATOM      6  C   UNL     1       1.050  -0.076   1.282  0.00  0.00    +0.072 C 
ATOM      7  C   UNL     1       0.221  -2.384   0.516  0.00  0.00    +0.030 C 
ATOM      8  C   UNL     1       1.859   0.242   0.048  0.00  0.00    +0.163 C 
ATOM      9  C   UNL     1       0.796  -2.337  -0.896  0.00  0.00    +0.090 C 
ATOM     10  C   UNL     1       0.653   1.348   1.550  0.00  0.00    +0.074 C 
ATOM     11  C   UNL     1       2.749  -0.771  -0.586  0.00  0.00    +0.271 C 
ATOM     12  C   UNL     1       1.106   2.132   0.566  0.00  0.00    +0.143 C 
ATOM     13  H   UNL     1       2.822  -2.672  -1.245  0.00  0.00    +0.150 HD
ENDROOT
BRANCH   5  18
ATOM     14  O   UNL     1      -3.070  -1.500   1.419  0.00  0.00    -0.206 OA
ATOM     15  N   UNL     1      -1.221   0.417  -0.688  0.00  0.00    -0.319 NA
ATOM     16  N   UNL     1      -3.439  -0.019  -0.363  0.00  0.00    -0.251 NA
ATOM     17  N   UNL     1      -2.857   1.487  -2.095  0.00  0.00    -0.283 N 
ATOM     18  C   UNL     1      -1.273  -0.418   0.295  0.00  0.00    +0.217 C 
ATOM     19  C   UNL     1      -2.707  -0.736   0.547  0.00  0.00    +0.242 C 
ATOM     20  C   UNL     1      -2.548   0.640  -1.066  0.00  0.00    +0.207 C 
ATOM     21  H   UNL     1      -2.139   1.952  -2.583  0.00  0.00    +0.156 HD
ATOM     22  H   UNL     1      -3.798   1.632  -2.348  0.00  0.00    +0.156 HD
ENDBRANCH   5  18
TORSDOF 1
