REMARK  Name = 440717
REMARK  4 active torsions:
REMARK  status: ('A' for Active; 'I' for Inactive)
REMARK    1  A    between atoms: C_2  and  C_4
REMARK    2  A    between atoms: C_2  and  C_7
REMARK    3  A    between atoms: C_4  and  O_5
REMARK    4  A    between atoms: C_7  and  S_8
REMARK                            x       y       z     vdW  Elec       q    Type
REMARK                         _______ _______ _______ _____ _____    ______ ____
ROOT
ATOM      1  O   UNL     1       0.685  -1.467   0.001  0.00  0.00    -0.283 OA
ATOM      2  C   UNL     1       0.802  -0.251  -0.019  0.00  0.00    +0.272 C 
ENDROOT
BRANCH   2   4
ATOM      3  O   UNL     1       2.418   1.496   0.012  0.00  0.00    -0.242 OA
ATOM      4  C   UNL     1       2.198   0.303  -0.015  0.00  0.00    +0.375 C 
BRANCH   4   5
ATOM      5  O   UNL     1       3.087  -0.698   0.011  0.00  0.00    -0.475 OA
ATOM      6  H   UNL     1       2.793  -1.587  -0.015  0.00  0.00    +0.295 HD
ENDBRANCH   4   5
ENDBRANCH   2   4
BRANCH   2   7
ATOM      7  C   UNL     1      -0.318   0.750  -0.040  0.00  0.00    +0.233 C 
BRANCH   7   8
ATOM      8  S   UNL     1      -1.897  -0.029  -0.007  0.00  0.00    +0.030 S 
ATOM      9  O   UNL     1      -2.800   1.320   0.164  0.00  0.00    -0.069 OA
ATOM     10  O   UNL     1      -2.010  -0.821   1.206  0.00  0.00    -0.069 OA
ATOM     11  O   UNL     1      -2.166  -0.604  -1.313  0.00  0.00    -0.069 OA
ENDBRANCH   7   8
ENDBRANCH   2   7
TORSDOF 4
