REMARK  Name = 5478865
REMARK  6 active torsions:
REMARK  status: ('A' for Active; 'I' for Inactive)
REMARK    1  A    between atoms: C_1  and  C_2
REMARK    2  A    between atoms: C_1  and  C_8
REMARK    3  A    between atoms: C_2  and  N_5
REMARK    4  A    between atoms: C_8  and  C_9
REMARK    5  A    between atoms: C_9  and  C_10
REMARK    6  A    between atoms: C_10  and  C_11
REMARK                            x       y       z     vdW  Elec       q    Type
REMARK                         _______ _______ _______ _____ _____    ______ ____
ROOT
ATOM      1  C   UNL     1       0.610   1.218  -0.035  0.00  0.00    +0.020 C 
ENDROOT
BRANCH   1   2
ATOM      2  C   UNL     1       2.039   0.688  -0.221  0.00  0.00    +0.072 C 
ATOM      3  C   UNL     1       3.060   1.804  -0.031  0.00  0.00    +0.021 C 
BRANCH   2   5
ATOM      4  O   UNL     1       3.838  -1.595  -0.621  0.00  0.00    -0.265 OA
ATOM      5  N   UNL     1       2.323  -0.393   0.694  0.00  0.00    -0.299 N 
ATOM      6  C   UNL     1       3.191  -1.422   0.404  0.00  0.00    +0.299 C 
ATOM      7  H   UNL     1       1.874  -0.393   1.570  0.00  0.00    +0.150 HD
ENDBRANCH   2   5
ENDBRANCH   1   2
BRANCH   1   8
ATOM      8  C   UNL     1      -0.451   0.121  -0.196  0.00  0.00    +0.002 C 
BRANCH   8   9
ATOM      9  C   UNL     1      -1.859   0.680   0.022  0.00  0.00    +0.000 C 
BRANCH   9  10
ATOM     10  C   UNL     1      -2.960  -0.378  -0.100  0.00  0.00    +0.000 C 
BRANCH  10  11
ATOM     11  C   UNL     1      -4.365   0.174   0.143  0.00  0.00    +0.000 C 
ATOM     12  C   UNL     1      -5.425  -0.897  -0.060  0.00  0.00    +0.000 C 
ENDBRANCH  10  11
ENDBRANCH   9  10
ENDBRANCH   8   9
ENDBRANCH   1   8
TORSDOF 6
