REMARK  Name = 5158928
REMARK  8 active torsions:
REMARK  status: ('A' for Active; 'I' for Inactive)
REMARK    1  A    between atoms: C_1  and  C_7
REMARK    2  A    between atoms: C_2  and  C_17
REMARK    3  A    between atoms: C_7  and  N_8
REMARK    4  A    between atoms: N_8  and  C_11
REMARK    5  A    between atoms: C_11  and  C_12
REMARK    6  A    between atoms: C_12  and  C_14
REMARK    7  A    between atoms: C_14  and  O_15
REMARK    8  A    between atoms: C_17  and  N_18
REMARK                            x       y       z     vdW  Elec       q    Type
REMARK                         _______ _______ _______ _____ _____    ______ ____
ROOT
ATOM      1  C   UNL     1       1.016   0.777  -0.025  0.00  0.00    -0.044 C 
ATOM      2  C   UNL     1       3.694   0.032  -0.005  0.00  0.00    -0.044 C 
ATOM      3  C   UNL     1       1.675   0.546  -1.227  0.00  0.00    -0.007 C 
ATOM      4  C   UNL     1       1.683   0.639   1.187  0.00  0.00    -0.007 C 
ATOM      5  C   UNL     1       3.018   0.172  -1.217  0.00  0.00    -0.007 C 
ATOM      6  C   UNL     1       3.026   0.265   1.197  0.00  0.00    -0.007 C 
ENDROOT
BRANCH   1   7
ATOM      7  C   UNL     1      -0.430   1.180  -0.036  0.00  0.00    -0.054 C 
BRANCH   7   8
ATOM      8  N   UNL     1      -1.317   0.027   0.011  0.00  0.00    +0.387 N 
ATOM      9  H   UNL     1      -1.129  -0.505   0.862  0.00  0.00    -0.084 HD
ATOM     10  H   UNL     1      -1.148  -0.549  -0.813  0.00  0.00    -0.084 HD
BRANCH   8  11
ATOM     11  C   UNL     1      -2.714   0.445   0.009  0.00  0.00    -0.070 C 
BRANCH  11  12
ATOM     12  C   UNL     1      -3.632  -0.774   0.027  0.00  0.00    +0.086 C 
BRANCH  12  14
ATOM     13  O   UNL     1      -5.525   0.763   0.003  0.00  0.00    -0.250 OA
ATOM     14  C   UNL     1      -5.088  -0.378   0.010  0.00  0.00    +0.312 C 
BRANCH  14  15
ATOM     15  O   UNL     1      -5.872  -1.486   0.001  0.00  0.00    -0.480 OA
ATOM     16  H   UNL     1      -5.480  -2.337   0.007  0.00  0.00    +0.295 HD
ENDBRANCH  14  15
ENDBRANCH  12  14
ENDBRANCH  11  12
ENDBRANCH   8  11
ENDBRANCH   7   8
ENDBRANCH   1   7
BRANCH   2  17
ATOM     17  C   UNL     1       5.131  -0.368   0.005  0.00  0.00    -0.059 C 
BRANCH  17  18
ATOM     18  N   UNL     1       5.334  -1.842   0.061  0.00  0.00    +0.383 N 
ATOM     19  H   UNL     1       6.333  -2.047   0.066  0.00  0.00    -0.089 HD
ATOM     20  H   UNL     1       4.901  -2.276  -0.754  0.00  0.00    -0.089 HD
ATOM     21  H   UNL     1       4.907  -2.212   0.910  0.00  0.00    -0.089 HD
ENDBRANCH  17  18
ENDBRANCH   2  17
TORSDOF 8
