REMARK  Name = 5798
REMARK  0 active torsions:
REMARK  status: ('A' for Active; 'I' for Inactive)
REMARK                            x       y       z     vdW  Elec       q    Type
REMARK                         _______ _______ _______ _____ _____    ______ ____
ROOT
ATOM      1  N   UNL     1       1.547   1.131   0.000  0.00  0.00    -0.315 N 
ATOM      2  N   UNL     1       1.628  -1.090   0.000  0.00  0.00    -0.315 N 
ATOM      3  C   UNL     1       0.239   0.717   0.000  0.00  0.00    +0.059 C 
ATOM      4  C   UNL     1       0.317  -0.673   0.000  0.00  0.00    +0.059 C 
ATOM      5  C   UNL     1      -0.968   1.417   0.000  0.00  0.00    +0.016 C 
ATOM      6  C   UNL     1      -0.870  -1.426   0.000  0.00  0.00    +0.016 C 
ATOM      7  C   UNL     1      -2.139   0.652   0.000  0.00  0.00    +0.001 C 
ATOM      8  C   UNL     1       2.338   0.016   0.000  0.00  0.00    +0.182 C 
ATOM      9  C   UNL     1      -2.093  -0.744   0.000  0.00  0.00    +0.001 C 
ATOM     10  H   UNL     1       1.859   2.064   0.000  0.00  0.00    +0.148 HD
ATOM     11  H   UNL     1       1.963  -2.016   0.000  0.00  0.00    +0.148 HD
ENDROOT
TORSDOF 0
