REMARK  Name = 8987
REMARK  4 active torsions:
REMARK  status: ('A' for Active; 'I' for Inactive)
REMARK    1  A    between atoms: N_1  and  C_3
REMARK    2  A    between atoms: N_1  and  C_6
REMARK    3  A    between atoms: N_1  and  C_8
REMARK    4  A    between atoms: C_3  and  S_4
REMARK                            x       y       z     vdW  Elec       q    Type
REMARK                         _______ _______ _______ _____ _____    ______ ____
ROOT
ATOM      1  N   UNL     1      -0.269   0.000  -0.026  0.00  0.00    -0.298 N 
ENDROOT
BRANCH   1   3
ATOM      2  S   UNL     1       2.025   1.451  -0.542  0.00  0.00    -0.028 S 
ATOM      3  C   UNL     1       1.134   0.115  -0.024  0.00  0.00    +0.107 C 
BRANCH   3   4
ATOM      4  S   UNL     1       2.042  -1.275   0.603  0.00  0.00    -0.120 S 
ATOM      5  H   UNL     1       3.374  -1.013   0.540  0.00  0.00    +0.109 HD
ENDBRANCH   3   4
ENDBRANCH   1   3
BRANCH   1   6
ATOM      6  C   UNL     1      -1.150   1.072  -0.498  0.00  0.00    +0.092 C 
ATOM      7  C   UNL     1      -1.554   1.993   0.641  0.00  0.00    +0.023 C 
ENDBRANCH   1   6
BRANCH   1   8
ATOM      8  C   UNL     1      -0.989  -1.173   0.477  0.00  0.00    +0.092 C 
ATOM      9  C   UNL     1      -1.239  -2.182  -0.631  0.00  0.00    +0.023 C 
ENDBRANCH   1   8
TORSDOF 4
