REMARK  Name = 1549098
REMARK  6 active torsions:
REMARK  status: ('A' for Active; 'I' for Inactive)
REMARK    1  A    between atoms: C_1  and  N_2
REMARK    2  A    between atoms: C_1  and  C_7
REMARK    3  A    between atoms: C_1  and  C_10
REMARK    4  A    between atoms: C_7  and  O_8
REMARK    5  A    between atoms: C_10  and  S_11
REMARK    6  A    between atoms: S_11  and  O_13
REMARK                            x       y       z     vdW  Elec       q    Type
REMARK                         _______ _______ _______ _____ _____    ______ ____
ROOT
ATOM      1  C   UNK     1       0.727   0.579   0.565  0.00  0.00    +0.059 C 
ENDROOT
BRANCH   1   2
ATOM      2  N   UNK     1       1.647   1.715   0.650  0.00  0.00    +0.390 N 
ATOM      3  H   UNK     1       1.192   2.486   1.137  0.00  0.00    -0.088 HD
ATOM      4  H   UNK     1       1.908   2.012  -0.290  0.00  0.00    -0.088 HD
ATOM      5  H   UNK     1       2.484   1.436   1.163  0.00  0.00    -0.088 HD
ENDBRANCH   1   2
BRANCH   1   7
ATOM      6  O   UNK     1       2.288  -0.356  -1.062  0.00  0.00    -0.253 OA
ATOM      7  C   UNK     1       1.471  -0.520  -0.166  0.00  0.00    +0.295 C 
BRANCH   7   8
ATOM      8  O   UNK     1       1.091  -1.742   0.286  0.00  0.00    -0.482 OA
ATOM      9  H   UNK     1       0.460  -1.811   0.975  0.00  0.00    +0.295 HD
ENDBRANCH   7   8
ENDBRANCH   1   7
BRANCH   1  10
ATOM     10  C   UNK     1      -0.542   0.986  -0.181  0.00  0.00    +0.134 C 
BRANCH  10  11
ATOM     11  S   UNK     1      -1.719  -0.400  -0.316  0.00  0.00    -0.056 S 
ATOM     12  O   UNK     1      -2.070  -0.819   1.076  0.00  0.00    -0.081 OA
BRANCH  11  13
ATOM     13  O   UNK     1      -2.893   0.558  -0.853  0.00  0.00    -0.278 OA
ATOM     14  H   UNK     1      -3.691   0.031  -1.015  0.00  0.00    +0.242 HD
ENDBRANCH  11  13
ENDBRANCH  10  11
ENDBRANCH   1  10
TORSDOF 6
