REMARK  Name = 54560057
REMARK  7 active torsions:
REMARK  status: ('A' for Active; 'I' for Inactive)
REMARK    1  A    between atoms: C_1  and  N_2
REMARK    2  A    between atoms: C_1  and  C_6
REMARK    3  A    between atoms: C_1  and  C_17
REMARK    4  A    between atoms: C_7  and  S_8
REMARK    5  A    between atoms: S_8  and  C_11
REMARK    6  A    between atoms: C_17  and  C_18
REMARK    7  A    between atoms: C_18  and  C_19
REMARK                            x       y       z     vdW  Elec       q    Type
REMARK                         _______ _______ _______ _____ _____    ______ ____
ROOT
ATOM      1  C   UNL     1      -0.838   2.164   0.821  0.00  0.00    -0.041 C 
ENDROOT
BRANCH   1   2
ATOM      2  N   UNL     1      -0.908   3.630   0.792  0.00  0.00    +0.384 N 
ATOM      3  H   UNL     1      -1.590   3.951   1.479  0.00  0.00    -0.089 HD
ATOM      4  H   UNL     1      -1.191   3.938  -0.138  0.00  0.00    -0.089 HD
ATOM      5  H   UNL     1       0.008   4.018   1.015  0.00  0.00    -0.089 HD
ENDBRANCH   1   2
BRANCH   1   6
ATOM      6  C   UNL     1       0.170   1.685  -0.193  0.00  0.00    -0.028 C 
ATOM      7  C   UNL     1       1.267   0.993   0.134  0.00  0.00    +0.121 C 
BRANCH   7   8
ATOM      8  S   UNL     1       2.311   0.510  -1.143  0.00  0.00    +0.028 S 
ATOM      9  O   UNL     1       2.911   1.689  -1.747  0.00  0.00    -0.164 OA
ATOM     10  O   UNL     1       1.647  -0.471  -1.986  0.00  0.00    -0.164 OA
BRANCH   8  11
ATOM     11  C   UNL     1       3.592  -0.351  -0.275  0.00  0.00    +0.110 C 
ATOM     12  C   UNL     1       3.479  -1.723  -0.048  0.00  0.00    +0.019 C 
ATOM     13  C   UNL     1       4.711   0.342   0.184  0.00  0.00    +0.019 C 
ATOM     14  C   UNL     1       4.486  -2.401   0.639  0.00  0.00    +0.001 C 
ATOM     15  C   UNL     1       5.718  -0.336   0.871  0.00  0.00    +0.001 C 
ATOM     16  C   UNL     1       5.605  -1.708   1.099  0.00  0.00    +0.000 C 
ENDBRANCH   8  11
ENDBRANCH   7   8
ENDBRANCH   1   6
BRANCH   1  17
ATOM     17  C   UNL     1      -2.243   1.595   0.541  0.00  0.00    -0.013 C 
BRANCH  17  18
ATOM     18  C   UNL     1      -2.280   0.060   0.551  0.00  0.00    +0.025 C 
BRANCH  18  19
ATOM     19  C   UNL     1      -3.661  -0.462   0.244  0.00  0.00    -0.022 C 
ATOM     20  C   UNL     1      -4.567  -0.690   1.280  0.00  0.00    -0.004 C 
ATOM     21  C   UNL     1      -4.032  -0.718  -1.076  0.00  0.00    -0.004 C 
ATOM     22  C   UNL     1      -5.844  -1.174   0.996  0.00  0.00    -0.000 C 
ATOM     23  C   UNL     1      -5.309  -1.202  -1.360  0.00  0.00    -0.000 C 
ATOM     24  C   UNL     1      -6.215  -1.430  -0.324  0.00  0.00    -0.000 C 
ENDBRANCH  18  19
ENDBRANCH  17  18
ENDBRANCH   1  17
TORSDOF 7
