REMARK  Name = 444291
REMARK  7 active torsions:
REMARK  status: ('A' for Active; 'I' for Inactive)
REMARK    1  A    between atoms: C_2  and  O_16
REMARK    2  A    between atoms: C_3  and  C_18
REMARK    3  A    between atoms: C_5  and  N_8
REMARK    4  A    between atoms: C_18  and  O_19
REMARK    5  A    between atoms: O_19  and  P_20
REMARK    6  A    between atoms: P_20  and  S_22
REMARK    7  A    between atoms: P_20  and  S_24
REMARK                            x       y       z     vdW  Elec       q    Type
REMARK                         _______ _______ _______ _____ _____    ______ ____
ROOT
ATOM      1  O   UNL     1      -0.366   1.232   0.970  0.00  0.00    -0.335 OA
ATOM      2  C   UNL     1      -0.969   2.739  -0.758  0.00  0.00    +0.144 C 
ATOM      3  C   UNL     1      -1.504   1.706   0.224  0.00  0.00    +0.174 C 
ATOM      4  C   UNL     1       0.444   2.268  -1.014  0.00  0.00    +0.083 C 
ATOM      5  C   UNL     1       0.839   1.668   0.326  0.00  0.00    +0.202 C 
ENDROOT
BRANCH   5   8
ATOM      6  O   UNL     1       3.680   1.827   0.433  0.00  0.00    -0.252 OA
ATOM      7  O   UNL     1       4.125  -2.707  -0.195  0.00  0.00    -0.270 OA
ATOM      8  N   UNL     1       1.735   0.557   0.195  0.00  0.00    -0.219 N 
ATOM      9  N   UNL     1       3.887  -0.435   0.118  0.00  0.00    -0.236 N 
ATOM     10  C   UNL     1       1.197  -0.708  -0.001  0.00  0.00    +0.071 C 
ATOM     11  C   UNL     1       3.134   0.735   0.262  0.00  0.00    +0.315 C 
ATOM     12  C   UNL     1       1.921  -1.826  -0.138  0.00  0.00    +0.047 C 
ATOM     13  C   UNL     1       3.403  -1.720  -0.078  0.00  0.00    +0.250 C 
ATOM     14  C   UNL     1       1.321  -3.179  -0.348  0.00  0.00    +0.037 C 
ATOM     15  H   UNL     1       4.866  -0.336   0.162  0.00  0.00    +0.159 HD
ENDBRANCH   5   8
BRANCH   2  16
ATOM     16  O   UNL     1      -0.942   4.026  -0.143  0.00  0.00    -0.382 OA
ATOM     17  H   UNL     1      -1.850   4.325   0.020  0.00  0.00    +0.210 HD
ENDBRANCH   2  16
BRANCH   3  18
ATOM     18  C   UNL     1      -2.143   0.509  -0.466  0.00  0.00    +0.183 C 
BRANCH  18  19
ATOM     19  O   UNL     1      -2.600  -0.400   0.523  0.00  0.00    -0.297 OA
BRANCH  19  20
ATOM     20  P   UNL     1      -3.893  -1.344   0.234  0.00  0.00    +0.310 P 
ATOM     21  O   UNL     1      -4.178  -2.217   1.431  0.00  0.00    -0.267 OA
BRANCH  20  22
ATOM     22  S   UNL     1      -5.583  -0.147  -0.151  0.00  0.00    -0.077 S 
ATOM     23  H   UNL     1      -5.341   0.646  -1.229  0.00  0.00    +0.112 HD
ENDBRANCH  20  22
BRANCH  20  24
ATOM     24  S   UNL     1      -3.507  -2.585  -1.425  0.00  0.00    -0.077 S 
ATOM     25  H   UNL     1      -3.247  -1.815  -2.516  0.00  0.00    +0.112 HD
ENDBRANCH  20  24
ENDBRANCH  19  20
ENDBRANCH  18  19
ENDBRANCH   3  18
TORSDOF 7
