REMARK  Name = 17754111
REMARK  4 active torsions:
REMARK  status: ('A' for Active; 'I' for Inactive)
REMARK    1  A    between atoms: C_7  and  C_12
REMARK    2  A    between atoms: C_12  and  CA_13
REMARK    3  A    between atoms: CA_13  and  N_14
REMARK    4  A    between atoms: CA_13  and  C_19
REMARK                            x       y       z     vdW  Elec       q    Type
REMARK                         _______ _______ _______ _____ _____    ______ ____
ROOT
ATOM      1  N   UNL     1      -1.240  -0.298  -0.223  0.00  0.00    -0.223 N 
ATOM      2  N   UNL     1       0.667  -1.367  -0.613  0.00  0.00    -0.254 NA
ATOM      3  N   UNL     1      -3.488  -0.976   0.247  0.00  0.00    -0.095 NA
ATOM      4  N   UNL     1      -3.081   1.250   0.149  0.00  0.00    -0.072 NA
ATOM      5  N   UNL     1      -4.569  -0.213   0.465  0.00  0.00    -0.139 N 
ATOM      6  N   UNL     1      -4.374   1.112   0.418  0.00  0.00    -0.020 NA
ATOM      7  C   UNL     1       0.965  -0.035  -0.681  0.00  0.00    +0.053 C 
ATOM      8  C   UNL     1      -0.228   0.604  -0.438  0.00  0.00    +0.144 C 
ATOM      9  C   UNL     1      -0.667  -1.476  -0.336  0.00  0.00    +0.228 C 
ATOM     10  C   UNL     1      -2.581  -0.015   0.054  0.00  0.00    +0.131 C 
ATOM     11  H   UNL     1      -5.453  -0.603   0.650  0.00  0.00    +0.197 HD
ENDROOT
BRANCH   7  12
ATOM     12  C   UNL     1       2.342   0.494  -0.970  0.00  0.00    +0.028 C 
BRANCH  12  13
ATOM     13  CA  UNL     1       3.190   0.717   0.290  0.00  0.00    +0.007 C 
BRANCH  13  14
ATOM     14  N   UNL     1       4.293   1.629  -0.010  0.00  0.00    +0.387 N 
ATOM     15  H1  UNL     1       3.918   2.516  -0.344  0.00  0.00    -0.089 HD
ATOM     16  H2  UNL     1       4.887   1.218  -0.729  0.00  0.00    -0.089 HD
ATOM     17  H3  UNL     1       4.842   1.788   0.835  0.00  0.00    -0.089 HD
ENDBRANCH  13  14
BRANCH  13  19
ATOM     18  O   UNL     1       4.985  -0.836   0.862  0.00  0.00    -0.291 OA
ATOM     19  C   UNL     1       3.786  -0.590   0.784  0.00  0.00    +0.186 C 
ENDBRANCH  13  19
ENDBRANCH  12  13
ENDBRANCH   7  12
TORSDOF 4
