REMARK  Name = 62452
REMARK  9 active torsions:
REMARK  status: ('A' for Active; 'I' for Inactive)
REMARK    1  A    between atoms: C_1  and  C_2
REMARK    2  A    between atoms: C_1  and  C_8
REMARK    3  A    between atoms: C_2  and  C_3
REMARK    4  A    between atoms: C_3  and  N_5
REMARK    5  A    between atoms: C_8  and  C_9
REMARK    6  A    between atoms: C_9  and  C_10
REMARK    7  A    between atoms: C_10  and  C_11
REMARK    8  A    between atoms: C_11  and  C_12
REMARK    9  A    between atoms: C_12  and  C_13
REMARK                            x       y       z     vdW  Elec       q    Type
REMARK                         _______ _______ _______ _____ _____    ______ ____
ROOT
ATOM      1  C   UNL     1       1.089   0.646   0.044  0.00  0.00    -0.002 C 
ENDROOT
BRANCH   1   2
ATOM      2  C   UNL     1       2.386  -0.168   0.017  0.00  0.00    -0.017 C 
BRANCH   2   3
ATOM      3  C   UNL     1       3.628   0.707   0.108  0.00  0.00    -0.028 C 
BRANCH   3   5
ATOM      4  O   UNL     1       4.903  -0.744  -1.220  0.00  0.00    -0.290 OA
ATOM      5  N   UNL     1       4.872  -0.091  -0.007  0.00  0.00    +0.428 N 
ATOM      6  C   UNL     1       4.940  -1.120   1.093  0.00  0.00    -0.045 C 
ATOM      7  C   UNL     1       6.082   0.805   0.085  0.00  0.00    -0.045 C 
ENDBRANCH   3   5
ENDBRANCH   2   3
ENDBRANCH   1   2
BRANCH   1   8
ATOM      8  C   UNL     1      -0.171  -0.214  -0.111  0.00  0.00    -0.000 C 
BRANCH   8   9
ATOM      9  C   UNL     1      -1.471   0.587  -0.013  0.00  0.00    -0.000 C 
BRANCH   9  10
ATOM     10  C   UNL     1      -2.694  -0.331  -0.100  0.00  0.00    -0.000 C 
BRANCH  10  11
ATOM     11  C   UNL     1      -3.994   0.464   0.037  0.00  0.00    +0.000 C 
BRANCH  11  12
ATOM     12  C   UNL     1      -5.253  -0.402  -0.073  0.00  0.00    +0.000 C 
BRANCH  12  13
ATOM     13  C   UNL     1      -6.550   0.381   0.136  0.00  0.00    +0.000 C 
ATOM     14  C   UNL     1      -7.768  -0.520   0.004  0.00  0.00    +0.000 C 
ENDBRANCH  12  13
ENDBRANCH  11  12
ENDBRANCH  10  11
ENDBRANCH   9  10
ENDBRANCH   8   9
ENDBRANCH   1   8
TORSDOF 9
