REMARK  Name = 447339
REMARK  6 active torsions:
REMARK  status: ('A' for Active; 'I' for Inactive)
REMARK    1  A    between atoms: C_2  and  C_19
REMARK    2  A    between atoms: C_3  and  C_8
REMARK    3  A    between atoms: C_10  and  N_11
REMARK    4  A    between atoms: N_11  and  C_14
REMARK    5  A    between atoms: C_19  and  N_20
REMARK    6  A    between atoms: N_20  and  C_23
REMARK                            x       y       z     vdW  Elec       q    Type
REMARK                         _______ _______ _______ _____ _____    ______ ____
ROOT
ATOM      1  S   UNL     1       1.129   0.821   1.452  0.00  0.00    -0.088 S 
ATOM      2  C   UNL     1      -0.390   1.444   1.010  0.00  0.00    +0.023 C 
ATOM      3  C   UNL     1       1.765   1.182  -0.096  0.00  0.00    +0.056 C 
ATOM      4  C   UNL     1      -0.433   1.917  -0.267  0.00  0.00    +0.004 C 
ATOM      5  C   UNL     1       0.825   1.765  -0.917  0.00  0.00    +0.009 C 
ENDROOT
BRANCH   3   8
ATOM      6  S   UNL     1       5.293   0.733  -1.847  0.00  0.00    -0.055 S 
ATOM      7  N   UNL     1       4.052   0.311   0.381  0.00  0.00    -0.380 NA
ATOM      8  C   UNL     1       3.158   0.899  -0.492  0.00  0.00    +0.129 C 
ATOM      9  C   UNL     1       3.646   1.200  -1.745  0.00  0.00    +0.125 C 
ATOM     10  C   UNL     1       5.210   0.176  -0.226  0.00  0.00    +0.244 C 
BRANCH  10  11
ATOM     11  N   UNL     1       6.332  -0.362   0.316  0.00  0.00    -0.178 NA
BRANCH  11  14
ATOM     12  N   UNL     1       7.570  -2.413   0.643  0.00  0.00    -0.370 N 
ATOM     13  N   UNL     1       5.590  -2.422  -0.489  0.00  0.00    -0.370 N 
ATOM     14  C   UNL     1       6.514  -1.655   0.181  0.00  0.00    +0.196 C 
ATOM     15  H   UNL     1       8.303  -1.985   1.142  0.00  0.00    +0.159 HD
ATOM     16  H   UNL     1       7.590  -3.383   0.476  0.00  0.00    +0.159 HD
ATOM     17  H   UNL     1       4.786  -2.002  -0.871  0.00  0.00    +0.159 HD
ATOM     18  H   UNL     1       5.733  -3.391  -0.587  0.00  0.00    +0.159 HD
ENDBRANCH  11  14
ENDBRANCH  10  11
ENDBRANCH   3   8
BRANCH   2  19
ATOM     19  C   UNL     1      -1.503   1.423   2.020  0.00  0.00    +0.105 C 
BRANCH  19  20
ATOM     20  N   UNL     1      -2.257   0.185   1.920  0.00  0.00    -0.262 NA
ATOM     21  H   UNL     1      -1.975  -0.570   2.485  0.00  0.00    +0.127 HD
BRANCH  20  24
ATOM     22  N   UNL     1      -3.935  -1.222   1.114  0.00  0.00    -0.305 N 
ATOM     23  N   UNL     1      -3.889   0.832   0.264  0.00  0.00    -0.305 N 
ATOM     24  C   UNL     1      -3.319  -0.001   1.106  0.00  0.00    +0.208 C 
ATOM     25  C   UNL     1      -4.971  -1.173   0.218  0.00  0.00    +0.060 C 
ATOM     26  C   UNL     1      -4.922   0.118  -0.299  0.00  0.00    +0.060 C 
ATOM     27  C   UNL     1      -5.919  -2.120  -0.174  0.00  0.00    +0.016 C 
ATOM     28  C   UNL     1      -5.867   0.506  -1.265  0.00  0.00    +0.016 C 
ATOM     29  C   UNL     1      -6.851  -1.717  -1.135  0.00  0.00    +0.001 C 
ATOM     30  C   UNL     1      -6.827  -0.427  -1.672  0.00  0.00    +0.001 C 
ATOM     31  H   UNL     1      -3.680  -1.997   1.665  0.00  0.00    +0.150 HD
ATOM     32  H   UNL     1      -3.633   1.764   0.078  0.00  0.00    +0.150 HD
ENDBRANCH  20  24
ENDBRANCH  19  20
ENDBRANCH   2  19
TORSDOF 6
