REMARK  Name = 84704
REMARK  15 active torsions:
REMARK  status: ('A' for Active; 'I' for Inactive)
REMARK    1  A    between atoms: C_1  and  N_2
REMARK    2  A    between atoms: C_1  and  C_12
REMARK    3  A    between atoms: N_2  and  C_5
REMARK    4  A    between atoms: C_5  and  C_6
REMARK    5  A    between atoms: C_6  and  C_7
REMARK    6  A    between atoms: C_7  and  S_8
REMARK    7  A    between atoms: C_12  and  C_13
REMARK    8  A    between atoms: C_13  and  C_14
REMARK    9  A    between atoms: C_14  and  C_15
REMARK   10  A    between atoms: C_15  and  C_16
REMARK   11  A    between atoms: C_16  and  C_17
REMARK   12  A    between atoms: C_17  and  C_18
REMARK   13  A    between atoms: C_18  and  C_19
REMARK   14  A    between atoms: C_19  and  C_20
REMARK   15  A    between atoms: C_20  and  C_21
REMARK                            x       y       z     vdW  Elec       q    Type
REMARK                         _______ _______ _______ _____ _____    ______ ____
ROOT
ATOM      1  C   UNL     1       3.722   1.079   0.620  0.00  0.00    -0.073 C 
ENDROOT
BRANCH   1   2
ATOM      2  N   UNL     1       4.420  -0.157   0.198  0.00  0.00    +0.387 N 
ATOM      3  C   UNL     1       5.714   0.175  -0.559  0.00  0.00    -0.096 C 
ATOM      4  C   UNL     1       4.789  -1.020   1.415  0.00  0.00    -0.096 C 
BRANCH   2   5
ATOM      5  C   UNL     1       3.530  -1.000  -0.728  0.00  0.00    -0.071 C 
BRANCH   5   6
ATOM      6  C   UNL     1       2.293  -1.486   0.013  0.00  0.00    +0.004 C 
BRANCH   6   7
ATOM      7  C   UNL     1       1.359  -2.320  -0.854  0.00  0.00    +0.156 C 
BRANCH   7   8
ATOM      8  S   UNL     1      -0.041  -2.878   0.067  0.00  0.00    +0.022 S 
ATOM      9  O   UNL     1      -0.870  -3.523  -1.180  0.00  0.00    -0.069 OA
ATOM     10  O   UNL     1      -0.767  -1.724   0.564  0.00  0.00    -0.069 OA
ATOM     11  O   UNL     1       0.379  -3.950   0.951  0.00  0.00    -0.069 OA
ENDBRANCH   7   8
ENDBRANCH   6   7
ENDBRANCH   5   6
ENDBRANCH   2   5
ENDBRANCH   1   2
BRANCH   1  12
ATOM     12  C   UNL     1       3.352   1.927  -0.590  0.00  0.00    -0.022 C 
BRANCH  12  13
ATOM     13  C   UNL     1       2.668   3.265  -0.283  0.00  0.00    -0.002 C 
BRANCH  13  14
ATOM     14  C   UNL     1       1.312   3.174   0.424  0.00  0.00    -0.000 C 
BRANCH  14  15
ATOM     15  C   UNL     1       0.238   2.468  -0.408  0.00  0.00    -0.000 C 
BRANCH  15  16
ATOM     16  C   UNL     1      -1.066   2.325   0.382  0.00  0.00    -0.000 C 
BRANCH  16  17
ATOM     17  C   UNL     1      -2.171   1.601  -0.392  0.00  0.00    +0.000 C 
BRANCH  17  18
ATOM     18  C   UNL     1      -3.481   1.480   0.388  0.00  0.00    +0.000 C 
BRANCH  18  19
ATOM     19  C   UNL     1      -4.525   0.686  -0.401  0.00  0.00    +0.000 C 
BRANCH  19  20
ATOM     20  C   UNL     1      -5.823   0.531   0.392  0.00  0.00    +0.000 C 
BRANCH  20  21
ATOM     21  C   UNL     1      -6.877  -0.234  -0.409  0.00  0.00    +0.000 C 
ATOM     22  C   UNL     1      -8.157  -0.419   0.390  0.00  0.00    +0.000 C 
ENDBRANCH  20  21
ENDBRANCH  19  20
ENDBRANCH  18  19
ENDBRANCH  17  18
ENDBRANCH  16  17
ENDBRANCH  15  16
ENDBRANCH  14  15
ENDBRANCH  13  14
ENDBRANCH  12  13
ENDBRANCH   1  12
TORSDOF 15
