REMARK  Name = 5111
REMARK  7 active torsions:
REMARK  status: ('A' for Active; 'I' for Inactive)
REMARK    1  A    between atoms: S_1  and  C_5
REMARK    2  A    between atoms: S_1  and  C_17
REMARK    3  A    between atoms: C_5  and  C_10
REMARK    4  A    between atoms: C_10  and  C_13
REMARK    5  A    between atoms: N_12  and  O_15
REMARK    6  A    between atoms: C_22  and  O_23
REMARK    7  A    between atoms: O_23  and  C_25
REMARK                            x       y       z     vdW  Elec       q    Type
REMARK                         _______ _______ _______ _____ _____    ______ ____
ROOT
ATOM      1  S   UNL     1       2.421  -1.511  -0.931  0.00  0.00    +0.006 S 
ATOM      2  O   UNL     1       3.165  -2.488  -0.173  0.00  0.00    -0.169 OA
ATOM      3  O   UNL     1       2.501  -1.453  -2.371  0.00  0.00    -0.169 OA
ENDROOT
BRANCH   1   5
ATOM      4  O   UNL     1       5.035  -0.135   1.619  0.00  0.00    -0.354 OA
ATOM      5  C   UNL     1       2.888   0.115  -0.324  0.00  0.00    +0.128 C 
ATOM      6  C   UNL     1       4.364   0.393  -0.657  0.00  0.00    +0.055 C 
ATOM      7  C   UNL     1       2.664   0.189   1.196  0.00  0.00    +0.055 C 
ATOM      8  C   UNL     1       5.322  -0.381   0.244  0.00  0.00    +0.144 C 
ATOM      9  C   UNL     1       3.728  -0.572   1.981  0.00  0.00    +0.144 C 
BRANCH   5  10
ATOM     10  C   UNL     1       1.990   1.139  -1.034  0.00  0.00    +0.110 C 
BRANCH  10  13
ATOM     11  O   UNL     1       3.126   3.271  -1.178  0.00  0.00    -0.273 OA
ATOM     12  N   UNL     1       1.550   2.923   0.475  0.00  0.00    -0.197 N 
ATOM     13  C   UNL     1       2.305   2.554  -0.612  0.00  0.00    +0.246 C 
ATOM     14  H   UNL     1       0.903   2.311   0.895  0.00  0.00    +0.182 HD
BRANCH  12  15
ATOM     15  O   UNL     1       1.758   4.225   0.948  0.00  0.00    -0.295 OA
ATOM     16  H   UNL     1       1.183   4.388   1.712  0.00  0.00    +0.241 HD
ENDBRANCH  12  15
ENDBRANCH  10  13
ENDBRANCH   5  10
ENDBRANCH   1   5
BRANCH   1  17
ATOM     17  C   UNL     1       0.729  -1.640  -0.462  0.00  0.00    +0.106 C 
ATOM     18  C   UNL     1      -0.256  -1.202  -1.334  0.00  0.00    +0.021 C 
ATOM     19  C   UNL     1       0.402  -2.177   0.775  0.00  0.00    +0.021 C 
ATOM     20  C   UNL     1      -1.597  -1.303  -0.963  0.00  0.00    +0.039 C 
ATOM     21  C   UNL     1      -0.938  -2.279   1.147  0.00  0.00    +0.039 C 
ATOM     22  C   UNL     1      -1.938  -1.842   0.278  0.00  0.00    +0.145 C 
BRANCH  22  23
ATOM     23  O   UNL     1      -3.246  -1.942   0.640  0.00  0.00    -0.453 OA
BRANCH  23  25
ATOM     24 CL   UNL     1      -6.715   2.693  -0.338  0.00  0.00    -0.082 Cl
ATOM     25  C   UNL     1      -4.064  -0.848   0.408  0.00  0.00    +0.145 C 
ATOM     26  C   UNL     1      -3.608   0.415   0.737  0.00  0.00    +0.038 C 
ATOM     27  C   UNL     1      -5.315  -1.049  -0.145  0.00  0.00    +0.038 C 
ATOM     28  C   UNL     1      -4.432   1.516   0.505  0.00  0.00    +0.015 C 
ATOM     29  C   UNL     1      -6.140   0.052  -0.377  0.00  0.00    +0.015 C 
ATOM     30  C   UNL     1      -5.698   1.335  -0.052  0.00  0.00    +0.058 C 
ENDBRANCH  23  25
ENDBRANCH  22  23
ENDBRANCH   1  17
TORSDOF 7
