REMARK  Name = 1491
REMARK  4 active torsions:
REMARK  status: ('A' for Active; 'I' for Inactive)
REMARK    1  A    between atoms: C_1  and  C_12
REMARK    2  A    between atoms: C_2  and  O_7
REMARK    3  A    between atoms: C_5  and  O_9
REMARK    4  A    between atoms: C_12  and  O_13
REMARK                            x       y       z     vdW  Elec       q    Type
REMARK                         _______ _______ _______ _____ _____    ______ ____
ROOT
ATOM      1  C   UNL     1       0.626   0.207   0.031  0.00  0.00    +0.109 C 
ATOM      2  C   UNL     1      -0.035  -1.016  -0.084  0.00  0.00    +0.143 C 
ATOM      3  C   UNL     1      -0.107   1.389   0.137  0.00  0.00    +0.013 C 
ATOM      4  C   UNL     1      -1.429  -1.057  -0.092  0.00  0.00    +0.073 C 
ATOM      5  C   UNL     1      -2.162   0.125   0.014  0.00  0.00    +0.137 C 
ATOM      6  C   UNL     1      -1.501   1.348   0.129  0.00  0.00    +0.037 C 
ENDROOT
BRANCH   2   7
ATOM      7  O   UNL     1       0.664  -2.182  -0.185  0.00  0.00    -0.505 OA
ATOM      8  H   UNL     1       1.601  -2.168  -0.181  0.00  0.00    +0.292 HD
ENDBRANCH   2   7
BRANCH   5   9
ATOM      9  O   UNL     1      -3.522   0.085   0.004  0.00  0.00    -0.505 OA
ATOM     10  H   UNL     1      -3.966  -0.737  -0.072  0.00  0.00    +0.292 HD
ENDBRANCH   5   9
BRANCH   1  12
ATOM     11  O   UNL     1       2.831  -0.609   0.473  0.00  0.00    -0.245 OA
ATOM     12  C   UNL     1       2.081   0.273   0.046  0.00  0.00    +0.341 C 
BRANCH  12  13
ATOM     13  O   UNL     1       2.553   1.438  -0.475  0.00  0.00    -0.477 OA
ATOM     14  H   UNL     1       1.955   2.086  -0.790  0.00  0.00    +0.295 HD
ENDBRANCH  12  13
ENDBRANCH   1  12
TORSDOF 4
