REMARK  Name = 1048
REMARK  0 active torsions:
REMARK  status: ('A' for Active; 'I' for Inactive)
REMARK                            x       y       z     vdW  Elec       q    Type
REMARK                         _______ _______ _______ _____ _____    ______ ____
ROOT
ATOM      1  N   UNL     1       0.307   1.061   0.000  0.00  0.00    -0.235 N 
ATOM      2  N   UNL     1       1.200   0.057   0.000  0.00  0.00    -0.180 NA
ATOM      3  C   UNL     1      -0.992   0.644   0.000  0.00  0.00    +0.081 C 
ATOM      4  C   UNL     1      -0.945  -0.728   0.000  0.00  0.00    +0.040 C 
ATOM      5  C   UNL     1       0.429  -1.034   0.000  0.00  0.00    +0.119 C 
ATOM      6  H   UNL     1       0.567   2.011   0.000  0.00  0.00    +0.174 HD
ENDROOT
TORSDOF 0
