1048
  -OEChem-10051720013D

  9  9  0     0  0  0  0  0  0999 V2000
    0.3072    1.0613   -0.0001 N   0  0  0  0  0  0  0  0  0  0  0  0
    1.2001    0.0569    0.0000 N   0  0  0  0  0  0  0  0  0  0  0  0
   -0.9915    0.6443    0.0001 C   0  0  0  0  0  0  0  0  0  0  0  0
   -0.9450   -0.7284   -0.0001 C   0  0  0  0  0  0  0  0  0  0  0  0
    0.4293   -1.0340    0.0001 C   0  0  0  0  0  0  0  0  0  0  0  0
   -1.8132    1.3459    0.0001 H   0  0  0  0  0  0  0  0  0  0  0  0
   -1.7844   -1.4079   -0.0001 H   0  0  0  0  0  0  0  0  0  0  0  0
    0.6547    2.0122   -0.0001 H   0  0  0  0  0  0  0  0  0  0  0  0
    0.9010   -2.0062    0.0001 H   0  0  0  0  0  0  0  0  0  0  0  0
  1  2  1  0  0  0  0
  1  3  1  0  0  0  0
  1  8  1  0  0  0  0
  2  5  2  0  0  0  0
  3  4  2  0  0  0  0
  3  6  1  0  0  0  0
  4  5  1  0  0  0  0
  4  7  1  0  0  0  0
  5  9  1  0  0  0  0
M  END
> <DATABASE_ID>
DB02757

> <DATABASE_NAME>
drugbank

> <ORIGINAL_SOURCE>
PUBCHEM

> <ORIGINAL_SOURCE_URL>
https://pubchem.ncbi.nlm.nih.gov/rest/pug/compound/inchikey/WTKZEGDFNFYCGP-UHFFFAOYSA-N/SDF?record_type=3d

> <SMILES>
N1C=CC=N1

> <INCHI_IDENTIFIER>
InChI=1S/C3H4N2/c1-2-4-5-3-1/h1-3H,(H,4,5)

> <INCHI_KEY>
WTKZEGDFNFYCGP-UHFFFAOYSA-N

> <FORMULA>
C3H4N2

> <MOLECULAR_WEIGHT>
68.0773

> <EXACT_MASS>
68.037448138

> <JCHEM_ACCEPTOR_COUNT>
1

> <JCHEM_AVERAGE_POLARIZABILITY>
6.529025847093586

> <JCHEM_BIOAVAILABILITY>
1

> <JCHEM_DONOR_COUNT>
1

> <JCHEM_FORMAL_CHARGE>
0

> <JCHEM_GHOSE_FILTER>
0

> <JCHEM_IUPAC>
1H-pyrazole

> <ALOGPS_LOGP>
0.03

> <JCHEM_LOGP>
0.277429808

> <ALOGPS_LOGS>
0.85

> <JCHEM_MDDR_LIKE_RULE>
0

> <JCHEM_NUMBER_OF_RINGS>
1

> <JCHEM_PHYSIOLOGICAL_CHARGE>
0

> <JCHEM_PKA_STRONGEST_ACIDIC>
14.62622177034995

> <JCHEM_PKA_STRONGEST_BASIC>
2.1688885618093927

> <JCHEM_POLAR_SURFACE_AREA>
28.68

> <JCHEM_REFRACTIVITY>
19.7454

> <JCHEM_ROTATABLE_BOND_COUNT>
0

> <JCHEM_RULE_OF_FIVE>
1

> <ALOGPS_SOLUBILITY>
4.84e+02 g/l

> <JCHEM_TRADITIONAL_IUPAC>
pyrazole

> <JCHEM_VEBER_RULE>
1

> <DRUGBANK_ID>
DB02757

> <SECONDARY_ACCESSION_NUMBERS>
EXPT02727

> <DRUG_GROUPS>
experimental

> <GENERIC_NAME>
Pyrazole

> <SYNONYMS>
1,2-Diazole; 1H-Pyrazol; 1H-pyrazole

$$$$
