REMARK  Name = 444617
REMARK  5 active torsions:
REMARK  status: ('A' for Active; 'I' for Inactive)
REMARK    1  A    between atoms: C_5  and  N_17
REMARK    2  A    between atoms: N_17  and  C_19
REMARK    3  A    between atoms: C_19  and  C_20
REMARK    4  A    between atoms: C_21  and  O_26
REMARK    5  A    between atoms: C_23  and  O_28
REMARK                            x       y       z     vdW  Elec       q    Type
REMARK                         _______ _______ _______ _____ _____    ______ ____
ROOT
ATOM      1  N   UNL     1      -2.370   2.146   0.363  0.00  0.00    -0.180 NA
ATOM      2  N   UNL     1      -3.994   0.894  -0.713  0.00  0.00    -0.273 NA
ATOM      3  N   UNL     1      -3.839  -1.504  -0.866  0.00  0.00    -0.312 NA
ATOM      4  N   UNL     1      -5.649  -0.358  -1.810  0.00  0.00    -0.283 N 
ATOM      5  C   UNL     1      -0.450   1.088   1.377  0.00  0.00    +0.069 C 
ATOM      6  C   UNL     1      -0.931  -0.144   0.971  0.00  0.00    +0.031 C 
ATOM      7  C   UNL     1      -2.137  -0.216   0.259  0.00  0.00    +0.121 C 
ATOM      8  C   UNL     1      -1.203   2.196   1.050  0.00  0.00    +0.125 C 
ATOM      9  C   UNL     1      -2.843   0.956  -0.034  0.00  0.00    +0.105 C 
ATOM     10  C   UNL     1      -2.685  -1.418  -0.183  0.00  0.00    +0.201 C 
ATOM     11  C   UNL     1      -4.433  -0.324  -1.093  0.00  0.00    +0.206 C 
ATOM     12  H   UNL     1      -6.129   0.479  -2.005  0.00  0.00    +0.156 HD
ATOM     13  H   UNL     1      -6.017  -1.219  -2.114  0.00  0.00    +0.156 HD
ATOM     14  N   UNL     1      -2.010  -2.634   0.090  0.00  0.00    -0.332 N 
ATOM     15  H   UNL     1      -2.390  -3.488  -0.219  0.00  0.00    +0.145 HD
ATOM     16  H   UNL     1      -1.161  -2.624   0.588  0.00  0.00    +0.145 HD
ENDROOT
BRANCH   5  17
ATOM     17  N   UNL     1       0.753   1.207   2.088  0.00  0.00    -0.300 N 
ATOM     18  C   UNL     1       1.038   2.397   2.872  0.00  0.00    +0.113 C 
BRANCH  17  19
ATOM     19  C   UNL     1       1.736   0.135   2.067  0.00  0.00    +0.121 C 
BRANCH  19  20
ATOM     20  C   UNL     1       2.262  -0.128   0.684  0.00  0.00    +0.035 C 
ATOM     21  C   UNL     1       2.388  -1.431   0.216  0.00  0.00    +0.137 C 
ATOM     22  C   UNL     1       2.621   0.951  -0.116  0.00  0.00    +0.037 C 
ATOM     23  C   UNL     1       3.111   0.724  -1.401  0.00  0.00    +0.139 C 
ATOM     24  C   UNL     1       2.878  -1.657  -1.070  0.00  0.00    +0.040 C 
ATOM     25  C   UNL     1       3.240  -0.580  -1.879  0.00  0.00    +0.040 C 
BRANCH  21  26
ATOM     26  O   UNL     1       2.040  -2.494   0.993  0.00  0.00    -0.472 OA
ATOM     27  C   UNL     1       3.058  -3.052   1.822  0.00  0.00    +0.252 C 
ENDBRANCH  21  26
BRANCH  23  28
ATOM     28  O   UNL     1       3.463   1.775  -2.191  0.00  0.00    -0.471 OA
ATOM     29  C   UNL     1       3.956   1.471  -3.495  0.00  0.00    +0.252 C 
ENDBRANCH  23  28
ENDBRANCH  19  20
ENDBRANCH  17  19
ENDBRANCH   5  17
TORSDOF 5
