REMARK  Name = 1483
REMARK  1 active torsions:
REMARK  status: ('A' for Active; 'I' for Inactive)
REMARK    1  A    between atoms: C_4  and  O_10
REMARK                            x       y       z     vdW  Elec       q    Type
REMARK                         _______ _______ _______ _____ _____    ______ ____
ROOT
ATOM      1 BR   UNL     1       1.339  -2.872   0.000  0.00  0.00    -0.046 Br
ATOM      2 BR   UNL     1       1.338   2.872   0.000  0.00  0.00    -0.046 Br
ATOM      3 BR   UNL     1      -3.554   0.000  -0.001  0.00  0.00    -0.049 Br
ATOM      4  C   UNL     1       1.126   0.000   0.000  0.00  0.00    +0.146 C 
ATOM      5  C   UNL     1       0.428  -1.208   0.000  0.00  0.00    +0.069 C 
ATOM      6  C   UNL     1       0.428   1.208   0.000  0.00  0.00    +0.069 C 
ATOM      7  C   UNL     1      -0.966  -1.208   0.000  0.00  0.00    +0.016 C 
ATOM      8  C   UNL     1      -0.966   1.208   0.000  0.00  0.00    +0.016 C 
ATOM      9  C   UNL     1      -1.664   0.000   0.000  0.00  0.00    +0.036 C 
ENDROOT
BRANCH   4  10
ATOM     10  O   UNL     1       2.491   0.000   0.000  0.00  0.00    -0.505 OA
ATOM     11  H   UNL     1       2.960  -0.811   0.000  0.00  0.00    +0.292 HD
ENDBRANCH   4  10
TORSDOF 1
