REMARK  Name = 101643283
REMARK  9 active torsions:
REMARK  status: ('A' for Active; 'I' for Inactive)
REMARK    1  A    between atoms: N_1  and  C_27
REMARK    2  A    between atoms: N_2  and  C_13
REMARK    3  A    between atoms: C_3  and  C_17
REMARK    4  A    between atoms: C_12  and  N_23
REMARK    5  A    between atoms: C_27  and  C_28
REMARK    6  A    between atoms: C_28  and  C_29
REMARK    7  A    between atoms: C_29  and  N_30
REMARK    8  A    between atoms: N_30  and  C_32
REMARK    9  A    between atoms: N_30  and  C_34
REMARK                            x       y       z     vdW  Elec       q    Type
REMARK                         _______ _______ _______ _____ _____    ______ ____
ROOT
ATOM      1  N   UNL     1      -0.168  -0.288   0.603  0.00  0.00    -0.287 N 
ATOM      2  C   UNL     1      -1.175   0.657   0.305  0.00  0.00    +0.052 C 
ATOM      3  C   UNL     1      -0.472  -1.672   0.554  0.00  0.00    +0.049 C 
ATOM      4  C   UNL     1      -2.398   0.300  -0.169  0.00  0.00    +0.015 C 
ATOM      5  C   UNL     1      -1.769  -2.096  -0.049  0.00  0.00    -0.004 C 
ATOM      6  C   UNL     1      -2.686  -1.151  -0.404  0.00  0.00    -0.001 C 
ATOM      7  C   UNL     1       0.345  -2.635   1.038  0.00  0.00    +0.030 C 
ATOM      8  C   UNL     1      -3.466   1.276  -0.459  0.00  0.00    +0.014 C 
ATOM      9  C   UNL     1      -2.010  -3.530  -0.246  0.00  0.00    +0.055 C 
ATOM     10  C   UNL     1      -3.995  -1.474  -1.007  0.00  0.00    +0.001 C 
ATOM     11  C   UNL     1      -4.637   0.873  -0.981  0.00  0.00    +0.026 C 
ATOM     12  C   UNL     1       0.040  -4.088   0.950  0.00  0.00    +0.058 C 
ATOM     13  C   UNL     1      -4.900  -0.517  -1.274  0.00  0.00    +0.013 C 
ATOM     14  C   UNL     1      -1.184  -4.472   0.221  0.00  0.00    -0.006 C 
ENDROOT
BRANCH   2  15
ATOM     15  C   UNL     1      -0.873   2.088   0.554  0.00  0.00    +0.014 C 
ATOM     16  C   UNL     1      -1.137   2.649   1.804  0.00  0.00    +0.001 C 
ATOM     17  C   UNL     1      -0.326   2.873  -0.460  0.00  0.00    +0.001 C 
ATOM     18  C   UNL     1      -0.853   3.994   2.039  0.00  0.00    +0.000 C 
ATOM     19  C   UNL     1      -0.042   4.218  -0.226  0.00  0.00    +0.000 C 
ATOM     20  C   UNL     1      -0.306   4.779   1.024  0.00  0.00    +0.000 C 
ENDBRANCH   2  15
BRANCH  11  21
ATOM     21  N   UNL     1      -5.627   1.852  -1.239  0.00  0.00    -0.416 NA
ATOM     22  H   UNL     1      -5.446   2.799  -1.039  0.00  0.00    +0.121 HD
ATOM     23  H   UNL     1      -6.495   1.586  -1.619  0.00  0.00    +0.121 HD
ATOM     24  H   UNL     1      -6.197   1.815  -0.438  0.00  0.00    +0.121 HD
ENDBRANCH  11  21
BRANCH  12  25
ATOM     25  N   UNL     1       0.806  -4.997   1.464  0.00  0.00    -0.266 NA
ATOM     26  H   UNL     1       1.622  -4.735   1.949  0.00  0.00    +0.170 HD
ENDBRANCH  12  25
BRANCH   1  27
ATOM     27  C   UNL     1       1.183   0.143   1.019  0.00  0.00    +0.093 C 
BRANCH  27  28
ATOM     28  C   UNL     1       2.185  -0.029  -0.119  0.00  0.00    -0.000 C 
BRANCH  28  29
ATOM     29  C   UNL     1       3.591   0.405   0.278  0.00  0.00    -0.071 C 
BRANCH  29  30
ATOM     30  N   UNL     1       4.492   0.254  -0.891  0.00  0.00    +0.389 N 
ATOM     31  C   UNL     1       4.036   1.150  -2.051  0.00  0.00    -0.096 C 
BRANCH  30  32
ATOM     32  C   UNL     1       4.504  -1.199  -1.387  0.00  0.00    -0.073 C 
ATOM     33  C   UNL     1       4.951  -2.106  -0.261  0.00  0.00    -0.024 C 
ENDBRANCH  30  32
BRANCH  30  34
ATOM     34  C   UNL     1       5.931   0.644  -0.524  0.00  0.00    -0.073 C 
ATOM     35  C   UNL     1       5.962   2.099  -0.107  0.00  0.00    -0.024 C 
ENDBRANCH  30  34
ENDBRANCH  29  30
ENDBRANCH  28  29
ENDBRANCH  27  28
ENDBRANCH   1  27
TORSDOF 9
