REMARK  Name = 17754203
REMARK  4 active torsions:
REMARK  status: ('A' for Active; 'I' for Inactive)
REMARK    1  A    between atoms: C_3  and  C_23
REMARK    2  A    between atoms: C_9  and  N_15
REMARK    3  A    between atoms: C_10  and  N_19
REMARK    4  A    between atoms: C_23  and  N_24
REMARK                            x       y       z     vdW  Elec       q    Type
REMARK                         _______ _______ _______ _____ _____    ______ ____
ROOT
ATOM      1  N   UNL     1      -4.285   1.525   0.250  0.00  0.00    +0.363 N 
ATOM      2  N   UNL     1      -4.790  -0.848   0.138  0.00  0.00    +0.351 N 
ATOM      3  C   UNL     1      -0.358  -0.167  -0.460  0.00  0.00    -0.021 C 
ATOM      4  C   UNL     1      -2.842   0.009  -1.095  0.00  0.00    -0.059 C 
ATOM      5  C   UNL     1      -1.397  -0.208  -1.588  0.00  0.00    -0.008 C 
ATOM      6  C   UNL     1      -2.923   1.312  -0.264  0.00  0.00    -0.071 C 
ATOM      7  C   UNL     1      -0.463   1.147   0.322  0.00  0.00    -0.004 C 
ATOM      8  C   UNL     1      -1.875   1.372   0.860  0.00  0.00    -0.022 C 
ATOM      9  C   UNL     1      -3.431  -1.184  -0.301  0.00  0.00    -0.142 C 
ATOM     10  C   UNL     1      -4.804   0.357   0.968  0.00  0.00    -0.214 C 
ATOM     11  H   UNL     1      -4.903   1.727  -0.536  0.00  0.00    -0.090 HD
ATOM     12  H   UNL     1      -4.249   2.302   0.910  0.00  0.00    -0.090 HD
ATOM     13  H   UNL     1      -5.166  -1.627   0.678  0.00  0.00    -0.093 HD
ATOM     14  H   UNL     1      -5.359  -0.671  -0.690  0.00  0.00    -0.093 HD
ENDROOT
BRANCH   9  15
ATOM     15  N   UNL     1      -3.483  -2.390  -1.124  0.00  0.00    +0.370 N 
ATOM     16  H   UNL     1      -3.874  -3.158  -0.578  0.00  0.00    -0.092 HD
ATOM     17  H   UNL     1      -2.541  -2.635  -1.429  0.00  0.00    -0.092 HD
ATOM     18  H   UNL     1      -4.071  -2.220  -1.940  0.00  0.00    -0.092 HD
ENDBRANCH   9  15
BRANCH  10  19
ATOM     19  N   UNL     1      -6.182   0.629   1.373  0.00  0.00    +0.359 N 
ATOM     20  H   UNL     1      -6.206   1.467   1.953  0.00  0.00    -0.095 HD
ATOM     21  H   UNL     1      -6.542  -0.163   1.905  0.00  0.00    -0.095 HD
ATOM     22  H   UNL     1      -6.758   0.772   0.544  0.00  0.00    -0.095 HD
ENDBRANCH  10  19
BRANCH   3  23
ATOM     23  C   UNL     1       1.052  -0.343  -1.023  0.00  0.00    -0.077 C 
BRANCH  23  24
ATOM     24  N   UNL     1       2.008  -0.364   0.075  0.00  0.00    +0.388 N 
ATOM     25  C   UNL     1       3.385  -0.094  -0.344  0.00  0.00    -0.058 C 
ATOM     26  C   UNL     1       4.133  -0.488   0.926  0.00  0.00    -0.021 C 
ATOM     27  C   UNL     1       3.491  -1.818   1.279  0.00  0.00    -0.025 C 
ATOM     28  C   UNL     1       2.059  -1.679   0.743  0.00  0.00    -0.077 C 
ATOM     29  C   UNL     1       3.741   1.340  -0.723  0.00  0.00    -0.021 C 
ATOM     30  C   UNL     1       5.636  -0.478   0.691  0.00  0.00    -0.002 C 
ATOM     31  C   UNL     1       5.255   1.449  -0.946  0.00  0.00    -0.002 C 
ATOM     32  C   UNL     1       6.073   0.921   0.241  0.00  0.00    -0.000 C 
ATOM     33  H   UNL     1       1.671   0.370   0.698  0.00  0.00    -0.080 HD
ENDBRANCH  23  24
ENDBRANCH   3  23
TORSDOF 4
