REMARK  Name = 444914
REMARK  5 active torsions:
REMARK  status: ('A' for Active; 'I' for Inactive)
REMARK    1  A    between atoms: C_2  and  O_7
REMARK    2  A    between atoms: C_4  and  C_13
REMARK    3  A    between atoms: C_5  and  O_9
REMARK    4  A    between atoms: C_6  and  O_11
REMARK    5  A    between atoms: C_13  and  O_14
REMARK                            x       y       z     vdW  Elec       q    Type
REMARK                         _______ _______ _______ _____ _____    ______ ____
ROOT
ATOM      1  O   UNL     1      -0.892   0.755   0.621  0.00  0.00    -0.329 OA
ATOM      2  C   UNL     1       1.227  -0.943  -0.370  0.00  0.00    +0.145 C 
ATOM      3  C   UNL     1      -0.190  -1.454  -0.121  0.00  0.00    +0.064 C 
ATOM      4  C   UNL     1      -1.214  -0.328  -0.259  0.00  0.00    +0.149 C 
ATOM      5  C   UNL     1       1.500   0.287   0.497  0.00  0.00    +0.194 C 
ATOM      6  C   UNL     1       0.389   1.333   0.356  0.00  0.00    +0.262 C 
ENDROOT
BRANCH   2   7
ATOM      7  O   UNL     1       2.139  -1.987  -0.038  0.00  0.00    -0.382 OA
ATOM      8  H   UNL     1       1.959  -2.762  -0.592  0.00  0.00    +0.210 HD
ENDBRANCH   2   7
BRANCH   5   9
ATOM      9  O   UNL     1       2.745   0.881   0.148  0.00  0.00    -0.378 OA
ATOM     10  H   UNL     1       3.452   0.223   0.235  0.00  0.00    +0.211 HD
ENDBRANCH   5   9
BRANCH   6  11
ATOM     11  O   UNL     1       0.425   2.003  -0.904  0.00  0.00    -0.358 OA
ATOM     12  H   UNL     1      -0.294   2.652  -0.945  0.00  0.00    +0.213 HD
ENDBRANCH   6  11
BRANCH   4  13
ATOM     13  C   UNL     1      -2.612  -0.814   0.102  0.00  0.00    +0.167 C 
BRANCH  13  14
ATOM     14  O   UNL     1      -3.517   0.267  -0.032  0.00  0.00    -0.379 OA
ATOM     15  H   UNL     1      -4.412  -0.030   0.195  0.00  0.00    +0.211 HD
ENDBRANCH  13  14
ENDBRANCH   4  13
TORSDOF 5
