REMARK  Name = 64689
REMARK  6 active torsions:
REMARK  status: ('A' for Active; 'I' for Inactive)
REMARK    1  A    between atoms: C_2  and  O_7
REMARK    2  A    between atoms: C_3  and  O_9
REMARK    3  A    between atoms: C_4  and  C_15
REMARK    4  A    between atoms: C_5  and  O_11
REMARK    5  A    between atoms: C_6  and  O_13
REMARK    6  A    between atoms: C_15  and  O_16
REMARK                            x       y       z     vdW  Elec       q    Type
REMARK                         _______ _______ _______ _____ _____    ______ ____
ROOT
ATOM      1  O   UNL     1      -0.668   1.159   0.257  0.00  0.00    -0.326 OA
ATOM      2  C   UNL     1      -0.373  -1.247   0.230  0.00  0.00    +0.169 C 
ATOM      3  C   UNL     1       1.086  -1.071  -0.194  0.00  0.00    +0.172 C 
ATOM      4  C   UNL     1      -1.221  -0.062  -0.237  0.00  0.00    +0.176 C 
ATOM      5  C   UNL     1       1.608   0.315   0.184  0.00  0.00    +0.196 C 
ATOM      6  C   UNL     1       0.639   1.413  -0.253  0.00  0.00    +0.262 C 
ENDROOT
BRANCH   2   7
ATOM      7  O   UNL     1      -0.887  -2.448  -0.339  0.00  0.00    -0.379 OA
ATOM      8  H   UNL     1      -0.351  -3.201  -0.044  0.00  0.00    +0.211 HD
ENDBRANCH   2   7
BRANCH   3   9
ATOM      9  O   UNL     1       1.862  -2.069   0.470  0.00  0.00    -0.379 OA
ATOM     10  H   UNL     1       1.531  -2.949   0.230  0.00  0.00    +0.211 HD
ENDBRANCH   3   9
BRANCH   5  11
ATOM     11  O   UNL     1       2.861   0.541  -0.462  0.00  0.00    -0.378 OA
ATOM     12  H   UNL     1       3.491  -0.147  -0.196  0.00  0.00    +0.211 HD
ENDBRANCH   5  11
BRANCH   6  13
ATOM     13  O   UNL     1       1.122   2.655   0.257  0.00  0.00    -0.358 OA
ATOM     14  H   UNL     1       0.522   3.369  -0.008  0.00  0.00    +0.213 HD
ENDBRANCH   6  13
BRANCH   4  15
ATOM     15  C   UNL     1      -2.655  -0.158   0.274  0.00  0.00    +0.169 C 
BRANCH  15  16
ATOM     16  O   UNL     1      -3.374   0.972  -0.186  0.00  0.00    -0.379 OA
ATOM     17  H   UNL     1      -4.289   0.924   0.132  0.00  0.00    +0.211 HD
ENDBRANCH  15  16
ENDBRANCH   4  15
TORSDOF 6
