REMARK  Name = 444737
REMARK  0 active torsions:
REMARK  status: ('A' for Active; 'I' for Inactive)
REMARK                            x       y       z     vdW  Elec       q    Type
REMARK                         _______ _______ _______ _____ _____    ______ ____
ROOT
ATOM      1  I   UNL     1      -4.356  -0.279   0.000  0.00  0.00    -0.030 I 
ATOM      2  O   UNL     1       0.952   2.617   0.000  0.00  0.00    -0.208 OA
ATOM      3  N   UNL     1       0.904  -1.467  -0.001  0.00  0.00    -0.263 N 
ATOM      4  N   UNL     1      -1.554   0.947   0.000  0.00  0.00    -0.299 N 
ATOM      5  N   UNL     1      -1.516  -1.288   0.000  0.00  0.00    -0.298 N 
ATOM      6  N   UNL     1       2.120   0.626   0.000  0.00  0.00    -0.301 NA
ATOM      7  N   UNL     1       3.205  -1.452   0.001  0.00  0.00    -0.320 N 
ATOM      8  C   UNL     1      -0.236   0.590   0.000  0.00  0.00    +0.170 C 
ATOM      9  C   UNL     1      -0.252  -0.781   0.000  0.00  0.00    +0.128 C 
ATOM     10  C   UNL     1       0.957   1.392   0.000  0.00  0.00    +0.223 C 
ATOM     11  C   UNL     1       2.061  -0.690   0.000  0.00  0.00    +0.248 C 
ATOM     12  C   UNL     1      -2.284  -0.216   0.000  0.00  0.00    +0.200 C 
ATOM     13  H   UNL     1       0.932  -2.451  -0.001  0.00  0.00    +0.157 HD
ATOM     14  H   UNL     1      -1.913   1.864   0.000  0.00  0.00    +0.150 HD
ATOM     15  H   UNL     1      -1.792  -2.233   0.000  0.00  0.00    +0.150 HD
ATOM     16  H   UNL     1       3.141  -2.434   0.000  0.00  0.00    +0.146 HD
ATOM     17  H   UNL     1       4.087  -1.015   0.001  0.00  0.00    +0.146 HD
ENDROOT
TORSDOF 0
