REMARK  Name = 10972
REMARK  3 active torsions:
REMARK  status: ('A' for Active; 'I' for Inactive)
REMARK    1  A    between atoms: N_2  and  C_6
REMARK    2  A    between atoms: C_6  and  C_8
REMARK    3  A    between atoms: C_8  and  O_9
REMARK                            x       y       z     vdW  Elec       q    Type
REMARK                         _______ _______ _______ _____ _____    ______ ____
ROOT
ATOM      1  O   UNL     1       1.554   0.925   1.033  0.00  0.00    -0.275 OA
ATOM      2  N   UNL     1       0.585  -0.041  -0.850  0.00  0.00    -0.295 N 
ATOM      3  C   UNL     1       1.596   0.158   0.075  0.00  0.00    +0.223 C 
ATOM      4  C   UNL     1       2.796  -0.708  -0.198  0.00  0.00    +0.095 C 
ATOM      5  H   UNL     1       0.736  -0.686  -1.578  0.00  0.00    +0.150 HD
ENDROOT
BRANCH   2   6
ATOM      6  C   UNL     1      -0.682   0.652  -0.797  0.00  0.00    +0.200 C 
BRANCH   6   8
ATOM      7  O   UNL     1      -2.861   0.333   0.175  0.00  0.00    -0.248 OA
ATOM      8  C   UNL     1      -1.719  -0.081   0.014  0.00  0.00    +0.334 C 
BRANCH   8   9
ATOM      9  O   UNL     1      -1.268  -1.239   0.548  0.00  0.00    -0.479 OA
ATOM     10  H   UNL     1      -0.385  -1.513   0.396  0.00  0.00    +0.295 HD
ENDBRANCH   8   9
ENDBRANCH   6   8
ENDBRANCH   2   6
TORSDOF 3
