REMARK  Name = 445779
REMARK  0 active torsions:
REMARK  status: ('A' for Active; 'I' for Inactive)
REMARK                            x       y       z     vdW  Elec       q    Type
REMARK                         _______ _______ _______ _____ _____    ______ ____
ROOT
ATOM      1  N   UNL     1       0.639  -1.101   0.000  0.00  0.00    -0.340 NA
ATOM      2  N   UNL     1       1.145   1.255   0.000  0.00  0.00    -0.186 NA
ATOM      3  N   UNL     1      -1.614  -1.839   0.000  0.00  0.00    -0.332 N 
ATOM      4  C   UNL     1      -1.145   0.514   0.000  0.00  0.00    +0.042 C 
ATOM      5  C   UNL     1      -0.671  -0.782   0.000  0.00  0.00    +0.186 C 
ATOM      6  C   UNL     1       1.480  -0.049   0.000  0.00  0.00    +0.066 C 
ATOM      7  C   UNL     1      -0.182   1.502   0.000  0.00  0.00    +0.110 C 
ATOM      8  C   UNL     1      -2.590   0.861   0.000  0.00  0.00    +0.037 C 
ATOM      9  C   UNL     1       2.938  -0.362   0.000  0.00  0.00    +0.129 C 
ATOM     10  H   UNL     1      -1.305  -2.774   0.000  0.00  0.00    +0.145 HD
ATOM     11  H   UNL     1      -2.578  -1.639  -0.001  0.00  0.00    +0.145 HD
ENDROOT
TORSDOF 0
