REMARK  Name = 95014
REMARK  1 active torsions:
REMARK  status: ('A' for Active; 'I' for Inactive)
REMARK    1  A    between atoms: C_11  and  N_15
REMARK                            x       y       z     vdW  Elec       q    Type
REMARK                         _______ _______ _______ _____ _____    ______ ____
ROOT
ATOM      1  O   UNL     1      -0.705  -2.808   0.002  0.00  0.00    -0.266 OA
ATOM      2  O   UNL     1      -1.975   2.373  -0.001  0.00  0.00    -0.266 OA
ATOM      3  N   UNL     1      -2.289  -1.156   0.000  0.00  0.00    -0.263 N 
ATOM      4  N   UNL     1      -2.615   0.176  -0.001  0.00  0.00    -0.263 N 
ATOM      5  C   UNL     1       0.070  -0.590  -0.001  0.00  0.00    +0.063 A 
ATOM      6  C   UNL     1      -0.262   0.765   0.000  0.00  0.00    +0.062 A 
ATOM      7  C   UNL     1       1.414  -0.980  -0.001  0.00  0.00    +0.019 C 
ATOM      8  C   UNL     1       0.749   1.732   0.002  0.00  0.00    +0.006 C 
ATOM      9  C   UNL     1      -0.992  -1.614   0.000  0.00  0.00    +0.272 A 
ATOM     10  C   UNL     1      -1.677   1.182  -0.001  0.00  0.00    +0.272 A 
ATOM     11  C   UNL     1       2.420  -0.013   0.000  0.00  0.00    +0.042 C 
ATOM     12  C   UNL     1       2.088   1.340   0.002  0.00  0.00    +0.014 C 
ATOM     13  H   UNL     1      -3.019  -1.816   0.002  0.00  0.00    +0.190 HD
ATOM     14  H   UNL     1      -3.568   0.424  -0.003  0.00  0.00    +0.190 HD
ENDROOT
BRANCH  11  15
ATOM     15  N   UNL     1       3.775  -0.406  -0.002  0.00  0.00    -0.357 N 
ATOM     16  H   UNL     1       4.010  -1.362  -0.003  0.00  0.00    +0.142 HD
ATOM     17  H   UNL     1       4.485   0.275  -0.002  0.00  0.00    +0.142 HD
ENDBRANCH  11  15
TORSDOF 1
