REMARK  Name = 46936435
REMARK  8 active torsions:
REMARK  status: ('A' for Active; 'I' for Inactive)
REMARK    1  A    between atoms: C_2  and  O_7
REMARK    2  A    between atoms: C_3  and  C_13
REMARK    3  A    between atoms: C_4  and  O_9
REMARK    4  A    between atoms: C_6  and  O_11
REMARK    5  A    between atoms: C_13  and  O_14
REMARK    6  A    between atoms: O_14  and  P_15
REMARK    7  A    between atoms: P_15  and  O_17
REMARK    8  A    between atoms: P_15  and  O_19
REMARK                            x       y       z     vdW  Elec       q    Type
REMARK                         _______ _______ _______ _____ _____    ______ ____
ROOT
ATOM      1  O   UNL     1      -0.674   1.106  -0.107  0.00  0.00    -0.328 OA
ATOM      2  C   UNL     1      -1.527  -1.174  -0.167  0.00  0.00    +0.167 C 
ATOM      3  C   UNL     1      -0.435  -0.229   0.350  0.00  0.00    +0.177 C 
ATOM      4  C   UNL     1      -2.917  -0.663   0.215  0.00  0.00    +0.145 C 
ATOM      5  C   UNL     1      -3.071   0.805  -0.165  0.00  0.00    +0.093 C 
ATOM      6  C   UNL     1      -1.910   1.633   0.374  0.00  0.00    +0.234 C 
ENDROOT
BRANCH   2   7
ATOM      7  O   UNL     1      -1.365  -2.474   0.394  0.00  0.00    -0.379 OA
ATOM      8  H   UNL     1      -0.488  -2.819   0.164  0.00  0.00    +0.211 HD
ENDBRANCH   2   7
BRANCH   4   9
ATOM      9  O   UNL     1      -3.916  -1.415  -0.468  0.00  0.00    -0.382 OA
ATOM     10  H   UNL     1      -3.831  -2.352  -0.236  0.00  0.00    +0.210 HD
ENDBRANCH   4   9
BRANCH   6  11
ATOM     11  O   UNL     1      -2.084   2.975  -0.072  0.00  0.00    -0.360 OA
ATOM     12  H   UNL     1      -1.355   3.523   0.260  0.00  0.00    +0.213 HD
ENDBRANCH   6  11
BRANCH   3  13
ATOM     13  C   UNL     1       0.953  -0.631  -0.139  0.00  0.00    +0.186 C 
BRANCH  13  14
ATOM     14  O   UNL     1       1.896   0.294   0.371  0.00  0.00    -0.271 OA
BRANCH  14  15
ATOM     15  P   UNL     1       3.459   0.091  -0.004  0.00  0.00    +0.473 P 
ATOM     16  O   UNL     1       4.388   1.115   0.579  0.00  0.00    -0.227 OA
BRANCH  15  17
ATOM     17  O   UNL     1       3.457  -0.002  -1.618  0.00  0.00    -0.303 OA
ATOM     18  H   UNL     1       2.831  -0.686  -1.902  0.00  0.00    +0.222 HD
ENDBRANCH  15  17
BRANCH  15  19
ATOM     19  O   UNL     1       3.747  -1.432   0.456  0.00  0.00    -0.303 OA
ATOM     20  H   UNL     1       3.104  -2.024   0.035  0.00  0.00    +0.222 HD
ENDBRANCH  15  19
ENDBRANCH  14  15
ENDBRANCH  13  14
ENDBRANCH   3  13
TORSDOF 8
