REMARK  Name = 69702
REMARK  4 active torsions:
REMARK  status: ('A' for Active; 'I' for Inactive)
REMARK    1  A    between atoms: C_1  and  C_7
REMARK    2  A    between atoms: C_7  and  C_8
REMARK    3  A    between atoms: C_8  and  C_10
REMARK    4  A    between atoms: C_10  and  O_11
REMARK                            x       y       z     vdW  Elec       q    Type
REMARK                         _______ _______ _______ _____ _____    ______ ____
ROOT
ATOM      1  C   UNL     1       0.741  -0.228  -0.363  0.00  0.00    +0.001 C 
ATOM      2  C   UNL     1       1.142   1.059   0.372  0.00  0.00    +0.000 C 
ATOM      3  C   UNL     1       1.728  -1.362  -0.058  0.00  0.00    +0.000 C 
ATOM      4  C   UNL     1       2.582   1.461   0.060  0.00  0.00    +0.000 C 
ATOM      5  C   UNL     1       3.167  -0.956  -0.369  0.00  0.00    +0.000 C 
ATOM      6  C   UNL     1       3.559   0.328   0.356  0.00  0.00    +0.000 C 
ENDROOT
BRANCH   1   7
ATOM      7  C   UNL     1      -0.683  -0.638   0.007  0.00  0.00    +0.012 C 
BRANCH   7   8
ATOM      8  C   UNL     1      -1.708   0.432  -0.339  0.00  0.00    +0.109 C 
BRANCH   8  10
ATOM      9  O   UNL     1      -3.371  -1.021   0.638  0.00  0.00    -0.250 OA
ATOM     10  C   UNL     1      -3.108   0.012   0.036  0.00  0.00    +0.314 C 
BRANCH  10  11
ATOM     11  O   UNL     1      -4.048   0.914  -0.340  0.00  0.00    -0.480 OA
ATOM     12  H   UNL     1      -3.795   1.690  -0.800  0.00  0.00    +0.295 HD
ENDBRANCH  10  11
ENDBRANCH   8  10
ENDBRANCH   7   8
ENDBRANCH   1   7
TORSDOF 4
