REMARK  Name = 1433
REMARK  5 active torsions:
REMARK  status: ('A' for Active; 'I' for Inactive)
REMARK    1  A    between atoms: C_1  and  C_7
REMARK    2  A    between atoms: C_2  and  C_14
REMARK    3  A    between atoms: C_7  and  N_8
REMARK    4  A    between atoms: N_8  and  C_10
REMARK    5  A    between atoms: C_14  and  N_15
REMARK                            x       y       z     vdW  Elec       q    Type
REMARK                         _______ _______ _______ _____ _____    ______ ____
ROOT
ATOM      1  C   UNL     1       0.058   0.589   0.324  0.00  0.00    -0.001 C 
ATOM      2  C   UNL     1       2.329  -0.203   0.262  0.00  0.00    -0.045 C 
ATOM      3  C   UNL     1       0.989  -0.407   0.592  0.00  0.00    -0.009 C 
ATOM      4  C   UNL     1       0.444   1.784  -0.268  0.00  0.00    -0.003 C 
ATOM      5  C   UNL     1       2.727   0.995  -0.333  0.00  0.00    -0.006 C 
ATOM      6  C   UNL     1       1.784   1.988  -0.598  0.00  0.00    -0.001 C 
ENDROOT
BRANCH   1   7
ATOM      7  C   UNL     1      -1.386   0.369   0.679  0.00  0.00    +0.140 C 
BRANCH   7   8
ATOM      8  N   UNL     1      -2.126  -0.245  -0.416  0.00  0.00    -0.221 NA
BRANCH   8  10
ATOM      9  N   UNL     1      -4.316  -0.979  -1.091  0.00  0.00    -0.389 N 
ATOM     10  C   UNL     1      -3.391  -0.436  -0.230  0.00  0.00    +0.095 C 
ATOM     11  C   UNL     1      -3.942   0.007   1.108  0.00  0.00    +0.068 C 
ATOM     12  H   UNL     1      -4.036  -1.291  -1.982  0.00  0.00    +0.157 HD
ATOM     13  H   UNL     1      -5.258  -1.055  -0.817  0.00  0.00    +0.157 HD
ENDBRANCH   8  10
ENDBRANCH   7   8
ENDBRANCH   1   7
BRANCH   2  14
ATOM     14  C   UNL     1       3.337  -1.265   0.544  0.00  0.00    -0.059 C 
BRANCH  14  15
ATOM     15  N   UNL     1       3.493  -2.197  -0.574  0.00  0.00    +0.383 N 
ATOM     16  H   UNL     1       4.190  -2.902  -0.334  0.00  0.00    -0.089 HD
ATOM     17  H   UNL     1       3.797  -1.686  -1.402  0.00  0.00    -0.089 HD
ATOM     18  H   UNL     1       2.600  -2.652  -0.764  0.00  0.00    -0.089 HD
ENDBRANCH  14  15
ENDBRANCH   2  14
TORSDOF 5
