REMARK  Name = 5496597
REMARK  8 active torsions:
REMARK  status: ('A' for Active; 'I' for Inactive)
REMARK    1  A    between atoms: C_1  and  C_3
REMARK    2  A    between atoms: C_1  and  C_9
REMARK    3  A    between atoms: C_1  and  C_12
REMARK    4  A    between atoms: C_3  and  C_5
REMARK    5  A    between atoms: C_5  and  O_6
REMARK    6  A    between atoms: C_9  and  O_10
REMARK    7  A    between atoms: C_12  and  C_14
REMARK    8  A    between atoms: C_14  and  O_15
REMARK                            x       y       z     vdW  Elec       q    Type
REMARK                         _______ _______ _______ _____ _____    ______ ____
ROOT
ATOM      1  C   UNL     1       0.022   0.629  -0.245  0.00  0.00    +0.178 C 
ENDROOT
BRANCH   1   3
ATOM      2  O   UNL     1      -0.233  -1.136   1.438  0.00  0.00    -0.284 OA
ATOM      3  C   UNL     1      -0.594  -0.606   0.398  0.00  0.00    +0.258 C 
BRANCH   3   5
ATOM      4  O   UNL     1      -2.212  -0.790  -1.341  0.00  0.00    -0.242 OA
ATOM      5  C   UNL     1      -1.741  -1.257  -0.324  0.00  0.00    +0.374 C 
BRANCH   5   6
ATOM      6  O   UNL     1      -2.153  -2.337   0.353  0.00  0.00    -0.475 OA
ATOM      7  H   UNL     1      -1.704  -2.601   1.132  0.00  0.00    +0.295 HD
ENDBRANCH   5   6
ENDBRANCH   3   5
ENDBRANCH   1   3
BRANCH   1   9
ATOM      8  O   UNL     1      -1.612   2.062   0.883  0.00  0.00    -0.250 OA
ATOM      9  C   UNL     1      -0.684   1.929   0.099  0.00  0.00    +0.322 C 
BRANCH   9  10
ATOM     10  O   UNL     1      -0.151   2.959  -0.610  0.00  0.00    -0.480 OA
ATOM     11  H   UNL     1       0.561   2.803  -1.199  0.00  0.00    +0.295 HD
ENDBRANCH   9  10
ENDBRANCH   1   9
BRANCH   1  12
ATOM     12  C   UNL     1       1.502   0.765   0.160  0.00  0.00    +0.129 C 
BRANCH  12  14
ATOM     13  O   UNL     1       2.177  -1.126  -1.232  0.00  0.00    -0.250 OA
ATOM     14  C   UNL     1       2.342  -0.432  -0.239  0.00  0.00    +0.315 C 
BRANCH  14  15
ATOM     15  O   UNL     1       3.335  -0.660   0.662  0.00  0.00    -0.480 OA
ATOM     16  H   UNL     1       3.425  -0.103   1.410  0.00  0.00    +0.295 HD
ENDBRANCH  14  15
ENDBRANCH  12  14
ENDBRANCH   1  12
TORSDOF 8
