REMARK  Name = 1318
REMARK  0 active torsions:
REMARK  status: ('A' for Active; 'I' for Inactive)
REMARK                            x       y       z     vdW  Elec       q    Type
REMARK                         _______ _______ _______ _____ _____    ______ ____
ROOT
ATOM      1  N   UNL     1       1.368   1.536   0.000  0.00  0.00    -0.242 NA
ATOM      2  N   UNL     1      -1.367   1.536   0.000  0.00  0.00    -0.242 NA
ATOM      3  C   UNL     1       0.697   0.366   0.000  0.00  0.00    +0.099 C 
ATOM      4  C   UNL     1      -0.697   0.366   0.000  0.00  0.00    +0.099 C 
ATOM      5  C   UNL     1       1.392  -0.864   0.000  0.00  0.00    +0.019 C 
ATOM      6  C   UNL     1      -1.392  -0.864   0.000  0.00  0.00    +0.019 C 
ATOM      7  C   UNL     1       0.694  -2.075   0.000  0.00  0.00    +0.002 C 
ATOM      8  C   UNL     1      -0.694  -2.075   0.000  0.00  0.00    +0.002 C 
ATOM      9  C   UNL     1       2.794  -0.844   0.000  0.00  0.00    +0.003 C 
ATOM     10  C   UNL     1      -2.794  -0.844   0.000  0.00  0.00    +0.003 C 
ATOM     11  C   UNL     1       3.475   0.363   0.000  0.00  0.00    +0.021 C 
ATOM     12  C   UNL     1      -3.475   0.363   0.000  0.00  0.00    +0.021 C 
ATOM     13  C   UNL     1       2.720   1.516   0.000  0.00  0.00    +0.099 C 
ATOM     14  C   UNL     1      -2.720   1.516   0.000  0.00  0.00    +0.099 C 
ENDROOT
TORSDOF 0
