REMARK  Name = 446874
REMARK  6 active torsions:
REMARK  status: ('A' for Active; 'I' for Inactive)
REMARK    1  A    between atoms: C_2  and  O_9
REMARK    2  A    between atoms: C_3  and  O_7
REMARK    3  A    between atoms: C_4  and  O_11
REMARK    4  A    between atoms: C_5  and  C_16
REMARK    5  A    between atoms: C_6  and  O_13
REMARK    6  A    between atoms: C_16  and  O_17
REMARK                            x       y       z     vdW  Elec       q    Type
REMARK                         _______ _______ _______ _____ _____    ______ ____
ROOT
ATOM      1  O   UNL     1      -0.105  -1.585   0.019  0.00  0.00    -0.317 OA
ATOM      2  C   UNL     1      -0.972   1.151  -0.121  0.00  0.00    +0.172 C 
ATOM      3  C   UNL     1       0.482   0.770   0.158  0.00  0.00    +0.183 C 
ATOM      4  C   UNL     1      -1.925   0.006   0.225  0.00  0.00    +0.196 C 
ATOM      5  C   UNL     1       0.807  -0.594  -0.440  0.00  0.00    +0.245 C 
ATOM      6  C   UNL     1      -1.447  -1.314  -0.380  0.00  0.00    +0.263 C 
ENDROOT
BRANCH   3   7
ATOM      7  O   UNL     1       1.341   1.744  -0.431  0.00  0.00    -0.348 OA
ATOM      8  C   UNL     1       1.085   3.040   0.088  0.00  0.00    +0.174 C 
ENDBRANCH   3   7
BRANCH   2   9
ATOM      9  O   UNL     1      -1.290   2.293   0.675  0.00  0.00    -0.379 OA
ATOM     10  H   UNL     1      -0.685   3.019   0.456  0.00  0.00    +0.211 HD
ENDBRANCH   2   9
BRANCH   4  11
ATOM     11  O   UNL     1      -3.221   0.295  -0.300  0.00  0.00    -0.378 OA
ATOM     12  H   UNL     1      -3.542   1.131   0.073  0.00  0.00    +0.211 HD
ENDBRANCH   4  11
BRANCH   6  13
ATOM     13  O   UNL     1      -2.308  -2.351   0.090  0.00  0.00    -0.358 OA
ATOM     14  H   UNL     1      -2.023  -3.200  -0.281  0.00  0.00    +0.213 HD
ENDBRANCH   6  13
BRANCH   5  16
ATOM     15  O   UNL     1       2.295  -2.093   0.728  0.00  0.00    -0.247 OA
ATOM     16  C   UNL     1       2.129  -1.091   0.049  0.00  0.00    +0.344 C 
BRANCH  16  17
ATOM     17  O   UNL     1       3.129  -0.274  -0.362  0.00  0.00    -0.478 OA
ATOM     18  H   UNL     1       2.934   0.481  -0.883  0.00  0.00    +0.295 HD
ENDBRANCH  16  17
ENDBRANCH   5  16
TORSDOF 6
