REMARK  Name = 448993
REMARK  5 active torsions:
REMARK  status: ('A' for Active; 'I' for Inactive)
REMARK    1  A    between atoms: C_3  and  O_8
REMARK    2  A    between atoms: C_4  and  O_10
REMARK    3  A    between atoms: C_4  and  C_15
REMARK    4  A    between atoms: C_5  and  O_12
REMARK    5  A    between atoms: C_15  and  O_16
REMARK                            x       y       z     vdW  Elec       q    Type
REMARK                         _______ _______ _______ _____ _____    ______ ____
ROOT
ATOM      1  F   UNL     1       1.586  -2.477   0.092  0.00  0.00    -0.207 F 
ATOM      2  C   UNL     1      -0.254   1.316   0.230  0.00  0.00    +0.074 C 
ATOM      3  C   UNL     1       1.236   1.264  -0.119  0.00  0.00    +0.147 C 
ATOM      4  C   UNL     1      -1.013   0.140  -0.396  0.00  0.00    +0.200 C 
ATOM      5  C   UNL     1       1.870  -0.055   0.344  0.00  0.00    +0.187 C 
ATOM      6  C   UNL     1      -0.270  -1.164  -0.318  0.00  0.00    +0.038 C 
ATOM      7  C   UNL     1       1.020  -1.250   0.037  0.00  0.00    +0.145 C 
ENDROOT
BRANCH   3   8
ATOM      8  O   UNL     1       1.903   2.357   0.510  0.00  0.00    -0.381 OA
ATOM      9  H   UNL     1       1.503   3.191   0.218  0.00  0.00    +0.210 HD
ENDBRANCH   3   8
BRANCH   4  10
ATOM     10  O   UNL     1      -1.309   0.445  -1.752  0.00  0.00    -0.373 OA
ATOM     11  H   UNL     1      -0.483   0.577  -2.241  0.00  0.00    +0.211 HD
ENDBRANCH   4  10
BRANCH   5  12
ATOM     12  O   UNL     1       3.125  -0.216  -0.316  0.00  0.00    -0.376 OA
ATOM     13  H   UNL     1       3.690   0.550  -0.128  0.00  0.00    +0.211 HD
ENDBRANCH   5  12
BRANCH   4  15
ATOM     14  O   UNL     1      -3.427   0.084  -0.217  0.00  0.00    -0.247 OA
ATOM     15  C   UNL     1      -2.329  -0.051   0.304  0.00  0.00    +0.342 C 
BRANCH  15  16
ATOM     16  O   UNL     1      -2.136  -0.394   1.601  0.00  0.00    -0.478 OA
ATOM     17  H   UNL     1      -1.267  -0.482   1.938  0.00  0.00    +0.295 HD
ENDBRANCH  15  16
ENDBRANCH   4  15
TORSDOF 5
