REMARK  Name = 17754161
REMARK  10 active torsions:
REMARK  status: ('A' for Active; 'I' for Inactive)
REMARK    1  A    between atoms: C_1  and  O_2
REMARK    2  A    between atoms: C_1  and  C_11
REMARK    3  A    between atoms: O_2  and  P_3
REMARK    4  A    between atoms: P_3  and  O_5
REMARK    5  A    between atoms: P_3  and  O_8
REMARK    6  A    between atoms: O_5  and  C_6
REMARK    7  A    between atoms: O_8  and  C_9
REMARK    8  A    between atoms: C_11  and  N_12
REMARK    9  A    between atoms: C_11  and  C_17
REMARK   10  A    between atoms: C_17  and  O_18
REMARK                            x       y       z     vdW  Elec       q    Type
REMARK                         _______ _______ _______ _____ _____    ______ ____
ROOT
ATOM      1  C   UNK     1       0.610  -0.727   0.407  0.00  0.00    +0.143 C 
ENDROOT
BRANCH   1   2
ATOM      2  O   UNK     1      -0.115  -0.238  -0.708  0.00  0.00    -0.275 OA
BRANCH   2   3
ATOM      3  P   UNK     1      -1.546   0.491  -0.492  0.00  0.00    +0.480 P 
ATOM      4  O   UNK     1      -2.203   0.958  -1.761  0.00  0.00    -0.227 OA
BRANCH   3   5
ATOM      5  O   UNK     1      -2.417  -0.572   0.366  0.00  0.00    -0.273 OA
BRANCH   5   6
ATOM      6  C   UNK     1      -2.770  -1.803  -0.242  0.00  0.00    +0.154 C 
ATOM      7  C   UNK     1      -3.575  -2.626   0.742  0.00  0.00    +0.035 C 
ENDBRANCH   5   6
ENDBRANCH   3   5
BRANCH   3   8
ATOM      8  O   UNK     1      -1.244   1.665   0.583  0.00  0.00    -0.273 OA
BRANCH   8   9
ATOM      9  C   UNK     1      -0.393   2.731   0.197  0.00  0.00    +0.154 C 
ATOM     10  C   UNK     1      -0.258   3.698   1.353  0.00  0.00    +0.035 C 
ENDBRANCH   8   9
ENDBRANCH   3   8
ENDBRANCH   2   3
ENDBRANCH   1   2
BRANCH   1  11
ATOM     11  C   UNK     1       1.911  -1.363  -0.073  0.00  0.00    +0.066 C 
BRANCH  11  12
ATOM     12  N   UNK     1       2.427  -2.270   0.951  0.00  0.00    +0.390 N 
ATOM     13  H   UNK     1       1.738  -3.000   1.136  0.00  0.00    -0.088 HD
ATOM     14  H   UNK     1       2.608  -1.748   1.808  0.00  0.00    -0.088 HD
ATOM     15  H   UNK     1       3.293  -2.697   0.622  0.00  0.00    -0.088 HD
ENDBRANCH  11  12
BRANCH  11  17
ATOM     16  O   UNK     1       4.035  -0.197   0.277  0.00  0.00    -0.253 OA
ATOM     17  C   UNK     1       2.968  -0.302  -0.312  0.00  0.00    +0.295 C 
BRANCH  17  18
ATOM     18  O   UNK     1       2.570   0.555  -1.289  0.00  0.00    -0.482 OA
ATOM     19  H   UNK     1       1.742   0.432  -1.710  0.00  0.00    +0.295 HD
ENDBRANCH  17  18
ENDBRANCH  11  17
ENDBRANCH   1  11
TORSDOF 10
