REMARK  Name = 10442
REMARK  4 active torsions:
REMARK  status: ('A' for Active; 'I' for Inactive)
REMARK    1  A    between atoms: C_1  and  C_2
REMARK    2  A    between atoms: C_1  and  C_5
REMARK    3  A    between atoms: C_2  and  O_3
REMARK    4  A    between atoms: C_5  and  O_6
REMARK                            x       y       z     vdW  Elec       q    Type
REMARK                         _______ _______ _______ _____ _____    ______ ____
ROOT
ATOM      1  C   UNL     1       0.004   0.341  -0.011  0.00  0.00    +0.063 C 
ENDROOT
BRANCH   1   2
ATOM      2  C   UNL     1       1.262  -0.513   0.001  0.00  0.00    +0.140 C 
BRANCH   2   3
ATOM      3  O   UNL     1       2.397   0.341   0.005  0.00  0.00    -0.382 OA
ATOM      4  H   UNL     1       3.205  -0.195   0.013  0.00  0.00    +0.210 HD
ENDBRANCH   2   3
ENDBRANCH   1   2
BRANCH   1   5
ATOM      5  C   UNL     1      -1.259  -0.506  -0.001  0.00  0.00    +0.140 C 
BRANCH   5   6
ATOM      6  O   UNL     1      -2.404   0.337   0.006  0.00  0.00    -0.382 OA
ATOM      7  H   UNL     1      -3.206  -0.208   0.013  0.00  0.00    +0.210 HD
ENDBRANCH   5   6
ENDBRANCH   1   5
TORSDOF 4
