REMARK  Name = 447958
REMARK  3 active torsions:
REMARK  status: ('A' for Active; 'I' for Inactive)
REMARK    1  A    between atoms: N_1  and  C_16
REMARK    2  A    between atoms: C_4  and  C_11
REMARK    3  A    between atoms: C_17  and  C_25
REMARK                            x       y       z     vdW  Elec       q    Type
REMARK                         _______ _______ _______ _____ _____    ______ ____
ROOT
ATOM      1  N   UNL     1      -0.608   2.456   0.078  0.00  0.00    -0.247 N 
ATOM      2  N   UNL     1       1.275   1.058   0.008  0.00  0.00    -0.341 NA
ATOM      3  N   UNL     1       1.514   3.455   0.053  0.00  0.00    -0.170 NA
ATOM      4  C   UNL     1       2.620   0.961  -0.023  0.00  0.00    +0.140 C 
ATOM      5  C   UNL     1       0.793   2.316   0.045  0.00  0.00    +0.148 C 
ATOM      6  C   UNL     1       3.467   2.050  -0.020  0.00  0.00    +0.051 C 
ATOM      7  C   UNL     1       2.852   3.285   0.020  0.00  0.00    +0.114 C 
ATOM      8  H   UNL     1      -0.912   3.392   0.103  0.00  0.00    +0.165 HD
ENDROOT
BRANCH   4  11
ATOM      9  S   UNL     1       4.649  -0.743   0.645  0.00  0.00    -0.074 S 
ATOM     10  N   UNL     1       3.346  -2.684  -0.457  0.00  0.00    -0.407 NA
ATOM     11  C   UNL     1       3.126  -0.385  -0.061  0.00  0.00    +0.155 C 
ATOM     12  C   UNL     1       2.586  -1.539  -0.596  0.00  0.00    +0.104 C 
ATOM     13  C   UNL     1       4.455  -2.384   0.181  0.00  0.00    +0.135 C 
ATOM     14  C   UNL     1       1.286  -1.653  -1.289  0.00  0.00    +0.063 C 
ATOM     15  C   UNL     1       5.516  -3.357   0.519  0.00  0.00    +0.074 C 
ENDBRANCH   4  11
BRANCH   1  16
ATOM     16  C   UNL     1      -1.662   1.519   0.082  0.00  0.00    +0.058 C 
ATOM     17  C   UNL     1      -3.746  -0.336   0.091  0.00  0.00    +0.072 C 
ATOM     18  C   UNL     1      -1.475   0.261   0.657  0.00  0.00    +0.015 C 
ATOM     19  C   UNL     1      -2.892   1.849  -0.487  0.00  0.00    +0.015 C 
ATOM     20  C   UNL     1      -2.517  -0.666   0.661  0.00  0.00    +0.005 C 
ATOM     21  C   UNL     1      -3.934   0.922  -0.483  0.00  0.00    +0.005 C 
BRANCH  17  25
ATOM     22  F   UNL     1      -4.535  -2.514   0.689  0.00  0.00    -0.166 F 
ATOM     23  F   UNL     1      -5.976  -0.894   0.754  0.00  0.00    -0.166 F 
ATOM     24  F   UNL     1      -5.280  -1.651  -1.163  0.00  0.00    -0.166 F 
ATOM     25  C   UNL     1      -4.860  -1.327   0.095  0.00  0.00    +0.419 C 
ENDBRANCH  17  25
ENDBRANCH   1  16
TORSDOF 3
