REMARK  Name = 8150
REMARK  6 active torsions:
REMARK  status: ('A' for Active; 'I' for Inactive)
REMARK    1  A    between atoms: O_1  and  C_2
REMARK    2  A    between atoms: O_1  and  C_6
REMARK    3  A    between atoms: C_2  and  C_3
REMARK    4  A    between atoms: C_3  and  O_4
REMARK    5  A    between atoms: C_6  and  C_7
REMARK    6  A    between atoms: C_7  and  O_8
REMARK                            x       y       z     vdW  Elec       q    Type
REMARK                         _______ _______ _______ _____ _____    ______ ____
ROOT
ATOM      1  O   UNL     1      -0.001   0.285   0.000  0.00  0.00    -0.348 OA
ENDROOT
BRANCH   1   2
ATOM      2  C   UNL     1       1.175  -0.515  -0.002  0.00  0.00    +0.174 C 
BRANCH   2   3
ATOM      3  C   UNL     1       2.391   0.391  -0.004  0.00  0.00    +0.174 C 
BRANCH   3   4
ATOM      4  O   UNL     1       3.567  -0.409   0.015  0.00  0.00    -0.348 OA
ATOM      5  C   UNL     1       4.741   0.390  -0.009  0.00  0.00    +0.174 C 
ENDBRANCH   3   4
ENDBRANCH   2   3
ENDBRANCH   1   2
BRANCH   1   6
ATOM      6  C   UNL     1      -1.175  -0.515   0.002  0.00  0.00    +0.174 C 
BRANCH   6   7
ATOM      7  C   UNL     1      -2.391   0.392   0.004  0.00  0.00    +0.174 C 
BRANCH   7   8
ATOM      8  O   UNL     1      -3.566  -0.409  -0.015  0.00  0.00    -0.348 OA
ATOM      9  C   UNL     1      -4.741   0.390   0.009  0.00  0.00    +0.174 C 
ENDBRANCH   7   8
ENDBRANCH   6   7
ENDBRANCH   1   6
TORSDOF 6
