REMARK  Name = 867
REMARK  4 active torsions:
REMARK  status: ('A' for Active; 'I' for Inactive)
REMARK    1  A    between atoms: C_1  and  C_3
REMARK    2  A    between atoms: C_1  and  C_7
REMARK    3  A    between atoms: C_3  and  O_4
REMARK    4  A    between atoms: C_7  and  O_8
REMARK                            x       y       z     vdW  Elec       q    Type
REMARK                         _______ _______ _______ _____ _____    ______ ____
ROOT
ATOM      1  C   UNL     1       0.005   0.815  -0.006  0.00  0.00    +0.218 C 
ENDROOT
BRANCH   1   3
ATOM      2  O   UNL     1       1.314  -1.218   0.002  0.00  0.00    -0.250 OA
ATOM      3  C   UNL     1       1.270   0.004  -0.007  0.00  0.00    +0.325 C 
BRANCH   3   4
ATOM      4  O   UNL     1       2.367   0.801   0.007  0.00  0.00    -0.480 OA
ATOM      5  H   UNL     1       2.269   1.733  -0.001  0.00  0.00    +0.295 HD
ENDBRANCH   3   4
ENDBRANCH   1   3
BRANCH   1   7
ATOM      6  O   UNL     1      -1.326  -1.214   0.002  0.00  0.00    -0.250 OA
ATOM      7  C   UNL     1      -1.266   0.007  -0.004  0.00  0.00    +0.325 C 
BRANCH   7   8
ATOM      8  O   UNL     1      -2.365   0.805   0.006  0.00  0.00    -0.480 OA
ATOM      9  H   UNL     1      -2.267   1.737   0.000  0.00  0.00    +0.295 HD
ENDBRANCH   7   8
ENDBRANCH   1   7
TORSDOF 4
