REMARK  Name = 11579
REMARK  4 active torsions:
REMARK  status: ('A' for Active; 'I' for Inactive)
REMARK    1  A    between atoms: C_1  and  C_3
REMARK    2  A    between atoms: C_1  and  C_6
REMARK    3  A    between atoms: C_3  and  O_4
REMARK    4  A    between atoms: C_6  and  C_8
REMARK                            x       y       z     vdW  Elec       q    Type
REMARK                         _______ _______ _______ _____ _____    ______ ____
ROOT
ATOM      1  C   UNL     1      -0.571   0.535  -0.003  0.00  0.00    +0.117 C 
ENDROOT
BRANCH   1   3
ATOM      2  O   UNL     1      -2.192  -1.281  -0.022  0.00  0.00    -0.250 OA
ATOM      3  C   UNL     1      -1.950  -0.082  -0.001  0.00  0.00    +0.314 C 
BRANCH   3   4
ATOM      4  O   UNL     1      -2.919   0.870   0.029  0.00  0.00    -0.480 OA
ATOM      5  H   UNL     1      -2.685   1.777   0.045  0.00  0.00    +0.295 HD
ENDBRANCH   3   4
ENDBRANCH   1   3
BRANCH   1   6
ATOM      6  C   UNL     1       0.527  -0.524  -0.008  0.00  0.00    +0.076 C 
BRANCH   6   8
ATOM      7  O   UNL     1       2.119   1.295  -0.022  0.00  0.00    -0.296 OA
ATOM      8  C   UNL     1       1.919   0.081  -0.004  0.00  0.00    +0.152 C 
ATOM      9  C   UNL     1       3.067  -0.895   0.030  0.00  0.00    +0.072 C 
ENDBRANCH   6   8
ENDBRANCH   1   6
TORSDOF 4
