REMARK  Name = 1829
REMARK  5 active torsions:
REMARK  status: ('A' for Active; 'I' for Inactive)
REMARK    1  A    between atoms: C_2  and  N_9
REMARK    2  A    between atoms: C_3  and  C_17
REMARK    3  A    between atoms: C_10  and  C_13
REMARK    4  A    between atoms: C_13  and  O_14
REMARK    5  A    between atoms: C_17  and  O_18
REMARK                            x       y       z     vdW  Elec       q    Type
REMARK                         _______ _______ _______ _____ _____    ______ ____
ROOT
ATOM      1  I   UNL     1       4.965   1.484   0.044  0.00  0.00    -0.043 I 
ATOM      2  C   UNL     1       0.255   0.256   0.007  0.00  0.00    +0.057 C 
ATOM      3  C   UNL     1       1.235  -0.737   0.032  0.00  0.00    +0.089 C 
ATOM      4  C   UNL     1       0.626   1.600  -0.007  0.00  0.00    +0.015 C 
ATOM      5  C   UNL     1       2.584  -0.386   0.043  0.00  0.00    +0.013 C 
ATOM      6  C   UNL     1       1.975   1.952   0.004  0.00  0.00    +0.007 C 
ATOM      7  C   UNL     1       2.955   0.959   0.028  0.00  0.00    +0.030 C 
ENDROOT
BRANCH   2   9
ATOM      8  O   UNL     1      -2.206   2.015  -0.046  0.00  0.00    -0.263 OA
ATOM      9  N   UNL     1      -1.103  -0.073  -0.004  0.00  0.00    -0.275 N 
ATOM     10  C   UNL     1      -2.190   0.795  -0.028  0.00  0.00    +0.325 C 
ATOM     11  H   UNL     1      -1.316  -1.034   0.007  0.00  0.00    +0.155 HD
BRANCH  10  13
ATOM     12  O   UNL     1      -3.603  -1.154  -0.015  0.00  0.00    -0.240 OA
ATOM     13  C   UNL     1      -3.516   0.058  -0.033  0.00  0.00    +0.393 C 
BRANCH  13  14
ATOM     14  O   UNL     1      -4.533   0.933  -0.058  0.00  0.00    -0.474 OA
ATOM     15  H   UNL     1      -4.358   1.854  -0.070  0.00  0.00    +0.296 HD
ENDBRANCH  13  14
ENDBRANCH  10  13
ENDBRANCH   2   9
BRANCH   3  17
ATOM     16  O   UNL     1      -0.143  -2.624   0.546  0.00  0.00    -0.245 OA
ATOM     17  C   UNL     1       0.881  -2.151   0.048  0.00  0.00    +0.339 C 
BRANCH  17  18
ATOM     18  O   UNL     1       1.819  -2.926  -0.560  0.00  0.00    -0.477 OA
ATOM     19  H   UNL     1       2.585  -2.532  -0.928  0.00  0.00    +0.295 HD
ENDBRANCH  17  18
ENDBRANCH   3  17
TORSDOF 5
