REMARK  Name = 17754118
REMARK  6 active torsions:
REMARK  status: ('A' for Active; 'I' for Inactive)
REMARK    1  A    between atoms: N_2  and  C_15
REMARK    2  A    between atoms: C_4  and  C_7
REMARK    3  A    between atoms: C_6  and  C_18
REMARK    4  A    between atoms: C_7  and  C_9
REMARK    5  A    between atoms: C_15  and  C_17
REMARK    6  A    between atoms: C_18  and  N_19
REMARK                            x       y       z     vdW  Elec       q    Type
REMARK                         _______ _______ _______ _____ _____    ______ ____
ROOT
ATOM      1  O   UNL     1      -1.407   2.192  -0.824  0.00  0.00    -0.272 OA
ATOM      2  N   UNL     1      -2.459   0.192  -0.225  0.00  0.00    -0.240 N 
ATOM      3  N   UNL     1      -0.782  -0.886   0.820  0.00  0.00    -0.255 NA
ATOM      4  C   UNL     1      -0.263   0.438   0.407  0.00  0.00    +0.181 C 
ATOM      5  C   UNL     1      -1.429   1.089  -0.301  0.00  0.00    +0.253 C 
ATOM      6  C   UNL     1      -2.015  -0.903   0.420  0.00  0.00    +0.087 C 
ENDROOT
BRANCH   4   7
ATOM      7  C   UNL     1       0.928   0.258  -0.514  0.00  0.00    +0.042 C 
BRANCH   7   9
ATOM      8  O   UNL     1       6.124   0.526  -0.146  0.00  0.00    -0.287 OA
ATOM      9  C   UNL     1       2.088  -0.426   0.191  0.00  0.00    +0.047 C 
ATOM     10  C   UNL     1       3.011  -1.053  -0.820  0.00  0.00    -0.019 C 
ATOM     11  C   UNL     1       2.792   0.549   1.095  0.00  0.00    -0.019 C 
ATOM     12  C   UNL     1       4.311  -0.760  -0.936  0.00  0.00    +0.038 C 
ATOM     13  C   UNL     1       4.090   0.862   1.001  0.00  0.00    +0.038 C 
ATOM     14  C   UNL     1       4.938   0.235  -0.038  0.00  0.00    +0.195 C 
ENDBRANCH   7   9
ENDBRANCH   4   7
BRANCH   2  15
ATOM     15  C   UNL     1      -3.799   0.388  -0.750  0.00  0.00    +0.171 C 
BRANCH  15  17
ATOM     16  O   UNL     1      -5.825   1.299   0.154  0.00  0.00    -0.286 OA
ATOM     17  C   UNL     1      -4.638   1.029   0.319  0.00  0.00    +0.229 C 
ENDBRANCH  15  17
ENDBRANCH   2  15
BRANCH   6  18
ATOM     18  C   UNL     1      -2.912  -2.077   0.647  0.00  0.00    -0.023 C 
BRANCH  18  19
ATOM     19  N   UNL     1      -2.755  -2.952  -0.499  0.00  0.00    +0.385 N 
ATOM     20  H   UNL     1      -3.353  -3.771  -0.385  0.00  0.00    -0.089 HD
ATOM     21  H   UNL     1      -1.782  -3.248  -0.569  0.00  0.00    -0.089 HD
ATOM     22  H   UNL     1      -3.021  -2.452  -1.347  0.00  0.00    -0.089 HD
ENDBRANCH  18  19
ENDBRANCH   6  18
TORSDOF 6
