REMARK  Name = 17753927
REMARK  7 active torsions:
REMARK  status: ('A' for Active; 'I' for Inactive)
REMARK    1  A    between atoms: CA_1  and  N_3
REMARK    2  A    between atoms: CA_1  and  C_9
REMARK    3  A    between atoms: CA_1  and  CB_12
REMARK    4  A    between atoms: C_4  and  O_6
REMARK    5  A    between atoms: C_9  and  O_10
REMARK    6  A    between atoms: CB_12  and  CG_13
REMARK    7  A    between atoms: CG_13  and  SD_14
REMARK                            x       y       z     vdW  Elec       q    Type
REMARK                         _______ _______ _______ _____ _____    ______ ____
ROOT
ATOM      1  CA  UNL     1      -0.470  -0.581  -0.508  0.00  0.00    +0.175 C 
ENDROOT
BRANCH   1   3
ATOM      2  O   UNL     1      -1.971   1.814  -1.246  0.00  0.00    -0.227 OA
ATOM      3  N   UNL     1      -1.163   0.335   0.362  0.00  0.00    -0.263 N 
ATOM      4  C   ACE A   0      -1.848   1.444  -0.085  0.00  0.00    +0.399 C 
ATOM      5  H   UNL     1      -1.148   0.157   1.330  0.00  0.00    +0.153 HD
BRANCH   4   6
ATOM      6  O   UNL     1      -2.402   2.119   0.958  0.00  0.00    -0.466 OA
ATOM      7  H   UNL     1      -2.286   1.806   1.833  0.00  0.00    +0.297 HD
ENDBRANCH   4   6
ENDBRANCH   1   3
BRANCH   1   9
ATOM      8  OXT UNL     1      -0.111  -2.971  -0.652  0.00  0.00    -0.248 OA
ATOM      9  C   UNL     1      -0.548  -2.018  -0.015  0.00  0.00    +0.332 C 
BRANCH   9  10
ATOM     10  O   UNL     1      -1.193  -2.173   1.166  0.00  0.00    -0.479 OA
ATOM     11  H   UNL     1      -1.514  -1.423   1.627  0.00  0.00    +0.295 HD
ENDBRANCH   9  10
ENDBRANCH   1   9
BRANCH   1  12
ATOM     12  CB  UNL     1       0.976  -0.135  -0.762  0.00  0.00    +0.043 C 
BRANCH  12  13
ATOM     13  CG  UNL     1       1.877  -0.242   0.471  0.00  0.00    +0.060 C 
BRANCH  13  14
ATOM     14  SD  UNL     1       3.561   0.314   0.075  0.00  0.00    -0.139 S 
ATOM     15  CE  UNL     1       3.292   2.094   0.235  0.00  0.00    +0.069 C 
ENDBRANCH  13  14
ENDBRANCH  12  13
ENDBRANCH   1  12
TORSDOF 7
