REMARK  Name = 1136
REMARK  3 active torsions:
REMARK  status: ('A' for Active; 'I' for Inactive)
REMARK    1  A    between atoms: C_3  and  C_7
REMARK    2  A    between atoms: C_7  and  C_8
REMARK    3  A    between atoms: C_8  and  O_9
REMARK                            x       y       z     vdW  Elec       q    Type
REMARK                         _______ _______ _______ _____ _____    ______ ____
ROOT
ATOM      1  S   UNL     1      -0.984  -1.750  -0.005  0.00  0.00    -0.109 S 
ATOM      2  N   UNL     1      -1.982   0.614  -0.319  0.00  0.00    -0.266 NA
ATOM      3  C   UNL     1      -0.036  -0.399   0.397  0.00  0.00    +0.087 C 
ATOM      4  C   UNL     1      -0.702   0.764   0.177  0.00  0.00    +0.043 C 
ATOM      5  C   UNL     1      -0.202   2.134   0.409  0.00  0.00    +0.048 C 
ATOM      6  C   UNL     1      -2.238  -0.668  -0.455  0.00  0.00    +0.183 C 
ENDROOT
BRANCH   3   7
ATOM      7  C   UNL     1       1.362  -0.609   0.927  0.00  0.00    +0.048 C 
BRANCH   7   8
ATOM      8  C   UNL     1       2.399  -0.649  -0.193  0.00  0.00    +0.138 C 
BRANCH   8   9
ATOM      9  O   UNL     1       2.384   0.562  -0.938  0.00  0.00    -0.382 OA
ATOM     10  H   UNL     1       3.048   0.515  -1.643  0.00  0.00    +0.210 HD
ENDBRANCH   8   9
ENDBRANCH   7   8
ENDBRANCH   3   7
TORSDOF 3
