REMARK  Name = 7191874
REMARK  5 active torsions:
REMARK  status: ('A' for Active; 'I' for Inactive)
REMARK    1  A    between atoms: C_3  and  O_8
REMARK    2  A    between atoms: C_4  and  O_10
REMARK    3  A    between atoms: C_5  and  C_14
REMARK    4  A    between atoms: C_7  and  O_12
REMARK    5  A    between atoms: C_14  and  O_15
REMARK                            x       y       z     vdW  Elec       q    Type
REMARK                         _______ _______ _______ _____ _____    ______ ____
ROOT
ATOM      1  F   UNL     1      -2.712   0.786   0.438  0.00  0.00    -0.229 F 
ATOM      2  O   UNL     1       0.824   0.965  -0.235  0.00  0.00    -0.326 OA
ATOM      3  C   UNL     1       0.260  -1.369   0.143  0.00  0.00    +0.170 C 
ATOM      4  C   UNL     1      -1.165  -0.966   0.517  0.00  0.00    +0.177 C 
ATOM      5  C   UNL     1       1.224  -0.221   0.463  0.00  0.00    +0.176 C 
ATOM      6  C   UNL     1      -1.545   0.362  -0.126  0.00  0.00    +0.246 C 
ATOM      7  C   UNL     1      -0.477   1.423   0.133  0.00  0.00    +0.268 C 
ENDROOT
BRANCH   3   8
ATOM      8  O   UNL     1       0.327  -1.655  -1.256  0.00  0.00    -0.379 OA
ATOM      9  H   UNL     1      -0.281  -2.382  -1.467  0.00  0.00    +0.211 HD
ENDBRANCH   3   8
BRANCH   4  10
ATOM     10  O   UNL     1      -2.068  -1.984   0.098  0.00  0.00    -0.379 OA
ATOM     11  H   UNL     1      -1.821  -2.826   0.512  0.00  0.00    +0.211 HD
ENDBRANCH   4  10
BRANCH   7  12
ATOM     12  O   UNL     1      -0.795   2.613  -0.588  0.00  0.00    -0.358 OA
ATOM     13  H   UNL     1      -0.115   3.284  -0.421  0.00  0.00    +0.213 HD
ENDBRANCH   7  12
BRANCH   5  14
ATOM     14  C   UNL     1       2.656  -0.533   0.046  0.00  0.00    +0.169 C 
BRANCH  14  15
ATOM     15  O   UNL     1       3.473   0.579   0.367  0.00  0.00    -0.379 OA
ATOM     16  H   UNL     1       4.388   0.393   0.106  0.00  0.00    +0.211 HD
ENDBRANCH  14  15
ENDBRANCH   5  14
TORSDOF 5
