REMARK  Name = 657087
REMARK  7 active torsions:
REMARK  status: ('A' for Active; 'I' for Inactive)
REMARK    1  A    between atoms: C_1  and  N_2
REMARK    2  A    between atoms: C_1  and  CA_11
REMARK    3  A    between atoms: N_2  and  C_5
REMARK    4  A    between atoms: N_3  and  O_9
REMARK    5  A    between atoms: CA_11  and  N_12
REMARK    6  A    between atoms: CA_11  and  C_17
REMARK    7  A    between atoms: C_17  and  O_18
REMARK                            x       y       z     vdW  Elec       q    Type
REMARK                         _______ _______ _______ _____ _____    ______ ____
ROOT
ATOM      1  C   UNL     1      -0.302  -1.109   0.138  0.00  0.00    +0.118 C 
ENDROOT
BRANCH   1   2
ATOM      2  N   UNL     1       0.758  -0.105   0.267  0.00  0.00    -0.240 NA
BRANCH   2   5
ATOM      3  N   UNL     1       3.029   0.395  -0.008  0.00  0.00    -0.237 N 
ATOM      4  N   UNL     1       2.342  -1.694  -0.575  0.00  0.00    -0.368 N 
ATOM      5  C   UNL     1       1.952  -0.463  -0.089  0.00  0.00    +0.215 C 
ATOM      6  H   UNL     1       3.954   0.073  -0.108  0.00  0.00    +0.197 HD
ATOM      7  H   UNL     1       1.677  -2.411  -0.688  0.00  0.00    +0.159 HD
ATOM      8  H   UNL     1       3.284  -1.855  -0.809  0.00  0.00    +0.159 HD
BRANCH   3   9
ATOM      9  O   UNL     1       2.747   1.725   0.219  0.00  0.00    -0.287 OA
ATOM     10  H   UNL     1       3.574   2.229   0.257  0.00  0.00    +0.244 HD
ENDBRANCH   3   9
ENDBRANCH   2   5
ENDBRANCH   1   2
BRANCH   1  11
ATOM     11  CA  UNL     1      -1.627  -0.522   0.621  0.00  0.00    +0.060 C 
BRANCH  11  12
ATOM     12  N   UNL     1      -2.694  -1.506   0.431  0.00  0.00    +0.390 N 
ATOM     13  H1  UNL     1      -2.474  -2.352   0.958  0.00  0.00    -0.088 HD
ATOM     14  H2  UNL     1      -2.773  -1.734  -0.560  0.00  0.00    -0.088 HD
ATOM     15  H3  UNL     1      -3.577  -1.118   0.763  0.00  0.00    -0.088 HD
ENDBRANCH  11  12
BRANCH  11  17
ATOM     16  OXT UNL     1      -2.620   0.711  -1.240  0.00  0.00    -0.253 OA
ATOM     17  C   UNL     1      -2.004   0.712  -0.182  0.00  0.00    +0.295 C 
BRANCH  17  18
ATOM     18  O   UNL     1      -1.581   1.857   0.417  0.00  0.00    -0.482 OA
ATOM     19  H   UNL     1      -1.112   1.816   1.227  0.00  0.00    +0.295 HD
ENDBRANCH  17  18
ENDBRANCH  11  17
ENDBRANCH   1  11
TORSDOF 7
