REMARK  Name = 5288605
REMARK  0 active torsions:
REMARK  status: ('A' for Active; 'I' for Inactive)
REMARK                            x       y       z     vdW  Elec       q    Type
REMARK                         _______ _______ _______ _____ _____    ______ ____
ROOT
ATOM      1  I   UNL     1       1.950  -1.338   1.377  0.00  0.00    -0.064 I 
ATOM      2  O   UNL     1       1.663   1.824  -0.186  0.00  0.00    -0.274 OA
ATOM      3  O   UNL     1      -2.627   0.357   0.618  0.00  0.00    -0.252 OA
ATOM      4  N   UNL     1      -1.144  -1.117  -0.330  0.00  0.00    -0.287 N 
ATOM      5  N   UNL     1      -0.508   1.098   0.094  0.00  0.00    -0.239 N 
ATOM      6  C   UNL     1       1.243  -0.527  -0.473  0.00  0.00    +0.149 C 
ATOM      7  C   UNL     1       0.091  -1.332  -1.052  0.00  0.00    +0.111 C 
ATOM      8  C   UNL     1       0.841   0.908  -0.200  0.00  0.00    +0.240 C 
ATOM      9  C   UNL     1      -1.510   0.127   0.152  0.00  0.00    +0.307 C 
ATOM     10  H   UNL     1      -1.744  -1.882  -0.177  0.00  0.00    +0.151 HD
ATOM     11  H   UNL     1      -0.786   2.023   0.283  0.00  0.00    +0.159 HD
ENDROOT
TORSDOF 0
