REMARK  Name = 535
REMARK  3 active torsions:
REMARK  status: ('A' for Active; 'I' for Inactive)
REMARK    1  A    between atoms: C_1  and  N_4
REMARK    2  A    between atoms: C_1  and  C_9
REMARK    3  A    between atoms: C_9  and  O_10
REMARK                            x       y       z     vdW  Elec       q    Type
REMARK                         _______ _______ _______ _____ _____    ______ ____
ROOT
ATOM      1  C   UNL     1      -0.485   0.161   0.138  0.00  0.00    +0.043 C 
ATOM      2  C   UNL     1      -1.390  -0.151  -1.018  0.00  0.00    -0.011 C 
ATOM      3  C   UNL     1      -1.437  -0.997   0.220  0.00  0.00    -0.011 C 
ENDROOT
BRANCH   1   4
ATOM      4  N   UNL     1      -0.720   1.357   0.946  0.00  0.00    +0.390 N 
ATOM      5  H   UNL     1      -1.724   1.525   1.023  0.00  0.00    -0.088 HD
ATOM      6  H   UNL     1      -0.275   2.160   0.503  0.00  0.00    -0.088 HD
ATOM      7  H   UNL     1      -0.326   1.221   1.877  0.00  0.00    -0.088 HD
ENDBRANCH   1   4
BRANCH   1   9
ATOM      8  O   UNL     1       1.594  -0.867   0.721  0.00  0.00    -0.253 OA
ATOM      9  C   UNL     1       0.955  -0.108   0.008  0.00  0.00    +0.294 C 
BRANCH   9  10
ATOM     10  O   UNL     1       1.484   0.605  -1.016  0.00  0.00    -0.482 OA
ATOM     11  H   UNL     1       0.938   1.170  -1.525  0.00  0.00    +0.295 HD
ENDBRANCH   9  10
ENDBRANCH   1   9
TORSDOF 3
