REMARK  Name = 5289243
REMARK  5 active torsions:
REMARK  status: ('A' for Active; 'I' for Inactive)
REMARK    1  A    between atoms: C_2  and  O_11
REMARK    2  A    between atoms: C_5  and  C_17
REMARK    3  A    between atoms: CA_10  and  C_14
REMARK    4  A    between atoms: C_14  and  O_15
REMARK    5  A    between atoms: C_17  and  O_19
REMARK                            x       y       z     vdW  Elec       q    Type
REMARK                         _______ _______ _______ _____ _____    ______ ____
ROOT
ATOM      1  N   UNL     1       0.461  -1.507  -0.110  0.00  0.00    -0.401 NA
ATOM      2  C   UNL     1      -1.962  -1.832  -0.092  0.00  0.00    +0.163 C 
ATOM      3  C   UNL     1      -0.942   0.468  -0.041  0.00  0.00    +0.093 C 
ATOM      4  C   UNL     1      -0.760  -0.918  -0.104  0.00  0.00    +0.121 C 
ATOM      5  C   UNL     1       0.194   1.274   0.025  0.00  0.00    -0.005 C 
ATOM      6  C   UNL     1      -3.227  -1.182  -0.670  0.00  0.00    +0.062 C 
ATOM      7  C   UNL     1      -2.287   1.043  -0.037  0.00  0.00    -0.020 C 
ATOM      8  C   UNL     1      -3.346   0.280  -0.340  0.00  0.00    -0.027 C 
ATOM      9  C   UNL     1       1.457   0.692   0.015  0.00  0.00    +0.033 C 
ATOM     10  CA  UNL     1       1.535  -0.688  -0.055  0.00  0.00    +0.205 C 
ENDROOT
BRANCH   2  11
ATOM     11  O   UNL     1      -2.232  -2.234   1.252  0.00  0.00    -0.377 OA
ATOM     12  H   UNL     1      -1.440  -2.647   1.631  0.00  0.00    +0.211 HD
ENDBRANCH   2  11
BRANCH  10  14
ATOM     13  OXT UNL     1       3.926  -0.777  -0.047  0.00  0.00    -0.242 OA
ATOM     14  C   UNL     1       2.829  -1.347  -0.082  0.00  0.00    +0.368 C 
BRANCH  14  15
ATOM     15  O   UNL     1       2.724  -2.703  -0.151  0.00  0.00    -0.475 OA
ATOM     16  H   UNL     1       1.878  -3.107  -0.177  0.00  0.00    +0.295 HD
ENDBRANCH  14  15
ENDBRANCH  10  14
BRANCH   5  17
ATOM     17  C   UNL     1       0.114   2.765   0.115  0.00  0.00    +0.130 C 
ATOM     18  C   UNL     1       0.846   3.462  -1.034  0.00  0.00    +0.036 C 
BRANCH  17  19
ATOM     19  O   UNL     1       0.670   3.206   1.357  0.00  0.00    -0.380 OA
ATOM     20  H   UNL     1       0.211   2.768   2.091  0.00  0.00    +0.211 HD
ENDBRANCH  17  19
ENDBRANCH   5  17
TORSDOF 5
