REMARK  Name = 12473
REMARK  2 active torsions:
REMARK  status: ('A' for Active; 'I' for Inactive)
REMARK    1  A    between atoms: CA_2  and  C_8
REMARK    2  A    between atoms: C_8  and  O_9
REMARK                            x       y       z     vdW  Elec       q    Type
REMARK                         _______ _______ _______ _____ _____    ______ ____
ROOT
ATOM      1  N   PRO A   1      -0.727  -1.069  -0.001  0.00  0.00    -0.307 N 
ATOM      2  CA  PRO A   1       0.039   0.067  -0.001  0.00  0.00    +0.125 C 
ATOM      3  CB  PRO A   1      -0.812   1.151   0.000  0.00  0.00    +0.023 C 
ATOM      4  CD  PRO A   1      -2.054  -0.727   0.001  0.00  0.00    +0.062 C 
ATOM      5  CG  PRO A   1      -2.136   0.648   0.000  0.00  0.00    +0.017 C 
ATOM      6  H   PRO A   1      -0.378  -1.989  -0.001  0.00  0.00    +0.152 HD
ENDROOT
BRANCH   2   8
ATOM      7  OXT PRO A   1       2.213   1.066   0.001  0.00  0.00    -0.244 OA
ATOM      8  C   PRO A   1       1.468   0.062   0.000  0.00  0.00    +0.352 C 
BRANCH   8   9
ATOM      9  O   PRO A   1       2.009  -1.198   0.000  0.00  0.00    -0.476 OA
ATOM     10  H   PRO A   1       1.449  -1.949   0.000  0.00  0.00    +0.295 HD
ENDBRANCH   8   9
ENDBRANCH   2   8
TORSDOF 2
