REMARK  Name = 133246
REMARK  4 active torsions:
REMARK  status: ('A' for Active; 'I' for Inactive)
REMARK    1  A    between atoms: C_7  and  C_16
REMARK    2  A    between atoms: C_16  and  O_17
REMARK    3  A    between atoms: C_16  and  C_19
REMARK    4  A    between atoms: C_19  and  O_21
REMARK                            x       y       z     vdW  Elec       q    Type
REMARK                         _______ _______ _______ _____ _____    ______ ____
ROOT
ATOM      1  O   UNL     1       1.350  -2.457   0.849  0.00  0.00    -0.208 OA
ATOM      2  N   UNL     1      -0.439  -0.528   0.213  0.00  0.00    -0.253 NA
ATOM      3  N   UNL     1       0.615   2.150   0.197  0.00  0.00    -0.252 NA
ATOM      4  N   UNL     1       2.699   1.091  -0.299  0.00  0.00    -0.259 N 
ATOM      5  N   UNL     1       3.116  -1.248  -0.010  0.00  0.00    -0.301 NA
ATOM      6  N   UNL     1       4.793   0.231  -0.728  0.00  0.00    -0.320 N 
ATOM      7  C   UNL     1      -1.299   0.628  -0.060  0.00  0.00    +0.158 C 
ATOM      8  C   UNL     1      -0.754   1.870   0.635  0.00  0.00    +0.154 C 
ATOM      9  C   UNL     1       0.823  -0.273   0.229  0.00  0.00    +0.202 C 
ATOM     10  C   UNL     1       1.365   1.114   0.036  0.00  0.00    +0.160 C 
ATOM     11  C   UNL     1       1.800  -1.417   0.381  0.00  0.00    +0.228 C 
ATOM     12  C   UNL     1       3.508  -0.038  -0.330  0.00  0.00    +0.249 C 
ATOM     13  H   UNL     1       3.117   1.950  -0.537  0.00  0.00    +0.157 HD
ATOM     14  H   UNL     1       5.054   1.151  -0.961  0.00  0.00    +0.146 HD
ATOM     15  H   UNL     1       5.455  -0.496  -0.780  0.00  0.00    +0.146 HD
ENDROOT
BRANCH   7  16
ATOM     16  C   UNL     1      -2.704   0.298   0.430  0.00  0.00    +0.161 C 
BRANCH  16  17
ATOM     17  O   UNL     1      -3.532   1.441   0.226  0.00  0.00    -0.380 OA
ATOM     18  H   UNL     1      -3.142   2.208   0.675  0.00  0.00    +0.211 HD
ENDBRANCH  16  17
BRANCH  16  19
ATOM     19  C   UNL     1      -3.303  -0.929  -0.272  0.00  0.00    +0.139 C 
ATOM     20  C   UNL     1      -3.448  -0.724  -1.775  0.00  0.00    +0.034 C 
BRANCH  19  21
ATOM     21  O   UNL     1      -4.589  -1.208   0.277  0.00  0.00    -0.382 OA
ATOM     22  H   UNL     1      -4.511  -1.341   1.235  0.00  0.00    +0.210 HD
ENDBRANCH  19  21
ENDBRANCH  16  19
ENDBRANCH   7  16
TORSDOF 4
