REMARK  Name = 2084
REMARK  6 active torsions:
REMARK  status: ('A' for Active; 'I' for Inactive)
REMARK    1  A    between atoms: C_2  and  C_12
REMARK    2  A    between atoms: C_3  and  O_8
REMARK    3  A    between atoms: O_8  and  C_9
REMARK    4  A    between atoms: C_9  and  C_10
REMARK    5  A    between atoms: C_12  and  C_14
REMARK    6  A    between atoms: C_14  and  O_15
REMARK                            x       y       z     vdW  Elec       q    Type
REMARK                         _______ _______ _______ _____ _____    ______ ____
ROOT
ATOM      1 CL   UNL     1      -1.211  -2.545  -1.033  0.00  0.00    -0.079 Cl
ATOM      2  C   UNL     1       1.665  -0.288   0.578  0.00  0.00    -0.010 C 
ATOM      3  C   UNL     1      -1.124  -0.373   0.601  0.00  0.00    +0.149 C 
ATOM      4  C   UNL     1       0.991  -1.273  -0.144  0.00  0.00    +0.011 C 
ATOM      5  C   UNL     1       0.944   0.655   1.311  0.00  0.00    -0.001 C 
ATOM      6  C   UNL     1      -0.403  -1.315  -0.132  0.00  0.00    +0.091 C 
ATOM      7  C   UNL     1      -0.450   0.613   1.323  0.00  0.00    +0.037 C 
ENDROOT
BRANCH   3   8
ATOM      8  O   UNL     1      -2.487  -0.390   0.628  0.00  0.00    -0.475 OA
BRANCH   8   9
ATOM      9  C   UNL     1      -3.159   0.771   0.145  0.00  0.00    +0.205 C 
BRANCH   9  10
ATOM     10  C   UNL     1      -4.508   0.358  -0.421  0.00  0.00    +0.047 C 
ATOM     11  C   UNL     1      -5.278   1.546  -0.971  0.00  0.00    +0.004 C 
ENDBRANCH   9  10
ENDBRANCH   8   9
ENDBRANCH   3   8
BRANCH   2  12
ATOM     12  C   UNL     1       3.155  -0.241   0.566  0.00  0.00    +0.136 C 
BRANCH  12  14
ATOM     13  O   UNL     1       3.062   1.191  -1.402  0.00  0.00    -0.250 OA
ATOM     14  C   UNL     1       3.724   0.615  -0.549  0.00  0.00    +0.318 C 
BRANCH  14  15
ATOM     15  O   UNL     1       5.080   0.675  -0.500  0.00  0.00    -0.480 OA
ATOM     16  H   UNL     1       5.546   0.217   0.173  0.00  0.00    +0.295 HD
ENDBRANCH  14  15
ENDBRANCH  12  14
ENDBRANCH   2  12
TORSDOF 6
