REMARK  Name = 1714
REMARK  4 active torsions:
REMARK  status: ('A' for Active; 'I' for Inactive)
REMARK    1  A    between atoms: N_1  and  C_13
REMARK    2  A    between atoms: C_8  and  O_21
REMARK    3  A    between atoms: C_10  and  O_23
REMARK    4  A    between atoms: C_16  and  S_19
REMARK                            x       y       z     vdW  Elec       q    Type
REMARK                         _______ _______ _______ _____ _____    ______ ____
ROOT
ATOM      1  N   UNL     1       1.030   0.771   0.649  0.00  0.00    -0.301 N 
ATOM      2  N   UNL     1      -1.309  -2.637   0.851  0.00  0.00    -0.248 NA
ATOM      3  N   UNL     1       0.820  -1.531   1.085  0.00  0.00    -0.233 NA
ATOM      4  C   UNL     1      -1.136  -0.289   0.398  0.00  0.00    +0.119 C 
ATOM      5  C   UNL     1      -1.880  -1.477   0.484  0.00  0.00    +0.070 C 
ATOM      6  C   UNL     1       0.216  -0.387   0.714  0.00  0.00    +0.115 C 
ATOM      7  C   UNL     1      -1.744   0.919   0.013  0.00  0.00    +0.027 C 
ATOM      8  C   UNL     1      -3.102   0.949  -0.290  0.00  0.00    +0.169 C 
ATOM      9  C   UNL     1      -3.237  -1.418   0.175  0.00  0.00    +0.055 C 
ATOM     10  C   UNL     1      -3.849  -0.222  -0.208  0.00  0.00    +0.173 C 
ATOM     11  C   UNL     1       0.010  -2.602   1.132  0.00  0.00    +0.251 C 
ATOM     12  H   UNL     1       0.547   1.608   0.840  0.00  0.00    +0.153 HD
ENDROOT
BRANCH   1  13
ATOM     13  C   UNL     1       2.392   0.957   0.365  0.00  0.00    +0.050 C 
ATOM     14  C   UNL     1       3.060   0.077  -0.491  0.00  0.00    +0.021 C 
ATOM     15  C   UNL     1       3.091   2.024   0.938  0.00  0.00    +0.015 C 
ATOM     16  C   UNL     1       4.414   0.262  -0.772  0.00  0.00    +0.026 C 
ATOM     17  C   UNL     1       4.444   2.209   0.657  0.00  0.00    +0.002 C 
ATOM     18  C   UNL     1       5.106   1.328  -0.198  0.00  0.00    +0.006 C 
BRANCH  16  19
ATOM     19  S   UNL     1       5.260  -0.864  -1.865  0.00  0.00    -0.113 S 
ATOM     20  C   UNL     1       5.054  -2.445  -0.998  0.00  0.00    +0.074 C 
ENDBRANCH  16  19
ENDBRANCH   1  13
BRANCH   8  21
ATOM     21  O   UNL     1      -3.684   2.122  -0.662  0.00  0.00    -0.469 OA
ATOM     22  C   UNL     1      -4.228   2.935   0.377  0.00  0.00    +0.253 C 
ENDBRANCH   8  21
BRANCH  10  23
ATOM     23  O   UNL     1      -5.180  -0.215  -0.500  0.00  0.00    -0.468 OA
ATOM     24  C   UNL     1      -5.548  -0.466  -1.855  0.00  0.00    +0.253 C 
ENDBRANCH  10  23
TORSDOF 4
