REMARK  Name = 23327
REMARK  7 active torsions:
REMARK  status: ('A' for Active; 'I' for Inactive)
REMARK    1  A    between atoms: CA_1  and  N_2
REMARK    2  A    between atoms: CA_1  and  C_7
REMARK    3  A    between atoms: CA_1  and  CB_10
REMARK    4  A    between atoms: C_7  and  O_8
REMARK    5  A    between atoms: CB_10  and  CG_11
REMARK    6  A    between atoms: CG_11  and  CD_13
REMARK    7  A    between atoms: CD_13  and  OE1_14
REMARK                            x       y       z     vdW  Elec       q    Type
REMARK                         _______ _______ _______ _____ _____    ______ ____
ROOT
ATOM      1  CA  GLU A   1       1.348   0.551  -0.721  0.00  0.00    +0.036 C 
ENDROOT
BRANCH   1   2
ATOM      2  N   GLU A   1       1.500   1.887  -0.149  0.00  0.00    +0.389 N 
ATOM      3  H1  GLU A   1       1.003   2.564  -0.729  0.00  0.00    -0.088 HD
ATOM      4  H2  GLU A   1       2.489   2.131  -0.113  0.00  0.00    -0.088 HD
ATOM      5  H3  GLU A   1       1.112   1.899   0.794  0.00  0.00    -0.088 HD
ENDBRANCH   1   2
BRANCH   1   7
ATOM      6  OXT GLU A   1       2.651  -0.152   1.220  0.00  0.00    -0.253 OA
ATOM      7  C   GLU A   1       2.097  -0.429   0.165  0.00  0.00    +0.293 C 
BRANCH   7   8
ATOM      8  O   GLU A   1       2.091  -1.687  -0.351  0.00  0.00    -0.482 OA
ATOM      9  H   GLU A   1       1.655  -1.858  -1.163  0.00  0.00    +0.295 HD
ENDBRANCH   7   8
ENDBRANCH   1   7
BRANCH   1  10
ATOM     10  CB  GLU A   1      -0.129   0.162  -0.900  0.00  0.00    +0.001 C 
BRANCH  10  11
ATOM     11  CG  GLU A   1      -0.993   0.191   0.364  0.00  0.00    +0.108 C 
BRANCH  11  13
ATOM     12  OE2 GLU A   1      -2.906  -0.428  -0.975  0.00  0.00    -0.250 OA
ATOM     13  CD  GLU A   1      -2.451  -0.105   0.115  0.00  0.00    +0.314 C 
BRANCH  13  14
ATOM     14  OE1 GLU A   1      -3.208   0.010   1.234  0.00  0.00    -0.480 OA
ATOM     15  HE1 GLU A   1      -2.811   0.260   2.044  0.00  0.00    +0.295 HD
ENDBRANCH  13  14
ENDBRANCH  11  13
ENDBRANCH  10  11
ENDBRANCH   1  10
TORSDOF 7
