REMARK  Name = 5287761
REMARK  3 active torsions:
REMARK  status: ('A' for Active; 'I' for Inactive)
REMARK    1  A    between atoms: C_4  and  S_9
REMARK    2  A    between atoms: C_5  and  C_14
REMARK    3  A    between atoms: C_14  and  O_15
REMARK                            x       y       z     vdW  Elec       q    Type
REMARK                         _______ _______ _______ _____ _____    ______ ____
ROOT
ATOM      1  N   UNK     1       0.049  -0.515   0.780  0.00  0.00    +0.407 N 
ATOM      2  C   UNK     1       1.235   1.251  -0.325  0.00  0.00    -0.009 C 
ATOM      3  C   UNK     1      -0.274   1.394  -0.505  0.00  0.00    +0.001 C 
ATOM      4  C   UNK     1      -0.771  -0.028  -0.326  0.00  0.00    +0.080 C 
ATOM      5  C   UNK     1       1.387   0.058   0.620  0.00  0.00    +0.042 C 
ATOM      6  C   UNK     1       1.875   2.522   0.214  0.00  0.00    -0.002 C 
ATOM      7  H   UNK     1       0.100  -1.533   0.754  0.00  0.00    -0.081 HD
ATOM      8  H   UNK     1      -0.354  -0.240   1.676  0.00  0.00    -0.081 HD
ENDROOT
BRANCH   4   9
ATOM      9  S   UNK     1      -2.501  -0.092  -0.009  0.00  0.00    +0.003 S 
ATOM     10  O   UNK     1      -2.662  -1.713  -0.083  0.00  0.00    -0.071 OA
ATOM     11  O   UNK     1      -3.200   0.501  -1.131  0.00  0.00    -0.071 OA
ATOM     12  O   UNK     1      -2.735   0.341   1.354  0.00  0.00    -0.071 OA
ENDBRANCH   4   9
BRANCH   5  14
ATOM     13  O   UNK     1       1.847  -2.128  -0.347  0.00  0.00    -0.253 OA
ATOM     14  C   UNK     1       2.240  -1.016  -0.030  0.00  0.00    +0.294 C 
BRANCH  14  15
ATOM     15  O   UNK     1       3.509  -0.575  -0.212  0.00  0.00    -0.482 OA
ATOM     16  H   UNK     1       3.746   0.292   0.054  0.00  0.00    +0.295 HD
ENDBRANCH  14  15
ENDBRANCH   5  14
TORSDOF 3
