158376
  -OEChem-10051719473D

 54 56  0     1  0  0  0  0  0999 V2000
   -3.5382   -1.2393    1.7838 O   0  0  0  0  0  0  0  0  0  0  0  0
    4.1033    2.5896   -0.1908 O   0  0  0  0  0  0  0  0  0  0  0  0
    6.1656   -1.2194   -2.7690 O   0  0  0  0  0  0  0  0  0  0  0  0
    3.9024   -1.3792   -2.8177 O   0  0  0  0  0  0  0  0  0  0  0  0
    5.2438   -3.5125    2.3752 O   0  0  0  0  0  0  0  0  0  0  0  0
    6.7748   -1.8390    2.4306 O   0  0  0  0  0  0  0  0  0  0  0  0
   -2.2201    2.6683    0.6249 N   0  0  3  0  0  0  0  0  0  0  0  0
    3.6075    0.4202   -0.8443 N   0  0  0  0  0  0  0  0  0  0  0  0
   -5.2025   -2.5723    0.7090 N   0  0  0  0  0  0  0  0  0  0  0  0
   -6.1981   -1.5139   -1.2456 N   0  0  0  0  0  0  0  0  0  0  0  0
   -5.5581    0.6541   -2.0041 N   0  0  0  0  0  0  0  0  0  0  0  0
   -6.8605   -3.6457   -0.5426 N   0  0  0  0  0  0  0  0  0  0  0  0
   -3.2408    1.9314   -0.0937 C   0  0  0  0  0  0  0  0  0  0  0  0
   -3.5736    0.5790    0.4565 C   0  0  0  0  0  0  0  0  0  0  0  0
    4.9614    0.0133   -1.1234 C   0  0  1  0  0  0  0  0  0  0  0  0
    5.6730   -0.5607    0.1078 C   0  0  0  0  0  0  0  0  0  0  0  0
   -0.8537    2.4260    0.3729 C   0  0  0  0  0  0  0  0  0  0  0  0
   -4.5225   -0.3477   -0.0386 C   0  0  0  0  0  0  0  0  0  0  0  0
    1.8487    1.9482   -0.1276 C   0  0  0  0  0  0  0  0  0  0  0  0
    5.0599   -1.8362    0.6999 C   0  0  0  0  0  0  0  0  0  0  0  0
   -2.6217    3.6670    1.5955 C   0  0  0  0  0  0  0  0  0  0  0  0
   -4.4672   -1.4507    0.8077 C   0  0  0  0  0  0  0  0  0  0  0  0
    0.1213    3.1495    1.0597 C   0  0  0  0  0  0  0  0  0  0  0  0
   -0.4776    1.4636   -0.5641 C   0  0  0  0  0  0  0  0  0  0  0  0
   -3.0043   -0.0097    1.5622 C   0  0  0  0  0  0  0  0  0  0  0  0
    3.2879    1.6939   -0.3945 C   0  0  0  0  0  0  0  0  0  0  0  0
    1.4724    2.9106    0.8093 C   0  0  0  0  0  0  0  0  0  0  0  0
    0.8737    1.2247   -0.8143 C   0  0  0  0  0  0  0  0  0  0  0  0
   -5.4297   -0.4106   -1.0936 C   0  0  0  0  0  0  0  0  0  0  0  0
    4.9210   -0.9353   -2.3037 C   0  0  0  0  0  0  0  0  0  0  0  0
    5.7907   -2.3551    1.9194 C   0  0  0  0  0  0  0  0  0  0  0  0
   -6.0389   -2.5121   -0.3471 C   0  0  0  0  0  0  0  0  0  0  0  0
   -3.0075    1.8700   -1.1633 H   0  0  0  0  0  0  0  0  0  0  0  0
   -4.1715    2.5161   -0.0683 H   0  0  0  0  0  0  0  0  0  0  0  0
    5.5074    0.9047   -1.4582 H   0  0  0  0  0  0  0  0  0  0  0  0
    5.7019    0.2080    0.8915 H   0  0  0  0  0  0  0  0  0  0  0  0
    6.7202   -0.7675   -0.1489 H   0  0  0  0  0  0  0  0  0  0  0  0
    2.8897   -0.2939   -0.9113 H   0  0  0  0  0  0  0  0  0  0  0  0
    5.0694   -2.6309   -0.0542 H   0  0  0  0  0  0  0  0  0  0  0  0
    4.0227   -1.6439    0.9955 H   0  0  0  0  0  0  0  0  0  0  0  0
   -2.2287    3.4334    2.5914 H   0  0  0  0  0  0  0  0  0  0  0  0
   -2.2898    4.6667    1.2942 H   0  0  0  0  0  0  0  0  0  0  0  0
   -3.7117    3.7139    1.6994 H   0  0  0  0  0  0  0  0  0  0  0  0
   -0.1202    3.9088    1.7970 H   0  0  0  0  0  0  0  0  0  0  0  0
   -1.1847    0.8662   -1.1287 H   0  0  0  0  0  0  0  0  0  0  0  0
   -2.2467    0.2938    2.2703 H   0  0  0  0  0  0  0  0  0  0  0  0
    2.2177    3.4813    1.3572 H   0  0  0  0  0  0  0  0  0  0  0  0
    1.1235    0.4882   -1.5724 H   0  0  0  0  0  0  0  0  0  0  0  0
   -6.2294    0.5680   -2.7556 H   0  0  0  0  0  0  0  0  0  0  0  0
   -5.0132    1.4977   -1.9172 H   0  0  0  0  0  0  0  0  0  0  0  0
    6.1377   -1.8208   -3.5435 H   0  0  0  0  0  0  0  0  0  0  0  0
   -6.7889   -4.4268    0.0946 H   0  0  0  0  0  0  0  0  0  0  0  0
   -7.5084   -3.6616   -1.3181 H   0  0  0  0  0  0  0  0  0  0  0  0
    5.7255   -3.8620    3.1550 H   0  0  0  0  0  0  0  0  0  0  0  0
  1 22  1  0  0  0  0
  1 25  1  0  0  0  0
  2 26  2  0  0  0  0
  3 30  1  0  0  0  0
  3 51  1  0  0  0  0
  4 30  2  0  0  0  0
  5 31  1  0  0  0  0
  5 54  1  0  0  0  0
  6 31  2  0  0  0  0
  7 13  1  0  0  0  0
  7 17  1  0  0  0  0
  7 21  1  0  0  0  0
  8 15  1  0  0  0  0
  8 26  1  0  0  0  0
  8 38  1  0  0  0  0
  9 22  2  0  0  0  0
  9 32  1  0  0  0  0
 10 29  1  0  0  0  0
 10 32  2  0  0  0  0
 11 29  1  0  0  0  0
 11 49  1  0  0  0  0
 11 50  1  0  0  0  0
 12 32  1  0  0  0  0
 12 52  1  0  0  0  0
 12 53  1  0  0  0  0
 13 14  1  0  0  0  0
 13 33  1  0  0  0  0
 13 34  1  0  0  0  0
 14 18  1  0  0  0  0
 14 25  2  0  0  0  0
 15 16  1  0  0  0  0
 15 30  1  0  0  0  0
 15 35  1  0  0  0  0
 16 20  1  0  0  0  0
 16 36  1  0  0  0  0
 16 37  1  0  0  0  0
 17 23  2  0  0  0  0
 17 24  1  0  0  0  0
 18 22  1  0  0  0  0
 18 29  2  0  0  0  0
 19 26  1  0  0  0  0
 19 27  2  0  0  0  0
 19 28  1  0  0  0  0
 20 31  1  0  0  0  0
 20 39  1  0  0  0  0
 20 40  1  0  0  0  0
 21 41  1  0  0  0  0
 21 42  1  0  0  0  0
 21 43  1  0  0  0  0
 23 27  1  0  0  0  0
 23 44  1  0  0  0  0
 24 28  2  0  0  0  0
 24 45  1  0  0  0  0
 25 46  1  0  0  0  0
 27 47  1  0  0  0  0
 28 48  1  0  0  0  0
M  END
> <DATABASE_ID>
DB02026

> <DATABASE_NAME>
drugbank

> <ORIGINAL_SOURCE>
PUBCHEM

> <ORIGINAL_SOURCE_URL>
https://pubchem.ncbi.nlm.nih.gov/rest/pug/compound/inchikey/WXINNGCGSCFUCR-ZDUSSCGKSA-N/SDF?record_type=3d

> <SMILES>
[H][C@@](CCC(O)=O)(NC(=O)C1=CC=C(C=C1)N(C)CC1=COC2=NC(N)=NC(N)=C12)C(O)=O

> <INCHI_IDENTIFIER>
InChI=1S/C20H22N6O6/c1-26(8-11-9-32-18-15(11)16(21)24-20(22)25-18)12-4-2-10(3-5-12)17(29)23-13(19(30)31)6-7-14(27)28/h2-5,9,13H,6-8H2,1H3,(H,23,29)(H,27,28)(H,30,31)(H4,21,22,24,25)/t13-/m0/s1

> <INCHI_KEY>
WXINNGCGSCFUCR-ZDUSSCGKSA-N

> <FORMULA>
C20H22N6O6

> <MOLECULAR_WEIGHT>
442.4253

> <EXACT_MASS>
442.160082466

> <JCHEM_ACCEPTOR_COUNT>
10

> <JCHEM_AVERAGE_POLARIZABILITY>
44.43983378549897

> <JCHEM_BIOAVAILABILITY>
1

> <JCHEM_DONOR_COUNT>
5

> <JCHEM_FORMAL_CHARGE>
0

> <JCHEM_GHOSE_FILTER>
0

> <JCHEM_IUPAC>
(2S)-2-({4-[({2,4-diaminofuro[2,3-d]pyrimidin-5-yl}methyl)(methyl)amino]phenyl}formamido)pentanedioic acid

> <ALOGPS_LOGP>
0.37

> <JCHEM_LOGP>
-0.5832459415241503

> <ALOGPS_LOGS>
-3.02

> <JCHEM_MDDR_LIKE_RULE>
1

> <JCHEM_NUMBER_OF_RINGS>
3

> <JCHEM_PHYSIOLOGICAL_CHARGE>
-2

> <JCHEM_PKA>
3.912811623110838

> <JCHEM_PKA_STRONGEST_ACIDIC>
3.2182490051396875

> <JCHEM_PKA_STRONGEST_BASIC>
4.479444198828971

> <JCHEM_POLAR_SURFACE_AREA>
197.89999999999998

> <JCHEM_REFRACTIVITY>
115.56149999999998

> <JCHEM_ROTATABLE_BOND_COUNT>
9

> <JCHEM_RULE_OF_FIVE>
1

> <ALOGPS_SOLUBILITY>
4.25e-01 g/l

> <JCHEM_TRADITIONAL_IUPAC>
(2S)-2-({4-[({2,4-diaminofuro[2,3-d]pyrimidin-5-yl}methyl)(methyl)amino]phenyl}formamido)pentanedioic acid

> <JCHEM_VEBER_RULE>
0

> <DRUGBANK_ID>
DB02026

> <SECONDARY_ACCESSION_NUMBERS>
EXPT00981

> <DRUG_GROUPS>
experimental

> <GENERIC_NAME>
Furo[2,3d]Pyrimidine Antifolate

$$$$
