REMARK  Name = 445770
REMARK  5 active torsions:
REMARK  status: ('A' for Active; 'I' for Inactive)
REMARK    1  A    between atoms: N_2  and  C_17
REMARK    2  A    between atoms: C_3  and  C_5
REMARK    3  A    between atoms: C_6  and  S_11
REMARK    4  A    between atoms: S_11  and  N_14
REMARK    5  A    between atoms: C_17  and  C_23
REMARK                            x       y       z     vdW  Elec       q    Type
REMARK                         _______ _______ _______ _____ _____    ______ ____
ROOT
ATOM      1  O   UNL     1      -0.077  -2.204   0.971  0.00  0.00    -0.270 OA
ATOM      2  N   UNL     1       0.362  -0.007   1.565  0.00  0.00    -0.297 N 
ATOM      3  C   UNL     1      -0.460  -1.025   1.069  0.00  0.00    +0.246 C 
ATOM      4  H   UNL     1      -0.005   0.906   1.615  0.00  0.00    +0.150 HD
ENDROOT
BRANCH   3   5
ATOM      5  C   UNL     1      -1.796  -0.644   0.638  0.00  0.00    +0.053 C 
ATOM      6  C   UNL     1      -4.358   0.087  -0.188  0.00  0.00    +0.122 C 
ATOM      7  C   UNL     1      -2.452  -1.390  -0.341  0.00  0.00    +0.006 C 
ATOM      8  C   UNL     1      -2.420   0.468   1.204  0.00  0.00    +0.006 C 
ATOM      9  C   UNL     1      -3.733  -1.024  -0.754  0.00  0.00    +0.020 C 
ATOM     10  C   UNL     1      -3.702   0.833   0.791  0.00  0.00    +0.020 C 
BRANCH   6  11
ATOM     11  S   UNL     1      -5.962   0.544  -0.704  0.00  0.00    +0.057 S 
ATOM     12  O   UNL     1      -6.594   1.303   0.366  0.00  0.00    -0.153 OA
ATOM     13  O   UNL     1      -6.625  -0.635  -1.243  0.00  0.00    -0.153 OA
BRANCH  11  14
ATOM     14  N   UNL     1      -5.599   1.608  -1.991  0.00  0.00    -0.203 NA
ATOM     15  H   UNL     1      -6.466   1.960  -2.396  0.00  0.00    +0.144 HD
ATOM     16  H   UNL     1      -5.068   1.109  -2.705  0.00  0.00    +0.144 HD
ENDBRANCH  11  14
ENDBRANCH   6  11
ENDBRANCH   3   5
BRANCH   2  17
ATOM     17  C   UNL     1       1.721  -0.222   2.010  0.00  0.00    +0.121 C 
BRANCH  17  23
ATOM     18  F   UNL     1       2.903   2.284   1.463  0.00  0.00    -0.202 F 
ATOM     19  F   UNL     1       2.554  -2.306   0.300  0.00  0.00    -0.202 F 
ATOM     20  F   UNL     1       4.351  -1.925  -1.715  0.00  0.00    -0.199 F 
ATOM     21  F   UNL     1       4.702   2.652  -0.552  0.00  0.00    -0.199 F 
ATOM     22  F   UNL     1       5.428   0.550  -2.144  0.00  0.00    -0.199 F 
ATOM     23  C   UNL     1       2.714  -0.014   0.898  0.00  0.00    +0.057 A 
ATOM     24  C   UNL     1       3.254   1.248   0.689  0.00  0.00    +0.170 A 
ATOM     25  C   UNL     1       3.076  -1.088   0.097  0.00  0.00    +0.170 A 
ATOM     26  C   UNL     1       3.996  -0.897  -0.934  0.00  0.00    +0.197 A 
ATOM     27  C   UNL     1       4.173   1.439  -0.342  0.00  0.00    +0.197 A 
ATOM     28  C   UNL     1       4.545   0.367  -1.154  0.00  0.00    +0.199 A 
ENDBRANCH  17  23
ENDBRANCH   2  17
TORSDOF 5
