REMARK  Name = 546
REMARK  5 active torsions:
REMARK  status: ('A' for Active; 'I' for Inactive)
REMARK    1  A    between atoms: P_1  and  O_3
REMARK    2  A    between atoms: P_1  and  O_5
REMARK    3  A    between atoms: P_1  and  C_7
REMARK    4  A    between atoms: C_7  and  C_9
REMARK    5  A    between atoms: C_9  and  O_10
REMARK                            x       y       z     vdW  Elec       q    Type
REMARK                         _______ _______ _______ _____ _____    ______ ____
ROOT
ATOM      1  P   UNL     1       1.218  -0.016   0.085  0.00  0.00    +0.348 P 
ATOM      2  O   UNL     1       1.362  -1.008   1.188  0.00  0.00    -0.258 OA
ENDROOT
BRANCH   1   3
ATOM      3  O   UNL     1       2.313   1.165   0.051  0.00  0.00    -0.323 OA
ATOM      4  H   UNL     1       3.204   0.781   0.032  0.00  0.00    +0.220 HD
ENDBRANCH   1   3
BRANCH   1   5
ATOM      5  O   UNL     1       1.248  -0.614  -1.411  0.00  0.00    -0.323 OA
ATOM      6  H   UNL     1       2.061  -1.129  -1.537  0.00  0.00    +0.220 HD
ENDBRANCH   1   5
BRANCH   1   7
ATOM      7  C   UNL     1      -0.338   0.890   0.116  0.00  0.00    +0.224 C 
BRANCH   7   9
ATOM      8  O   UNL     1      -1.532  -1.190  -0.100  0.00  0.00    -0.250 OA
ATOM      9  C   UNL     1      -1.561   0.029   0.004  0.00  0.00    +0.326 C 
BRANCH   9  10
ATOM     10  O   UNL     1      -2.711   0.744   0.068  0.00  0.00    -0.480 OA
ATOM     11  H   UNL     1      -2.678   1.677   0.147  0.00  0.00    +0.295 HD
ENDBRANCH   9  10
ENDBRANCH   7   9
ENDBRANCH   1   7
TORSDOF 5
