REMARK  Name = 5288784
REMARK  12 active torsions:
REMARK  status: ('A' for Active; 'I' for Inactive)
REMARK    1  A    between atoms: N_1  and  C_15
REMARK    2  A    between atoms: CA_2  and  C_4
REMARK    3  A    between atoms: CA_2  and  C_29
REMARK    4  A    between atoms: C_5  and  C_8
REMARK    5  A    between atoms: C_8  and  N_9
REMARK    6  A    between atoms: C_15  and  C_16
REMARK    7  A    between atoms: C_16  and  C_17
REMARK    8  A    between atoms: C_16  and  C_25
REMARK    9  A    between atoms: C_17  and  C_18
REMARK   10  A    between atoms: C_18  and  C_19
REMARK   11  A    between atoms: C_25  and  S_26
REMARK   12  A    between atoms: C_29  and  O_30
REMARK                            x       y       z     vdW  Elec       q    Type
REMARK                         _______ _______ _______ _____ _____    ______ ____
ROOT
ATOM      1  N   UNL     1       0.103  -1.098   0.862  0.00  0.00    -0.172 NA
ATOM      2  CA  UNL     1       0.540   0.075   1.207  0.00  0.00    +0.154 C 
ENDROOT
BRANCH   2   4
ATOM      3  S   UNL     1       3.087  -0.819   0.738  0.00  0.00    -0.088 S 
ATOM      4  C   UNL     1       1.968   0.390   1.204  0.00  0.00    +0.051 C 
ATOM      5  C   UNL     1       4.412   0.239   0.976  0.00  0.00    +0.029 C 
ATOM      6  C   UNL     1       2.592   1.573   1.533  0.00  0.00    +0.008 C 
ATOM      7  C   UNL     1       4.008   1.485   1.401  0.00  0.00    +0.004 C 
BRANCH   5   8
ATOM      8  C   UNL     1       5.786  -0.245   0.718  0.00  0.00    +0.153 C 
BRANCH   8   9
ATOM      9  N   UNL     1       6.195  -0.014  -0.678  0.00  0.00    -0.167 N 
ATOM     10  N   UNL     1       6.806   1.120  -1.050  0.00  0.00    -0.052 NA
ATOM     11  N   UNL     1       6.553  -0.230  -2.806  0.00  0.00    -0.108 NA
ATOM     12  N   UNL     1       7.022   0.982  -2.352  0.00  0.00    -0.025 NA
ATOM     13  C   UNL     1       6.046  -0.830  -1.754  0.00  0.00    +0.211 C 
ENDBRANCH   8   9
ENDBRANCH   5   8
ENDBRANCH   2   4
BRANCH   1  15
ATOM     14  O   UNL     1      -1.930  -1.316   1.925  0.00  0.00    -0.273 OA
ATOM     15  C   UNL     1      -1.251  -1.348   0.902  0.00  0.00    +0.246 C 
BRANCH  15  16
ATOM     16  C   UNL     1      -1.834  -1.736  -0.462  0.00  0.00    +0.089 C 
BRANCH  16  17
ATOM     17  C   UNL     1      -3.305  -1.303  -0.615  0.00  0.00    +0.015 C 
BRANCH  17  18
ATOM     18  C   UNL     1      -3.473   0.221  -0.541  0.00  0.00    +0.027 C 
BRANCH  18  19
ATOM     19  C   UNL     1      -4.905   0.632  -0.772  0.00  0.00    -0.022 C 
ATOM     20  C   UNL     1      -5.353   0.903  -2.066  0.00  0.00    -0.004 C 
ATOM     21  C   UNL     1      -5.782   0.742   0.307  0.00  0.00    -0.004 C 
ATOM     22  C   UNL     1      -6.678   1.284  -2.279  0.00  0.00    -0.000 C 
ATOM     23  C   UNL     1      -7.107   1.123   0.093  0.00  0.00    -0.000 C 
ATOM     24  C   UNL     1      -7.555   1.394  -1.200  0.00  0.00    -0.000 C 
ENDBRANCH  18  19
ENDBRANCH  17  18
ENDBRANCH  16  17
BRANCH  16  25
ATOM     25  C   UNL     1      -1.624  -3.237  -0.728  0.00  0.00    +0.063 C 
BRANCH  25  26
ATOM     26  S   UNL     1      -2.375  -4.341   0.511  0.00  0.00    -0.167 S 
ATOM     27  H   UNL     1      -2.127  -5.635   0.175  0.00  0.00    +0.102 HD
ENDBRANCH  25  26
ENDBRANCH  16  25
ENDBRANCH  15  16
ENDBRANCH   1  15
BRANCH   2  29
ATOM     28  OXT UNL     1      -0.755   1.330   2.772  0.00  0.00    -0.244 OA
ATOM     29  C   UNL     1      -0.411   1.164   1.620  0.00  0.00    +0.354 C 
BRANCH  29  30
ATOM     30  O   UNL     1      -0.780   1.860   0.535  0.00  0.00    -0.476 OA
ATOM     31  H   UNL     1      -0.440   1.629  -0.307  0.00  0.00    +0.295 HD
ENDBRANCH  29  30
ENDBRANCH   2  29
TORSDOF 12
