REMARK  Name = 774282
REMARK  6 active torsions:
REMARK  status: ('A' for Active; 'I' for Inactive)
REMARK    1  A    between atoms: N_2  and  CA_10
REMARK    2  A    between atoms: C_3  and  C_6
REMARK    3  A    between atoms: CA_10  and  C_12
REMARK    4  A    between atoms: CA_10  and  CB_15
REMARK    5  A    between atoms: C_12  and  O_13
REMARK    6  A    between atoms: CB_15  and  CG_16
REMARK                            x       y       z     vdW  Elec       q    Type
REMARK                         _______ _______ _______ _____ _____    ______ ____
ROOT
ATOM      1  O   UNK A   0      -0.422  -0.111   1.951  0.00  0.00    -0.267 OA
ATOM      2  N   LEU A   1       0.325   0.354  -0.195  0.00  0.00    -0.291 N 
ATOM      3  C   UNK A   0      -0.650   0.132   0.769  0.00  0.00    +0.281 C 
ATOM      4  H   LEU A   1       0.042   0.542  -1.119  0.00  0.00    +0.150 HD
ENDROOT
BRANCH   3   6
ATOM      5  O   UNK A   0      -2.217   0.423  -1.003  0.00  0.00    -0.446 OA
ATOM      6  C   UNK A   0      -2.057   0.176   0.294  0.00  0.00    +0.198 C 
ATOM      7  C   UNK A   0      -3.190   0.003   0.979  0.00  0.00    +0.045 C 
ATOM      8  C   UNK A   0      -4.207   0.157   0.007  0.00  0.00    +0.044 C 
ATOM      9  C   UNK A   0      -3.564   0.411  -1.182  0.00  0.00    +0.180 C 
ENDBRANCH   3   6
BRANCH   2  10
ATOM     10  CA  LEU A   1       1.733   0.320   0.104  0.00  0.00    +0.172 C 
BRANCH  10  12
ATOM     11  OXT LEU A   1       3.576   1.879   0.269  0.00  0.00    -0.248 OA
ATOM     12  C   LEU A   1       2.411   1.672  -0.053  0.00  0.00    +0.332 C 
BRANCH  12  13
ATOM     13  O   LEU A   1       1.607   2.652  -0.529  0.00  0.00    -0.479 OA
ATOM     14  H   LEU A   1       0.721   2.458  -0.765  0.00  0.00    +0.295 HD
ENDBRANCH  12  13
ENDBRANCH  10  12
BRANCH  10  15
ATOM     15  CB  LEU A   1       2.460  -0.805  -0.647  0.00  0.00    +0.031 C 
BRANCH  15  16
ATOM     16  CG  LEU A   1       1.876  -2.233  -0.545  0.00  0.00    +0.002 C 
ATOM     17  CD1 LEU A   1       1.841  -2.659   0.928  0.00  0.00    +0.000 C 
ATOM     18  CD2 LEU A   1       0.479  -2.373  -1.147  0.00  0.00    +0.000 C 
ENDBRANCH  15  16
ENDBRANCH  10  15
ENDBRANCH   2  10
TORSDOF 6
