REMARK  Name = 8060
REMARK  4 active torsions:
REMARK  status: ('A' for Active; 'I' for Inactive)
REMARK    1  A    between atoms: C_1  and  N_2
REMARK    2  A    between atoms: C_1  and  C_6
REMARK    3  A    between atoms: C_6  and  C_7
REMARK    4  A    between atoms: C_7  and  C_8
REMARK                            x       y       z     vdW  Elec       q    Type
REMARK                         _______ _______ _______ _____ _____    ______ ____
ROOT
ATOM      1  C   UNL     1       1.876   0.537   0.014  0.00  0.00    -0.086 C 
ENDROOT
BRANCH   1   2
ATOM      2  N   UNL     1       3.113  -0.234  -0.011  0.00  0.00    +0.380 N 
ATOM      3  H   UNL     1       3.910   0.402   0.002  0.00  0.00    -0.089 HD
ATOM      4  H   UNL     1       3.143  -0.800  -0.859  0.00  0.00    -0.089 HD
ATOM      5  H   UNL     1       3.150  -0.843   0.806  0.00  0.00    -0.089 HD
ENDBRANCH   1   2
BRANCH   1   6
ATOM      6  C   UNL     1       0.667  -0.398  -0.005  0.00  0.00    -0.024 C 
BRANCH   6   7
ATOM      7  C   UNL     1      -0.643   0.393  -0.001  0.00  0.00    -0.002 C 
BRANCH   7   8
ATOM      8  C   UNL     1      -1.854  -0.540   0.016  0.00  0.00    -0.000 C 
ATOM      9  C   UNL     1      -3.159   0.241  -0.013  0.00  0.00    -0.000 C 
ENDBRANCH   7   8
ENDBRANCH   6   7
ENDBRANCH   1   6
TORSDOF 4
