REMARK  Name = 3387240
REMARK  0 active torsions:
REMARK  status: ('A' for Active; 'I' for Inactive)
REMARK                            x       y       z     vdW  Elec       q    Type
REMARK                         _______ _______ _______ _____ _____    ______ ____
ROOT
ATOM      1  N   UNL     1       0.013  -0.045   0.000  0.00  0.00    -0.141 N 
ATOM      2  N   UNL     1      -0.661   1.128   0.000  0.00  0.00    -0.147 NA
ATOM      3  N   UNL     1       2.085   1.172   0.000  0.00  0.00    -0.373 N 
ATOM      4  N   UNL     1       2.103  -1.231   0.000  0.00  0.00    -0.331 N 
ATOM      5  N   UNL     1      -2.116  -0.631   0.000  0.00  0.00    -0.203 NA
ATOM      6  C   UNL     1       1.400  -0.035   0.000  0.00  0.00    +0.178 C 
ATOM      7  C   UNL     1      -0.921  -1.097   0.000  0.00  0.00    +0.193 C 
ATOM      8  C   UNL     1      -1.903   0.739   0.000  0.00  0.00    +0.219 C 
ATOM      9  H   UNL     1       1.586   2.021   0.000  0.00  0.00    +0.158 HD
ATOM     10  H   UNL     1       3.069   1.179   0.000  0.00  0.00    +0.158 HD
ATOM     11  H   UNL     1       1.617  -2.087   0.000  0.00  0.00    +0.145 HD
ATOM     12  H   UNL     1       3.087  -1.223   0.000  0.00  0.00    +0.145 HD
ENDROOT
TORSDOF 0
