REMARK  Name = 445732
REMARK  8 active torsions:
REMARK  status: ('A' for Active; 'I' for Inactive)
REMARK    1  A    between atoms: N_2  and  C_15
REMARK    2  A    between atoms: C_15  and  C_16
REMARK    3  A    between atoms: C_16  and  N_17
REMARK    4  A    between atoms: N_17  and  CA_20
REMARK    5  A    between atoms: CA_20  and  CB_21
REMARK    6  A    between atoms: CA_20  and  C_24
REMARK    7  A    between atoms: CB_21  and  O_22
REMARK    8  A    between atoms: C_24  and  O_25
REMARK                            x       y       z     vdW  Elec       q    Type
REMARK                         _______ _______ _______ _____ _____    ______ ____
ROOT
ATOM      1  O   UNL     1       0.873   1.470  -1.463  0.00  0.00    -0.212 OA
ATOM      2  N   UNL     1       0.731  -1.277  -0.224  0.00  0.00    -0.235 NA
ATOM      3  N   UNL     1       2.429  -2.171   0.924  0.00  0.00    -0.240 NA
ATOM      4  N   UNL     1       3.906  -0.265   0.651  0.00  0.00    -0.263 N 
ATOM      5  N   UNL     1       3.011   1.596  -0.611  0.00  0.00    -0.304 NA
ATOM      6  N   UNL     1       5.172   1.624   0.296  0.00  0.00    -0.320 N 
ATOM      7  C   UNL     1       1.731  -0.347  -0.238  0.00  0.00    +0.233 C 
ATOM      8  C   UNL     1       2.751  -0.927   0.472  0.00  0.00    +0.140 C 
ATOM      9  C   UNL     1       1.198  -2.356   0.487  0.00  0.00    +0.203 C 
ATOM     10  C   UNL     1       1.791   0.961  -0.831  0.00  0.00    +0.204 C 
ATOM     11  C   UNL     1       3.965   1.003   0.077  0.00  0.00    +0.248 C 
ATOM     12  H   UNL     1       4.660  -0.650   1.154  0.00  0.00    +0.157 HD
ATOM     13  H   UNL     1       5.874   1.166   0.813  0.00  0.00    +0.146 HD
ATOM     14  H   UNL     1       5.334   2.526  -0.062  0.00  0.00    +0.146 HD
ENDROOT
BRANCH   2  15
ATOM     15  C   UNL     1      -0.574  -1.171  -0.831  0.00  0.00    +0.052 C 
BRANCH  15  16
ATOM     16  C   ACE A   0      -1.599  -0.564   0.123  0.00  0.00    -0.064 C 
BRANCH  16  17
ATOM     17  N   UNL     1      -2.894  -0.451  -0.536  0.00  0.00    +0.389 N 
ATOM     18  H1  UNL     1      -3.208  -1.381  -0.816  0.00  0.00    -0.084 HD
ATOM     19  H2  UNL     1      -2.792   0.152  -1.352  0.00  0.00    -0.084 HD
BRANCH  17  20
ATOM     20  CA  UNL     1      -3.883   0.137   0.357  0.00  0.00    -0.002 C 
BRANCH  20  21
ATOM     21  CB  UNL     1      -5.225   0.216  -0.369  0.00  0.00    +0.118 C 
BRANCH  21  22
ATOM     22  O   UNL     1      -5.615  -1.082  -0.799  0.00  0.00    -0.384 OA
ATOM     23  H   UNL     1      -6.467  -1.028  -1.260  0.00  0.00    +0.210 HD
ENDBRANCH  21  22
ENDBRANCH  20  21
BRANCH  20  24
ATOM     24  C   UNL     1      -3.404   1.517   0.817  0.00  0.00    +0.118 C 
BRANCH  24  25
ATOM     25  O   UNL     1      -4.364   2.087   1.698  0.00  0.00    -0.384 OA
ATOM     26  H   UNL     1      -4.059   2.961   1.988  0.00  0.00    +0.210 HD
ENDBRANCH  24  25
ENDBRANCH  20  24
ENDBRANCH  17  20
ENDBRANCH  16  17
ENDBRANCH  15  16
ENDBRANCH   2  15
TORSDOF 8
