REMARK  Name = 9543425
REMARK  10 active torsions:
REMARK  status: ('A' for Active; 'I' for Inactive)
REMARK    1  A    between atoms: C_1  and  C_2
REMARK    2  A    between atoms: C_1  and  C_8
REMARK    3  A    between atoms: C_2  and  C_3
REMARK    4  A    between atoms: C_3  and  C_4
REMARK    5  A    between atoms: C_4  and  C_5
REMARK    6  A    between atoms: C_5  and  C_6
REMARK    7  A    between atoms: C_8  and  S_9
REMARK    8  A    between atoms: S_9  and  C_11
REMARK    9  A    between atoms: C_11  and  C_12
REMARK   10  A    between atoms: C_12  and  O_13
REMARK                            x       y       z     vdW  Elec       q    Type
REMARK                         _______ _______ _______ _____ _____    ______ ____
ROOT
ATOM      1  C   UNL     1       0.377   0.149  -0.342  0.00  0.00    +0.014 C 
ENDROOT
BRANCH   1   2
ATOM      2  C   UNL     1      -0.887  -0.562   0.147  0.00  0.00    +0.001 C 
BRANCH   2   3
ATOM      3  C   UNL     1      -2.145   0.227  -0.224  0.00  0.00    +0.000 C 
BRANCH   3   4
ATOM      4  C   UNL     1      -3.443  -0.454   0.222  0.00  0.00    +0.000 C 
BRANCH   4   5
ATOM      5  C   UNL     1      -4.699   0.350  -0.127  0.00  0.00    +0.000 C 
BRANCH   5   6
ATOM      6  C   UNL     1      -5.997  -0.361   0.265  0.00  0.00    +0.000 C 
ATOM      7  C   UNL     1      -7.248   0.443  -0.054  0.00  0.00    +0.000 C 
ENDBRANCH   5   6
ENDBRANCH   4   5
ENDBRANCH   3   4
ENDBRANCH   2   3
ENDBRANCH   1   2
BRANCH   1   8
ATOM      8  C   UNL     1       1.629  -0.617   0.062  0.00  0.00    +0.092 C 
BRANCH   8   9
ATOM      9  S   UNL     1       3.122   0.228  -0.545  0.00  0.00    +0.044 S 
ATOM     10  O   UNL     1       3.264   1.493   0.242  0.00  0.00    -0.256 OA
BRANCH   9  11
ATOM     11  C   UNL     1       4.288  -0.976   0.134  0.00  0.00    +0.123 C 
BRANCH  11  12
ATOM     12  C   UNL     1       5.720  -0.589  -0.186  0.00  0.00    +0.151 C 
BRANCH  12  13
ATOM     13  O   UNL     1       6.020   0.669   0.405  0.00  0.00    -0.381 OA
ATOM     14  H   UNL     1       6.936   0.914   0.199  0.00  0.00    +0.210 HD
ENDBRANCH  12  13
ENDBRANCH  11  12
ENDBRANCH   9  11
ENDBRANCH   8   9
ENDBRANCH   1   8
TORSDOF 10
