REMARK  Name = 446854
REMARK  4 active torsions:
REMARK  status: ('A' for Active; 'I' for Inactive)
REMARK    1  A    between atoms: N_1  and  C_3
REMARK    2  A    between atoms: N_1  and  C_9
REMARK    3  A    between atoms: C_9  and  C_10
REMARK    4  A    between atoms: C_10  and  S_11
REMARK                            x       y       z     vdW  Elec       q    Type
REMARK                         _______ _______ _______ _____ _____    ______ ____
ROOT
ATOM      1  N   UNL     1      -0.347  -0.844   0.029  0.00  0.00    -0.331 N 
ATOM      2  H   UNL     1      -0.197  -1.817   0.027  0.00  0.00    +0.147 HD
ENDROOT
BRANCH   1   3
ATOM      3  C   UNL     1      -1.654  -0.383   0.012  0.00  0.00    +0.045 C 
ATOM      4  C   UNL     1      -1.934   0.996   0.015  0.00  0.00    +0.014 C 
ATOM      5  C   UNL     1      -2.736  -1.283  -0.008  0.00  0.00    +0.014 C 
ATOM      6  C   UNL     1      -3.249   1.459  -0.001  0.00  0.00    +0.001 C 
ATOM      7  C   UNL     1      -4.051  -0.820  -0.024  0.00  0.00    +0.001 C 
ATOM      8  C   UNL     1      -4.308   0.552  -0.021  0.00  0.00    +0.000 C 
ENDBRANCH   1   3
BRANCH   1   9
ATOM      9  C   UNL     1       0.808   0.022   0.050  0.00  0.00    +0.113 C 
BRANCH   9  10
ATOM     10  C   UNL     1       2.087  -0.793   0.003  0.00  0.00    +0.179 C 
BRANCH  10  11
ATOM     11  S   UNL     1       3.532   0.221  -0.023  0.00  0.00    +0.024 S 
ATOM     12  O   UNL     1       4.632  -0.973   0.131  0.00  0.00    -0.069 OA
ATOM     13  O   UNL     1       3.555   1.035   1.179  0.00  0.00    -0.069 OA
ATOM     14  O   UNL     1       3.665   0.810  -1.342  0.00  0.00    -0.069 OA
ENDBRANCH  10  11
ENDBRANCH   9  10
ENDBRANCH   1   9
TORSDOF 4
