REMARK  Name = 449489
REMARK  7 active torsions:
REMARK  status: ('A' for Active; 'I' for Inactive)
REMARK    1  A    between atoms: C_2  and  O_16
REMARK    2  A    between atoms: C_3  and  C_18
REMARK    3  A    between atoms: C_5  and  N_9
REMARK    4  A    between atoms: C_18  and  O_19
REMARK    5  A    between atoms: O_19  and  P_20
REMARK    6  A    between atoms: P_20  and  O_22
REMARK    7  A    between atoms: P_20  and  O_24
REMARK                            x       y       z     vdW  Elec       q    Type
REMARK                         _______ _______ _______ _____ _____    ______ ____
ROOT
ATOM      1  O   UNL     1      -0.414   1.371   1.017  0.00  0.00    -0.335 OA
ATOM      2  C   UNL     1      -0.971   2.901  -0.706  0.00  0.00    +0.144 C 
ATOM      3  C   UNL     1      -1.540   1.903   0.294  0.00  0.00    +0.174 C 
ATOM      4  C   UNL     1       0.407   2.351  -0.992  0.00  0.00    +0.083 C 
ATOM      5  C   UNL     1       0.799   1.736   0.342  0.00  0.00    +0.202 C 
ENDROOT
BRANCH   5   9
ATOM      6  I   UNL     1       0.703  -3.597  -0.382  0.00  0.00    -0.036 I 
ATOM      7  O   UNL     1       3.645   1.738   0.383  0.00  0.00    -0.252 OA
ATOM      8  O   UNL     1       3.844  -2.809  -0.229  0.00  0.00    -0.269 OA
ATOM      9  N   UNL     1       1.629   0.576   0.198  0.00  0.00    -0.218 N 
ATOM     10  N   UNL     1       3.721  -0.533   0.078  0.00  0.00    -0.235 N 
ATOM     11  C   UNL     1       3.036   0.677   0.231  0.00  0.00    +0.315 C 
ATOM     12  C   UNL     1       1.018  -0.659   0.021  0.00  0.00    +0.081 C 
ATOM     13  C   UNL     1       1.678  -1.814  -0.126  0.00  0.00    +0.099 C 
ATOM     14  C   UNL     1       3.166  -1.793  -0.101  0.00  0.00    +0.259 C 
ATOM     15  H   UNL     1       4.704  -0.486   0.099  0.00  0.00    +0.159 HD
ENDBRANCH   5   9
BRANCH   2  16
ATOM     16  O   UNL     1      -0.859   4.186  -0.099  0.00  0.00    -0.382 OA
ATOM     17  H   UNL     1      -1.746   4.536   0.083  0.00  0.00    +0.210 HD
ENDBRANCH   2  16
BRANCH   3  18
ATOM     18  C   UNL     1      -2.260   0.740  -0.375  0.00  0.00    +0.186 C 
BRANCH  18  19
ATOM     19  O   UNL     1      -2.744  -0.137   0.630  0.00  0.00    -0.271 OA
BRANCH  19  20
ATOM     20  P   UNL     1      -3.552  -1.462   0.172  0.00  0.00    +0.473 P 
ATOM     21  O   UNL     1      -4.028  -2.335   1.296  0.00  0.00    -0.227 OA
BRANCH  20  22
ATOM     22  O   UNL     1      -2.555  -2.176  -0.882  0.00  0.00    -0.303 OA
ATOM     23  H   UNL     1      -2.301  -1.540  -1.569  0.00  0.00    +0.222 HD
ENDBRANCH  20  22
BRANCH  20  24
ATOM     24  O   UNL     1      -4.722  -0.863  -0.770  0.00  0.00    -0.303 OA
ATOM     25  H   UNL     1      -4.328  -0.315  -1.466  0.00  0.00    +0.222 HD
ENDBRANCH  20  24
ENDBRANCH  19  20
ENDBRANCH  18  19
ENDBRANCH   3  18
TORSDOF 7
