REMARK  Name = 92282619
REMARK  13 active torsions:
REMARK  status: ('A' for Active; 'I' for Inactive)
REMARK    1  A    between atoms: C_2  and  C_10
REMARK    2  A    between atoms: C_3  and  C_23
REMARK    3  A    between atoms: C_4  and  O_8
REMARK    4  A    between atoms: C_10  and  N_11
REMARK    5  A    between atoms: N_11  and  CA_14
REMARK    6  A    between atoms: CA_14  and  C_16
REMARK    7  A    between atoms: CA_14  and  CB_19
REMARK    8  A    between atoms: C_16  and  O_17
REMARK    9  A    between atoms: CB_19  and  CG1_21
REMARK   10  A    between atoms: C_23  and  O_24
REMARK   11  A    between atoms: O_24  and  P_25
REMARK   12  A    between atoms: P_25  and  O_27
REMARK   13  A    between atoms: P_25  and  O_29
REMARK                            x       y       z     vdW  Elec       q    Type
REMARK                         _______ _______ _______ _____ _____    ______ ____
ROOT
ATOM      1  N   UNK A   0      -4.308  -0.718   0.275  0.00  0.00    -0.245 NA
ATOM      2  C   UNK A   0      -1.615  -0.723  -0.473  0.00  0.00    -0.009 C 
ATOM      3  C   UNK A   0      -2.306   0.478  -0.363  0.00  0.00    +0.024 C 
ATOM      4  C   UNK A   0      -2.268  -1.922  -0.209  0.00  0.00    +0.141 C 
ATOM      5  C   UNK A   0      -3.603  -1.865   0.158  0.00  0.00    +0.092 C 
ATOM      6  C   UNK A   0      -3.639   0.427   0.011  0.00  0.00    +0.096 C 
ATOM      7  C   UNK A   0      -4.353  -3.123   0.453  0.00  0.00    +0.055 C 
ENDROOT
BRANCH   4   8
ATOM      8  O   UNK A   0      -1.618  -3.111  -0.309  0.00  0.00    -0.505 OA
ATOM      9  H   UNK A   0      -0.715  -3.132  -0.558  0.00  0.00    +0.292 HD
ENDBRANCH   4   8
BRANCH   2  10
ATOM     10  C   UNK A   0      -0.164  -0.729  -0.875  0.00  0.00    -0.051 C 
BRANCH  10  11
ATOM     11  N   ILE A   1       0.712  -0.963   0.261  0.00  0.00    +0.395 N 
ATOM     12  H1  ILE A   1       0.568  -0.226   0.951  0.00  0.00    -0.083 HD
ATOM     13  H2  ILE A   1       0.491  -1.873   0.664  0.00  0.00    -0.083 HD
BRANCH  11  14
ATOM     14  CA  ILE A   1       2.116  -0.961  -0.161  0.00  0.00    +0.040 C 
BRANCH  14  16
ATOM     15  OXT ILE A   1       2.547   1.293   0.668  0.00  0.00    -0.253 OA
ATOM     16  C   ILE A   1       2.508   0.506  -0.270  0.00  0.00    +0.293 C 
BRANCH  16  17
ATOM     17  O   ILE A   1       2.846   0.860  -1.538  0.00  0.00    -0.482 OA
ATOM     18  H   ILE A   1       2.803   0.227  -2.228  0.00  0.00    +0.295 HD
ENDBRANCH  16  17
ENDBRANCH  14  16
BRANCH  14  19
ATOM     19  CB  ILE A   1       3.029  -1.698   0.850  0.00  0.00    -0.009 C 
ATOM     20  CG2 ILE A   1       2.591  -3.160   1.033  0.00  0.00    -0.002 C 
BRANCH  19  21
ATOM     21  CG1 ILE A   1       4.535  -1.636   0.499  0.00  0.00    -0.002 C 
ATOM     22  CD1 ILE A   1       4.914  -2.259  -0.839  0.00  0.00    -0.000 C 
ENDBRANCH  19  21
ENDBRANCH  14  19
ENDBRANCH  11  14
ENDBRANCH  10  11
ENDBRANCH   2  10
BRANCH   3  23
ATOM     23  C   UNK A   0      -1.657   1.791  -0.633  0.00  0.00    +0.181 C 
BRANCH  23  24
ATOM     24  O   UNK A   0      -0.807   2.133   0.456  0.00  0.00    -0.268 OA
BRANCH  24  25
ATOM     25  P   UNK A   0       0.008   3.527   0.383  0.00  0.00    +0.473 P 
ATOM     26  O   UNK A   0       0.882   3.815   1.569  0.00  0.00    -0.227 OA
BRANCH  25  27
ATOM     27  O   UNK A   0      -1.137   4.628   0.084  0.00  0.00    -0.303 OA
ATOM     28  H   UNK A   0      -1.649   4.359  -0.696  0.00  0.00    +0.222 HD
ENDBRANCH  25  27
BRANCH  25  29
ATOM     29  O   UNK A   0       0.789   3.409  -1.028  0.00  0.00    -0.303 OA
ATOM     30  H   UNK A   0       0.153   3.223  -1.736  0.00  0.00    +0.222 HD
ENDBRANCH  25  29
ENDBRANCH  24  25
ENDBRANCH  23  24
ENDBRANCH   3  23
TORSDOF 13
