REMARK  Name = 6915836
REMARK  8 active torsions:
REMARK  status: ('A' for Active; 'I' for Inactive)
REMARK    1  A    between atoms: C_2  and  O_17
REMARK    2  A    between atoms: C_3  and  O_15
REMARK    3  A    between atoms: C_4  and  C_24
REMARK    4  A    between atoms: C_5  and  N_8
REMARK    5  A    between atoms: O_17  and  P_18
REMARK    6  A    between atoms: P_18  and  O_20
REMARK    7  A    between atoms: P_18  and  O_22
REMARK    8  A    between atoms: C_24  and  O_25
REMARK                            x       y       z     vdW  Elec       q    Type
REMARK                         _______ _______ _______ _____ _____    ______ ____
ROOT
ATOM      1  O   UNL     1      -0.249  -0.804   0.875  0.00  0.00    -0.333 OA
ATOM      2  C   UNL     1      -1.779  -0.002  -0.777  0.00  0.00    +0.186 C 
ATOM      3  C   UNL     1      -0.389   0.514  -1.084  0.00  0.00    +0.188 C 
ATOM      4  C   UNL     1      -1.534  -1.080   0.280  0.00  0.00    +0.176 C 
ATOM      5  C   UNL     1       0.295   0.376   0.268  0.00  0.00    +0.229 C 
ENDROOT
BRANCH   5   8
ATOM      6  O   UNL     1       2.071   2.561   0.500  0.00  0.00    -0.252 OA
ATOM      7  O   UNL     1       5.763  -0.149  -0.020  0.00  0.00    -0.270 OA
ATOM      8  N   UNL     1       1.721   0.270   0.198  0.00  0.00    -0.217 N 
ATOM      9  N   UNL     1       3.908   1.210   0.240  0.00  0.00    -0.236 N 
ATOM     10  C   UNL     1       2.527   1.429   0.325  0.00  0.00    +0.315 C 
ATOM     11  C   UNL     1       2.320  -0.972   0.004  0.00  0.00    +0.076 C 
ATOM     12  C   UNL     1       3.639  -1.164  -0.075  0.00  0.00    +0.074 C 
ATOM     13  C   UNL     1       4.546  -0.006   0.048  0.00  0.00    +0.254 C 
ATOM     14  H   UNL     1       4.486   2.002   0.326  0.00  0.00    +0.159 HD
ENDBRANCH   5   8
BRANCH   3  15
ATOM     15  O   UNL     1       0.207  -0.339  -2.054  0.00  0.00    -0.378 OA
ATOM     16  H   UNL     1      -0.247  -0.230  -2.904  0.00  0.00    +0.211 HD
ENDBRANCH   3  15
BRANCH   2  17
ATOM     17  O   UNL     1      -2.548   1.042  -0.184  0.00  0.00    -0.271 OA
BRANCH  17  18
ATOM     18  P   UNL     1      -4.075   0.723   0.231  0.00  0.00    +0.473 P 
ATOM     19  O   UNL     1      -4.246  -0.379   1.236  0.00  0.00    -0.227 OA
BRANCH  18  20
ATOM     20  O   UNL     1      -4.820   0.489  -1.185  0.00  0.00    -0.303 OA
ATOM     21  H   UNL     1      -4.655   1.248  -1.766  0.00  0.00    +0.222 HD
ENDBRANCH  18  20
BRANCH  18  22
ATOM     22  O   UNL     1      -4.622   2.170   0.705  0.00  0.00    -0.303 OA
ATOM     23  H   UNL     1      -4.473   2.818  -0.001  0.00  0.00    +0.222 HD
ENDBRANCH  18  22
ENDBRANCH  17  18
ENDBRANCH   2  17
BRANCH   4  24
ATOM     24  C   UNL     1      -1.489  -2.489  -0.293  0.00  0.00    +0.169 C 
BRANCH  24  25
ATOM     25  O   UNL     1      -1.248  -3.402   0.764  0.00  0.00    -0.379 OA
ATOM     26  H   UNL     1      -1.217  -4.305   0.411  0.00  0.00    +0.211 HD
ENDBRANCH  24  25
ENDBRANCH   4  24
TORSDOF 8
