REMARK  Name = 75367
REMARK  3 active torsions:
REMARK  status: ('A' for Active; 'I' for Inactive)
REMARK    1  A    between atoms: C_1  and  C_4
REMARK    2  A    between atoms: C_1  and  C_8
REMARK    3  A    between atoms: C_8  and  O_9
REMARK                            x       y       z     vdW  Elec       q    Type
REMARK                         _______ _______ _______ _____ _____    ______ ____
ROOT
ATOM      1  C   UNL     1      -0.052  -0.730  -0.413  0.00  0.00    +0.194 C 
ENDROOT
BRANCH   1   4
ATOM      2  O   UNL     1       1.561   1.060  -0.566  0.00  0.00    -0.275 OA
ATOM      3  N   UNL     1       2.105  -0.816   0.649  0.00  0.00    -0.328 N 
ATOM      4  C   UNL     1       1.272  -0.055  -0.141  0.00  0.00    +0.231 C 
ATOM      5  H   UNL     1       2.996  -0.477   0.893  0.00  0.00    +0.145 HD
ATOM      6  H   UNL     1       1.808  -1.698   0.971  0.00  0.00    +0.145 HD
ENDBRANCH   1   4
BRANCH   1   8
ATOM      7  O   UNL     1      -1.206   1.121   0.619  0.00  0.00    -0.250 OA
ATOM      8  C   UNL     1      -1.259   0.036   0.055  0.00  0.00    +0.323 C 
BRANCH   8   9
ATOM      9  O   UNL     1      -2.421  -0.616  -0.203  0.00  0.00    -0.480 OA
ATOM     10  H   UNL     1      -2.405  -1.446  -0.639  0.00  0.00    +0.295 HD
ENDBRANCH   8   9
ENDBRANCH   1   8
TORSDOF 3
