REMARK  Name = 1633
REMARK  3 active torsions:
REMARK  status: ('A' for Active; 'I' for Inactive)
REMARK    1  A    between atoms: C_1  and  N_8
REMARK    2  A    between atoms: C_2  and  C_15
REMARK    3  A    between atoms: C_15  and  C_18
REMARK                            x       y       z     vdW  Elec       q    Type
REMARK                         _______ _______ _______ _____ _____    ______ ____
ROOT
ATOM      1  C   UNL     1      -2.059  -0.347   0.328  0.00  0.00    +0.048 C 
ATOM      2  C   UNL     1       0.686  -0.538   0.677  0.00  0.00    -0.021 C 
ATOM      3  C   UNL     1      -1.374   0.645   1.030  0.00  0.00    +0.014 C 
ATOM      4  C   UNL     1      -1.363  -1.436  -0.198  0.00  0.00    +0.014 C 
ATOM      5  C   UNL     1       0.006   0.549   1.205  0.00  0.00    -0.003 C 
ATOM      6  C   UNL     1       0.018  -1.532  -0.022  0.00  0.00    -0.003 C 
ENDROOT
BRANCH   1   8
ATOM      7  O   UNL     1      -8.273   0.923  -0.974  0.00  0.00    -0.265 OA
ATOM      8  N   UNL     1      -3.438  -0.252   0.152  0.00  0.00    -0.304 N 
ATOM      9  N   UNL     1      -6.288  -0.054  -0.209  0.00  0.00    -0.269 N 
ATOM     10  C   UNL     1      -4.096   1.057   0.076  0.00  0.00    +0.112 C 
ATOM     11  C   UNL     1      -4.266  -1.457   0.041  0.00  0.00    +0.112 C 
ATOM     12  C   UNL     1      -5.389   0.966  -0.732  0.00  0.00    +0.115 C 
ATOM     13  C   UNL     1      -5.695  -1.177   0.503  0.00  0.00    +0.115 C 
ATOM     14  C   UNL     1      -7.658   0.037  -0.391  0.00  0.00    +0.303 C 
ENDBRANCH   1   8
BRANCH   2  15
ATOM     15  C   UNL     1       2.178  -0.641   0.866  0.00  0.00    +0.040 C 
BRANCH  15  18
ATOM     16  O   UNL     1       2.049   2.301   0.072  0.00  0.00    -0.274 OA
ATOM     17  N   UNL     1       4.363   1.909  -0.033  0.00  0.00    -0.284 N 
ATOM     18  C   UNL     1       2.940   0.030  -0.263  0.00  0.00    +0.105 C 
ATOM     19  C   UNL     1       4.392  -0.350  -0.316  0.00  0.00    -0.000 C 
ATOM     20  C   UNL     1       3.009   1.555  -0.052  0.00  0.00    +0.230 C 
ATOM     21  C   UNL     1       5.177   0.793  -0.187  0.00  0.00    +0.047 C 
ATOM     22  C   UNL     1       4.983  -1.589  -0.483  0.00  0.00    -0.003 C 
ATOM     23  C   UNL     1       6.557   0.756  -0.209  0.00  0.00    +0.014 C 
ATOM     24  C   UNL     1       6.380  -1.655  -0.509  0.00  0.00    -0.000 C 
ATOM     25  C   UNL     1       7.160  -0.492  -0.373  0.00  0.00    +0.001 C 
ATOM     26  H   UNL     1       4.695   2.829   0.075  0.00  0.00    +0.155 HD
ENDBRANCH  15  18
ENDBRANCH   2  15
TORSDOF 3
