REMARK  Name = 11914
REMARK  4 active torsions:
REMARK  status: ('A' for Active; 'I' for Inactive)
REMARK    1  A    between atoms: C_1  and  C_2
REMARK    2  A    between atoms: C_1  and  O_8
REMARK    3  A    between atoms: C_1  and  C_11
REMARK    4  A    between atoms: C_11  and  O_12
REMARK                            x       y       z     vdW  Elec       q    Type
REMARK                         _______ _______ _______ _____ _____    ______ ____
ROOT
ATOM      1  C   UNL     1       1.118  -0.811   0.199  0.00  0.00    +0.232 C 
ENDROOT
BRANCH   1   2
ATOM      2  C   UNL     1      -0.294  -0.347   0.078  0.00  0.00    +0.015 C 
ATOM      3  C   UNL     1      -1.325  -1.096   0.644  0.00  0.00    -0.001 C 
ATOM      4  C   UNL     1      -0.583   0.836  -0.602  0.00  0.00    -0.001 C 
ATOM      5  C   UNL     1      -2.646  -0.661   0.531  0.00  0.00    -0.000 C 
ATOM      6  C   UNL     1      -1.904   1.270  -0.715  0.00  0.00    -0.000 C 
ATOM      7  C   UNL     1      -2.935   0.522  -0.149  0.00  0.00    -0.000 C 
ENDBRANCH   1   2
BRANCH   1   8
ATOM      8  O   UNL     1       1.441  -1.682  -0.883  0.00  0.00    -0.371 OA
ATOM      9  H   UNL     1       0.804  -2.413  -0.910  0.00  0.00    +0.211 HD
ENDBRANCH   1   8
BRANCH   1  11
ATOM     10  O   UNL     1       3.009   0.493  -0.619  0.00  0.00    -0.247 OA
ATOM     11  C   UNL     1       2.132   0.329   0.220  0.00  0.00    +0.345 C 
BRANCH  11  12
ATOM     12  O   UNL     1       1.986   1.146   1.295  0.00  0.00    -0.478 OA
ATOM     13  H   UNL     1       1.302   0.987   1.915  0.00  0.00    +0.295 HD
ENDBRANCH  11  12
ENDBRANCH   1  11
TORSDOF 4
