REMARK  Name = 657073
REMARK  5 active torsions:
REMARK  status: ('A' for Active; 'I' for Inactive)
REMARK    1  A    between atoms: C_3  and  O_12
REMARK    2  A    between atoms: O_12  and  C_13
REMARK    3  A    between atoms: C_13  and  C_14
REMARK    4  A    between atoms: C_14  and  C_15
REMARK    5  A    between atoms: C_15  and  N_16
REMARK                            x       y       z     vdW  Elec       q    Type
REMARK                         _______ _______ _______ _____ _____    ______ ____
ROOT
ATOM      1  S   UNL     1      -3.548  -0.468  -0.599  0.00  0.00    -0.046 S 
ATOM      2  O   UNL     1      -3.281  -3.042  -0.448  0.00  0.00    -0.279 OA
ATOM      3  C   UNL     1      -0.601  -0.837   0.478  0.00  0.00    +0.143 C 
ATOM      4  C   UNL     1      -1.082   0.542   0.283  0.00  0.00    +0.040 C 
ATOM      5  C   UNL     1      -2.376   0.806  -0.191  0.00  0.00    +0.035 C 
ATOM      6  C   UNL     1      -1.332  -1.931   0.232  0.00  0.00    +0.086 C 
ATOM      7  C   UNL     1      -0.242   1.636   0.572  0.00  0.00    +0.004 C 
ATOM      8  C   UNL     1      -2.803   2.135  -0.364  0.00  0.00    +0.007 C 
ATOM      9  C   UNL     1      -2.721  -1.966  -0.268  0.00  0.00    +0.229 C 
ATOM     10  C   UNL     1      -0.674   2.952   0.398  0.00  0.00    +0.000 C 
ATOM     11  C   UNL     1      -1.956   3.201  -0.071  0.00  0.00    +0.001 C 
ENDROOT
BRANCH   3  12
ATOM     12  O   UNL     1       0.698  -0.950   0.949  0.00  0.00    -0.475 OA
BRANCH  12  13
ATOM     13  C   UNL     1       1.495  -1.665   0.030  0.00  0.00    +0.203 C 
BRANCH  13  14
ATOM     14  C   UNL     1       2.915  -1.750   0.572  0.00  0.00    +0.025 C 
BRANCH  14  15
ATOM     15  C   UNL     1       3.527  -0.365   0.757  0.00  0.00    -0.074 C 
BRANCH  15  16
ATOM     16  N   UNL     1       3.553   0.351  -0.513  0.00  0.00    +0.384 N 
ATOM     17  C   UNL     1       4.378  -0.362  -1.490  0.00  0.00    -0.101 C 
ATOM     18  C   UNL     1       4.052   1.714  -0.327  0.00  0.00    -0.101 C 
ATOM     19  H   UNL     1       2.598   0.401  -0.870  0.00  0.00    -0.080 HD
ENDBRANCH  15  16
ENDBRANCH  14  15
ENDBRANCH  13  14
ENDBRANCH  12  13
ENDBRANCH   3  12
TORSDOF 5
