REMARK  Name = 3776
REMARK  1 active torsions:
REMARK  status: ('A' for Active; 'I' for Inactive)
REMARK    1  A    between atoms: C_1  and  O_4
REMARK                            x       y       z     vdW  Elec       q    Type
REMARK                         _______ _______ _______ _____ _____    ______ ____
ROOT
ATOM      1  C   UNL     1       0.000   0.018   0.360  0.00  0.00    +0.111 C 
ATOM      2  C   UNL     1      -1.260  -0.688  -0.118  0.00  0.00    +0.032 C 
ATOM      3  C   UNL     1       1.260  -0.687  -0.118  0.00  0.00    +0.032 C 
ENDROOT
BRANCH   1   4
ATOM      4  O   UNL     1       0.000   1.357  -0.124  0.00  0.00    -0.384 OA
ATOM      5  H   UNL     1      -0.803   1.810   0.179  0.00  0.00    +0.210 HD
ENDBRANCH   1   4
TORSDOF 1
