REMARK  Name = 6857487
REMARK  1 active torsions:
REMARK  status: ('A' for Active; 'I' for Inactive)
REMARK    1  A    between atoms: C_6  and  C_9
REMARK                            x       y       z     vdW  Elec       q    Type
REMARK                         _______ _______ _______ _____ _____    ______ ____
ROOT
ATOM      1  O   UNL     1      -1.841   0.960   0.894  0.00  0.00    -0.356 OA
ATOM      2  C   UNL     1      -1.996  -0.156  -0.005  0.00  0.00    +0.118 C 
ATOM      3  C   UNL     1      -1.291   1.108  -0.417  0.00  0.00    +0.140 C 
ATOM      4  C   UNL     1      -1.229  -1.369   0.414  0.00  0.00    +0.030 C 
ATOM      5  C   UNL     1       0.202   1.157  -0.490  0.00  0.00    +0.036 C 
ATOM      6  C   UNL     1       0.887   0.016   0.278  0.00  0.00    +0.021 C 
ATOM      7  C   UNL     1       0.226  -1.330  -0.056  0.00  0.00    +0.007 C 
ATOM      8  C   UNL     1      -3.398  -0.361  -0.429  0.00  0.00    +0.032 C 
ENDROOT
BRANCH   6   9
ATOM      9  C   UNL     1       2.352  -0.011  -0.035  0.00  0.00    -0.044 C 
ATOM     10  C   UNL     1       3.279   0.202   1.125  0.00  0.00    +0.026 C 
ATOM     11  C   UNL     1       2.808  -0.215  -1.279  0.00  0.00    -0.009 C 
ENDBRANCH   6   9
TORSDOF 1
