REMARK  Name = 6971145
REMARK  4 active torsions:
REMARK  status: ('A' for Active; 'I' for Inactive)
REMARK    1  A    between atoms: C_1  and  N_5
REMARK    2  A    between atoms: C_1  and  CA_10
REMARK    3  A    between atoms: CA_10  and  N_11
REMARK    4  A    between atoms: CA_10  and  C_17
REMARK                            x       y       z     vdW  Elec       q    Type
REMARK                         _______ _______ _______ _____ _____    ______ ____
ROOT
ATOM      1  C   UNL     1      -0.718  -0.691   1.327  0.00  0.00    +0.139 C 
ENDROOT
BRANCH   1   5
ATOM      2  O   UNL     1       0.950   0.933   0.597  0.00  0.00    -0.316 OA
ATOM      3  O   UNL     1       1.317  -2.389  -0.309  0.00  0.00    -0.244 OA
ATOM      4  O   UNL     1       2.776   1.941  -0.361  0.00  0.00    -0.221 OA
ATOM      5  N   UNL     1       0.499  -0.408   0.613  0.00  0.00    -0.141 N 
ATOM      6  N   UNL     1       2.368  -0.334  -0.561  0.00  0.00    -0.240 N 
ATOM      7  C   UNL     1       1.385  -1.184  -0.108  0.00  0.00    +0.361 A 
ATOM      8  C   UNL     1       2.111   0.939  -0.141  0.00  0.00    +0.441 A 
ATOM      9  H   UNL     1       3.142  -0.604  -1.108  0.00  0.00    +0.177 HD
ENDBRANCH   1   5
BRANCH   1  10
ATOM     10  CA  UNL     1      -1.964  -0.568   0.452  0.00  0.00    +0.067 C 
BRANCH  10  11
ATOM     11  N   UNL     1      -1.931  -1.673  -0.559  0.00  0.00    +0.390 N 
ATOM     12  H1  UNL     1      -1.762  -2.561  -0.088  0.00  0.00    -0.088 HD
ATOM     13  H2  UNL     1      -1.182  -1.497  -1.230  0.00  0.00    -0.088 HD
ATOM     14  H3  UNL     1      -2.824  -1.712  -1.050  0.00  0.00    -0.088 HD
ENDBRANCH  10  11
BRANCH  10  17
ATOM     15  O   UNL     1      -2.792   0.828  -1.293  0.00  0.00    -0.248 OA
ATOM     16  OXT UNL     1      -1.786   1.791   0.514  0.00  0.00    -0.248 OA
ATOM     17  C   UNL     1      -2.214   0.817  -0.171  0.00  0.00    +0.347 C 
ENDBRANCH  10  17
ENDBRANCH   1  10
TORSDOF 4
