REMARK  Name = 445052
REMARK  9 active torsions:
REMARK  status: ('A' for Active; 'I' for Inactive)
REMARK    1  A    between atoms: C_1  and  O_2
REMARK    2  A    between atoms: C_1  and  C_4
REMARK    3  A    between atoms: C_1  and  C_11
REMARK    4  A    between atoms: C_4  and  O_5
REMARK    5  A    between atoms: C_4  and  C_7
REMARK    6  A    between atoms: C_7  and  O_9
REMARK    7  A    between atoms: C_11  and  O_12
REMARK    8  A    between atoms: C_11  and  C_14
REMARK    9  A    between atoms: C_14  and  O_15
REMARK                            x       y       z     vdW  Elec       q    Type
REMARK                         _______ _______ _______ _____ _____    ______ ____
ROOT
ATOM      1  C   UNL     1      -0.219  -0.478  -0.051  0.00  0.00    +0.169 C 
ENDROOT
BRANCH   1   2
ATOM      2  O   UNL     1      -0.160  -1.328   1.102  0.00  0.00    -0.379 OA
ATOM      3  H   UNL     1       0.683  -1.807   1.108  0.00  0.00    +0.211 HD
ENDBRANCH   1   2
BRANCH   1   4
ATOM      4  C   UNL     1       1.014   0.444  -0.035  0.00  0.00    +0.166 C 
BRANCH   4   5
ATOM      5  O   UNL     1       0.918   1.294   1.113  0.00  0.00    -0.379 OA
ATOM      6  H   UNL     1       0.073   1.771   1.093  0.00  0.00    +0.211 HD
ENDBRANCH   4   5
BRANCH   4   7
ATOM      7  C   UNL     1       2.363  -0.295   0.029  0.00  0.00    +0.140 C 
ATOM      8  C   UNL     1       3.564   0.634   0.134  0.00  0.00    +0.034 C 
BRANCH   7   9
ATOM      9  O   UNL     1       2.530  -1.051  -1.174  0.00  0.00    -0.382 OA
ATOM     10  H   UNL     1       1.782  -1.660  -1.280  0.00  0.00    +0.210 HD
ENDBRANCH   7   9
ENDBRANCH   4   7
ENDBRANCH   1   4
BRANCH   1  11
ATOM     11  C   UNL     1      -1.570   0.262  -0.021  0.00  0.00    +0.169 C 
BRANCH  11  12
ATOM     12  O   UNL     1      -1.656   1.024  -1.232  0.00  0.00    -0.379 OA
ATOM     13  H   UNL     1      -0.884   1.607  -1.303  0.00  0.00    +0.211 HD
ENDBRANCH  11  12
BRANCH  11  14
ATOM     14  C   UNL     1      -2.797  -0.644   0.061  0.00  0.00    +0.169 C 
BRANCH  14  15
ATOM     15  O   UNL     1      -3.985   0.139   0.075  0.00  0.00    -0.379 OA
ATOM     16  H   UNL     1      -4.757  -0.446   0.128  0.00  0.00    +0.211 HD
ENDBRANCH  14  15
ENDBRANCH  11  14
ENDBRANCH   1  11
TORSDOF 9
