REMARK  Name = 1941
REMARK  5 active torsions:
REMARK  status: ('A' for Active; 'I' for Inactive)
REMARK    1  A    between atoms: C_8  and  N_20
REMARK    2  A    between atoms: C_9  and  C_26
REMARK    3  A    between atoms: C_14  and  O_21
REMARK    4  A    between atoms: C_16  and  O_23
REMARK    5  A    between atoms: C_26  and  O_27
REMARK                            x       y       z     vdW  Elec       q    Type
REMARK                         _______ _______ _______ _____ _____    ______ ____
ROOT
ATOM      1  O   UNL     1       0.688   3.398  -0.063  0.00  0.00    -0.435 OA
ATOM      2  O   UNL     1       3.079   3.268  -0.140  0.00  0.00    -0.435 OA
ATOM      3  C   UNL     1       0.289   0.952   0.007  0.00  0.00    +0.039 C 
ATOM      4  C   UNL     1       1.002  -0.282   0.012  0.00  0.00    +0.032 C 
ATOM      5  C   UNL     1      -1.161   0.926   0.057  0.00  0.00    +0.006 C 
ATOM      6  C   UNL     1       1.111   2.098  -0.047  0.00  0.00    +0.176 C 
ATOM      7  C   UNL     1      -1.825  -0.328   0.108  0.00  0.00    +0.039 C 
ATOM      8  C   UNL     1       0.303  -1.489   0.064  0.00  0.00    +0.143 C 
ATOM      9  C   UNL     1       2.415  -0.317  -0.034  0.00  0.00    +0.080 C 
ATOM     10  C   UNL     1       2.492   2.041  -0.091  0.00  0.00    +0.177 C 
ATOM     11  C   UNL     1      -1.086  -1.513   0.111  0.00  0.00    +0.027 C 
ATOM     12  C   UNL     1       3.172   0.849  -0.086  0.00  0.00    +0.047 C 
ATOM     13  C   UNL     1      -1.996   2.073   0.059  0.00  0.00    +0.003 C 
ATOM     14  C   UNL     1      -3.228  -0.402   0.157  0.00  0.00    +0.172 C 
ATOM     15  C   UNL     1       1.927   4.124  -0.121  0.00  0.00    +0.429 C 
ATOM     16  C   UNL     1      -4.008   0.749   0.157  0.00  0.00    +0.168 C 
ATOM     17  C   UNL     1      -3.391   1.988   0.108  0.00  0.00    +0.040 C 
ENDROOT
BRANCH   8  20
ATOM     18  O   UNL     1       1.123  -3.352  -1.020  0.00  0.00    -0.126 OA
ATOM     19  O   UNL     1       1.197  -3.302   1.173  0.00  0.00    -0.126 OA
ATOM     20  N   UNL     1       0.906  -2.783   0.073  0.00  0.00    +0.058 N 
ENDBRANCH   8  20
BRANCH  14  21
ATOM     21  O   UNL     1      -3.872  -1.609   0.206  0.00  0.00    -0.468 OA
ATOM     22  C   UNL     1      -4.217  -2.203  -1.040  0.00  0.00    +0.253 C 
ENDBRANCH  14  21
BRANCH  16  23
ATOM     23  O   UNL     1      -5.366   0.675   0.205  0.00  0.00    -0.503 OA
ATOM     24  H   UNL     1      -5.789  -0.160   0.238  0.00  0.00    +0.292 HD
ENDBRANCH  16  23
BRANCH   9  26
ATOM     25  O   UNL     1       3.615  -2.126  -1.041  0.00  0.00    -0.245 OA
ATOM     26  C   UNL     1       3.247  -1.521  -0.035  0.00  0.00    +0.338 C 
BRANCH  26  27
ATOM     27  O   UNL     1       3.581  -1.912   1.222  0.00  0.00    -0.477 OA
ATOM     28  H   UNL     1       3.279  -1.422   1.961  0.00  0.00    +0.295 HD
ENDBRANCH  26  27
ENDBRANCH   9  26
TORSDOF 5
