REMARK  Name = 17753791
REMARK  8 active torsions:
REMARK  status: ('A' for Active; 'I' for Inactive)
REMARK    1  A    between atoms: C_2  and  O_18
REMARK    2  A    between atoms: C_3  and  O_20
REMARK    3  A    between atoms: C_4  and  N_6
REMARK    4  A    between atoms: C_5  and  C_22
REMARK    5  A    between atoms: C_22  and  O_23
REMARK    6  A    between atoms: O_23  and  S_24
REMARK    7  A    between atoms: S_24  and  N_27
REMARK    8  A    between atoms: N_27  and  C_29
REMARK                            x       y       z     vdW  Elec       q    Type
REMARK                         _______ _______ _______ _____ _____    ______ ____
ROOT
ATOM      1  O   UNL     1       0.594  -0.996   0.948  0.00  0.00    -0.333 OA
ATOM      2  C   UNL     1      -0.587  -2.361  -0.586  0.00  0.00    +0.187 C 
ATOM      3  C   UNL     1       0.633  -3.127  -0.113  0.00  0.00    +0.171 C 
ATOM      4  C   UNL     1      -0.741  -1.326   0.518  0.00  0.00    +0.225 C 
ATOM      5  C   UNL     1       1.500  -2.021   0.481  0.00  0.00    +0.178 C 
ENDROOT
BRANCH   4   6
ATOM      6  N   UNL     1      -1.440  -0.112   0.103  0.00  0.00    -0.247 N 
ATOM      7  N   UNL     1      -1.754   1.924  -0.748  0.00  0.00    -0.242 NA
ATOM      8  N   UNL     1      -3.719  -0.648   0.753  0.00  0.00    -0.228 NA
ATOM      9  N   UNL     1      -5.246   1.177   0.214  0.00  0.00    -0.229 NA
ATOM     10  C   UNL     1      -2.775   0.148   0.228  0.00  0.00    +0.152 C 
ATOM     11  C   UNL     1      -0.870   0.984  -0.488  0.00  0.00    +0.223 C 
ATOM     12  C   UNL     1      -2.949   1.415  -0.306  0.00  0.00    +0.140 C 
ATOM     13  C   UNL     1      -4.243   1.927  -0.302  0.00  0.00    +0.143 C 
ATOM     14  C   UNL     1      -4.927  -0.045   0.702  0.00  0.00    +0.253 C 
ATOM     15  N   UNL     1      -4.511   3.204  -0.825  0.00  0.00    -0.342 N 
ATOM     16  H   UNL     1      -5.431   3.556  -0.817  0.00  0.00    +0.144 HD
ATOM     17  H   UNL     1      -3.780   3.746  -1.200  0.00  0.00    +0.144 HD
ENDBRANCH   4   6
BRANCH   2  18
ATOM     18  O   UNL     1      -1.736  -3.174  -0.710  0.00  0.00    -0.378 OA
ATOM     19  H   UNL     1      -1.601  -3.819  -1.422  0.00  0.00    +0.211 HD
ENDBRANCH   2  18
BRANCH   3  20
ATOM     20  O   UNL     1       0.256  -4.026   0.929  0.00  0.00    -0.379 OA
ATOM     21  H   UNL     1      -0.297  -4.734   0.562  0.00  0.00    +0.211 HD
ENDBRANCH   3  20
BRANCH   5  22
ATOM     22  C   UNL     1       2.447  -1.399  -0.536  0.00  0.00    +0.206 C 
BRANCH  22  23
ATOM     23  O   UNL     1       3.197  -0.382   0.106  0.00  0.00    -0.227 OA
BRANCH  23  24
ATOM     24  S   UNL     1       4.307   0.472  -0.744  0.00  0.00    +0.049 S 
ATOM     25  O   UNL     1       3.610   1.247  -1.755  0.00  0.00    -0.056 OA
ATOM     26  O   UNL     1       5.354  -0.451  -1.143  0.00  0.00    -0.056 OA
BRANCH  24  27
ATOM     27  N   UNL     1       4.965   1.575   0.402  0.00  0.00    -0.180 NA
ATOM     28  H   UNL     1       5.524   2.255  -0.114  0.00  0.00    +0.149 HD
BRANCH  27  29
ATOM     29  C   UNL     1       4.015   2.330   1.242  0.00  0.00    +0.092 C 
ATOM     30  C   UNL     1       4.621   3.664   1.628  0.00  0.00    +0.020 C 
ENDBRANCH  27  29
ENDBRANCH  24  27
ENDBRANCH  23  24
ENDBRANCH  22  23
ENDBRANCH   5  22
TORSDOF 8
