REMARK  Name = 10976469
REMARK  8 active torsions:
REMARK  status: ('A' for Active; 'I' for Inactive)
REMARK    1  A    between atoms: C_1  and  O_3
REMARK    2  A    between atoms: C_1  and  C_10
REMARK    3  A    between atoms: O_3  and  P_4
REMARK    4  A    between atoms: P_4  and  O_6
REMARK    5  A    between atoms: P_4  and  O_8
REMARK    6  A    between atoms: C_10  and  N_11
REMARK    7  A    between atoms: C_10  and  C_16
REMARK    8  A    between atoms: C_16  and  O_17
REMARK                            x       y       z     vdW  Elec       q    Type
REMARK                         _______ _______ _______ _____ _____    ______ ____
ROOT
ATOM      1  C   UNK     1      -0.149  -0.715  -0.557  0.00  0.00    +0.117 C 
ATOM      2  C   UNK     1       0.511  -2.084  -0.655  0.00  0.00    +0.031 C 
ENDROOT
BRANCH   1   3
ATOM      3  O   UNK     1       0.573   0.050   0.407  0.00  0.00    -0.278 OA
BRANCH   3   4
ATOM      4  P   UNK     1       2.140   0.330   0.139  0.00  0.00    +0.473 P 
ATOM      5  O   UNK     1       2.998  -0.896   0.029  0.00  0.00    -0.228 OA
BRANCH   4   6
ATOM      6  O   UNK     1       2.555   1.361   1.315  0.00  0.00    -0.303 OA
ATOM      7  H   UNK     1       1.949   2.118   1.309  0.00  0.00    +0.222 HD
ENDBRANCH   4   6
BRANCH   4   8
ATOM      8  O   UNK     1       2.112   1.264  -1.181  0.00  0.00    -0.303 OA
ATOM      9  H   UNK     1       1.537   2.029  -1.023  0.00  0.00    +0.222 HD
ENDBRANCH   4   8
ENDBRANCH   3   4
ENDBRANCH   1   3
BRANCH   1  10
ATOM     10  C   UNK     1      -1.640  -0.787  -0.192  0.00  0.00    +0.064 C 
BRANCH  10  11
ATOM     11  N   UNK     1      -1.806  -1.433   1.114  0.00  0.00    +0.390 N 
ATOM     12  H   UNK     1      -1.388  -2.363   1.089  0.00  0.00    -0.088 HD
ATOM     13  H   UNK     1      -2.800  -1.514   1.330  0.00  0.00    -0.088 HD
ATOM     14  H   UNK     1      -1.346  -0.873   1.831  0.00  0.00    -0.088 HD
ENDBRANCH  10  11
BRANCH  10  16
ATOM     15  O   UNK     1      -2.763   1.064   0.934  0.00  0.00    -0.253 OA
ATOM     16  C   UNK     1      -2.282   0.587  -0.086  0.00  0.00    +0.295 C 
BRANCH  16  17
ATOM     17  O   UNK     1      -2.250   1.261  -1.266  0.00  0.00    -0.482 OA
ATOM     18  H   UNK     1      -1.873   0.860  -2.024  0.00  0.00    +0.295 HD
ENDBRANCH  16  17
ENDBRANCH  10  16
ENDBRANCH   1  10
TORSDOF 8
