51683
  -OEChem-10051719473D

 27 28  0     1  0  0  0  0  0999 V2000
    1.2984   -1.3904    1.1215 O   0  0  0  0  0  0  0  0  0  0  0  0
   -1.6270   -2.2347   -0.5106 O   0  0  0  0  0  0  0  0  0  0  0  0
    3.3189    0.1237    0.2110 O   0  0  0  0  0  0  0  0  0  0  0  0
    0.0325    0.9945    0.1685 N   0  0  1  0  0  0  0  0  0  0  0  0
   -0.1858   -0.3128   -0.4628 C   0  0  1  0  0  0  0  0  0  0  0  0
    1.1705   -0.9714   -0.2321 C   0  0  1  0  0  0  0  0  0  0  0  0
   -1.4072   -0.9936    0.1490 C   0  0  1  0  0  0  0  0  0  0  0  0
    2.1322    0.1775   -0.5568 C   0  0  1  0  0  0  0  0  0  0  0  0
    1.3411    1.4645   -0.2848 C   0  0  0  0  0  0  0  0  0  0  0  0
   -1.0720    1.9137   -0.0739 C   0  0  0  0  0  0  0  0  0  0  0  0
   -2.6350   -0.0919   -0.0265 C   0  0  0  0  0  0  0  0  0  0  0  0
   -2.3665    1.3208    0.4975 C   0  0  0  0  0  0  0  0  0  0  0  0
   -0.3291   -0.1981   -1.5484 H   0  0  0  0  0  0  0  0  0  0  0  0
    1.3362   -1.8404   -0.8755 H   0  0  0  0  0  0  0  0  0  0  0  0
   -1.2610   -1.2034    1.2146 H   0  0  0  0  0  0  0  0  0  0  0  0
    2.4008    0.1380   -1.6197 H   0  0  0  0  0  0  0  0  0  0  0  0
    1.8118    2.0998    0.4723 H   0  0  0  0  0  0  0  0  0  0  0  0
    1.2579    2.0371   -1.2168 H   0  0  0  0  0  0  0  0  0  0  0  0
   -1.1961    2.1112   -1.1462 H   0  0  0  0  0  0  0  0  0  0  0  0
   -0.8771    2.8738    0.4177 H   0  0  0  0  0  0  0  0  0  0  0  0
   -3.4979   -0.5319    0.4871 H   0  0  0  0  0  0  0  0  0  0  0  0
   -2.9130   -0.0436   -1.0876 H   0  0  0  0  0  0  0  0  0  0  0  0
   -3.2118    1.9727    0.2496 H   0  0  0  0  0  0  0  0  0  0  0  0
   -2.2990    1.2893    1.5927 H   0  0  0  0  0  0  0  0  0  0  0  0
    1.1883   -0.6084    1.6891 H   0  0  0  0  0  0  0  0  0  0  0  0
   -1.7718   -2.0537   -1.4550 H   0  0  0  0  0  0  0  0  0  0  0  0
    3.8541    0.9013   -0.0225 H   0  0  0  0  0  0  0  0  0  0  0  0
  1  6  1  0  0  0  0
  1 25  1  0  0  0  0
  2  7  1  0  0  0  0
  2 26  1  0  0  0  0
  3  8  1  0  0  0  0
  3 27  1  0  0  0  0
  4  5  1  0  0  0  0
  4  9  1  0  0  0  0
  4 10  1  0  0  0  0
  5  6  1  0  0  0  0
  5  7  1  0  0  0  0
  5 13  1  0  0  0  0
  6  8  1  0  0  0  0
  6 14  1  0  0  0  0
  7 11  1  0  0  0  0
  7 15  1  0  0  0  0
  8  9  1  0  0  0  0
  8 16  1  0  0  0  0
  9 17  1  0  0  0  0
  9 18  1  0  0  0  0
 10 12  1  0  0  0  0
 10 19  1  0  0  0  0
 10 20  1  0  0  0  0
 11 12  1  0  0  0  0
 11 21  1  0  0  0  0
 11 22  1  0  0  0  0
 12 23  1  0  0  0  0
 12 24  1  0  0  0  0
M  END
> <DATABASE_ID>
DB02034

> <DATABASE_NAME>
drugbank

> <ORIGINAL_SOURCE>
PUBCHEM

> <ORIGINAL_SOURCE_URL>
https://pubchem.ncbi.nlm.nih.gov/rest/pug/compound/inchikey/FXUAIOOAOAVCGD-WCTZXXKLSA-N/SDF?record_type=3d

> <SMILES>
[H][C@@]1(O)CN2CCC[C@@]([H])(O)[C@]2([H])[C@]1([H])O

> <INCHI_IDENTIFIER>
InChI=1S/C8H15NO3/c10-5-2-1-3-9-4-6(11)8(12)7(5)9/h5-8,10-12H,1-4H2/t5-,6-,7-,8-/m1/s1

> <INCHI_KEY>
FXUAIOOAOAVCGD-WCTZXXKLSA-N

> <FORMULA>
C8H15NO3

> <MOLECULAR_WEIGHT>
173.2096

> <EXACT_MASS>
173.105193351

> <JCHEM_ACCEPTOR_COUNT>
4

> <JCHEM_AVERAGE_POLARIZABILITY>
17.83790231200739

> <JCHEM_BIOAVAILABILITY>
1

> <JCHEM_DONOR_COUNT>
3

> <JCHEM_FORMAL_CHARGE>
0

> <JCHEM_GHOSE_FILTER>
0

> <JCHEM_IUPAC>
(1S,2R,8R,8aR)-octahydroindolizine-1,2,8-triol

> <ALOGPS_LOGP>
-1.52

> <JCHEM_LOGP>
-1.4067957670000002

> <ALOGPS_LOGS>
0.88

> <JCHEM_MDDR_LIKE_RULE>
0

> <JCHEM_NUMBER_OF_RINGS>
2

> <JCHEM_PHYSIOLOGICAL_CHARGE>
1

> <JCHEM_PKA>
14.38189835886045

> <JCHEM_PKA_STRONGEST_ACIDIC>
13.284673320768636

> <JCHEM_PKA_STRONGEST_BASIC>
9.470513713136212

> <JCHEM_POLAR_SURFACE_AREA>
63.93000000000001

> <JCHEM_REFRACTIVITY>
43.117799999999995

> <JCHEM_ROTATABLE_BOND_COUNT>
0

> <JCHEM_RULE_OF_FIVE>
1

> <ALOGPS_SOLUBILITY>
1.32e+03 g/l

> <JCHEM_TRADITIONAL_IUPAC>
swainsonine

> <JCHEM_VEBER_RULE>
0

> <DRUGBANK_ID>
DB02034

> <SECONDARY_ACCESSION_NUMBERS>
EXPT02983; DB06425

> <DRUG_GROUPS>
experimental

> <GENERIC_NAME>
Tridolgosir

> <SYNONYMS>
(1S,2R,8R,8AR)-octahydro-1,2,8-indolizinetriol; Swainosine; Tridolgosir

> <SALTS>
Tridolgosir hydrochloride

$$$$
