REMARK  Name = 123648
REMARK  4 active torsions:
REMARK  status: ('A' for Active; 'I' for Inactive)
REMARK    1  A    between atoms: C_1  and  C_13
REMARK    2  A    between atoms: C_2  and  N_9
REMARK    3  A    between atoms: C_5  and  S_10
REMARK    4  A    between atoms: C_13  and  O_14
REMARK                            x       y       z     vdW  Elec       q    Type
REMARK                         _______ _______ _______ _____ _____    ______ ____
ROOT
ATOM      1  C   UNL     1      -0.004  -0.582   0.027  0.00  0.00    +0.098 C 
ATOM      2  C   UNL     1      -0.312   0.778   0.007  0.00  0.00    +0.149 C 
ATOM      3  C   UNL     1       1.328  -0.996   0.026  0.00  0.00    +0.014 C 
ATOM      4  C   UNL     1       0.713   1.725  -0.013  0.00  0.00    +0.025 C 
ATOM      5  C   UNL     1       2.352  -0.049   0.006  0.00  0.00    +0.022 C 
ATOM      6  C   UNL     1       2.045   1.311  -0.014  0.00  0.00    +0.008 C 
ENDROOT
BRANCH   2   9
ATOM      7  O   UNL     1      -1.891   2.459  -0.011  0.00  0.00    -0.126 OA
ATOM      8  O   UNL     1      -2.583   0.376   0.025  0.00  0.00    -0.126 OA
ATOM      9  N   UNL     1      -1.662   1.227   0.007  0.00  0.00    +0.058 N 
ENDBRANCH   2   9
BRANCH   5  10
ATOM     10  S   UNL     1       4.054  -0.577   0.005  0.00  0.00    -0.141 S 
ATOM     11  H   UNL     1       4.108  -1.936   0.026  0.00  0.00    +0.107 HD
ENDBRANCH   5  10
BRANCH   1  13
ATOM     12  O   UNL     1      -1.537  -2.066   1.073  0.00  0.00    -0.245 OA
ATOM     13  C   UNL     1      -1.048  -1.600   0.048  0.00  0.00    +0.340 C 
BRANCH  13  14
ATOM     14  O   UNL     1      -1.453  -2.008  -1.187  0.00  0.00    -0.477 OA
ATOM     15  H   UNL     1      -1.064  -1.637  -1.954  0.00  0.00    +0.295 HD
ENDBRANCH  13  14
ENDBRANCH   1  13
TORSDOF 4
