REMARK  Name = 1714210
REMARK  0 active torsions:
REMARK  status: ('A' for Active; 'I' for Inactive)
REMARK                            x       y       z     vdW  Elec       q    Type
REMARK                         _______ _______ _______ _____ _____    ______ ____
ROOT
ATOM      1  S   UNL     1      -2.949   0.322   0.220  0.00  0.00    -0.060 S 
ATOM      2  C   UNL     1       0.980   0.302   0.442  0.00  0.00    +0.004 C 
ATOM      3  C   UNL     1      -0.196   0.533  -0.559  0.00  0.00    +0.021 C 
ATOM      4  C   UNL     1       0.668  -1.214   0.576  0.00  0.00    +0.005 C 
ATOM      5  C   UNL     1       0.081  -0.510  -1.673  0.00  0.00    +0.004 C 
ATOM      6  C   UNL     1       0.682  -1.703  -0.894  0.00  0.00    +0.001 C 
ATOM      7  C   UNL     1      -0.801  -1.261   1.063  0.00  0.00    +0.029 C 
ATOM      8  C   UNL     1      -1.339  -0.104   0.245  0.00  0.00    -0.009 C 
ATOM      9  C   UNL     1       2.387   0.593  -0.118  0.00  0.00    +0.000 C 
ATOM     10  C   UNL     1       0.865   1.094   1.762  0.00  0.00    +0.000 C 
ATOM     11  C   UNL     1      -0.379   1.948  -1.065  0.00  0.00    +0.005 C 
ENDROOT
TORSDOF 0
