REMARK  Name = 1055
REMARK  8 active torsions:
REMARK  status: ('A' for Active; 'I' for Inactive)
REMARK    1  A    between atoms: C_2  and  C_18
REMARK    2  A    between atoms: C_3  and  C_10
REMARK    3  A    between atoms: C_4  and  O_8
REMARK    4  A    between atoms: C_10  and  O_11
REMARK    5  A    between atoms: O_11  and  P_12
REMARK    6  A    between atoms: P_12  and  O_14
REMARK    7  A    between atoms: P_12  and  O_16
REMARK    8  A    between atoms: C_18  and  O_19
REMARK                            x       y       z     vdW  Elec       q    Type
REMARK                         _______ _______ _______ _____ _____    ______ ____
ROOT
ATOM      1  N   UNL     1       2.156   1.904   0.332  0.00  0.00    -0.245 NA
ATOM      2  C   UNL     1       1.098  -0.657  -0.037  0.00  0.00    +0.042 C 
ATOM      3  C   UNL     1       0.286   0.374   0.423  0.00  0.00    +0.028 C 
ATOM      4  C   UNL     1       2.438  -0.409  -0.312  0.00  0.00    +0.145 C 
ATOM      5  C   UNL     1       2.914   0.877  -0.113  0.00  0.00    +0.093 C 
ATOM      6  C   UNL     1       0.859   1.625   0.590  0.00  0.00    +0.097 C 
ATOM      7  C   UNL     1       4.346   1.197  -0.394  0.00  0.00    +0.055 C 
ENDROOT
BRANCH   4   8
ATOM      8  O   UNL     1       3.255  -1.398  -0.762  0.00  0.00    -0.505 OA
ATOM      9  H   UNL     1       2.917  -2.262  -0.892  0.00  0.00    +0.292 HD
ENDBRANCH   4   8
BRANCH   3  10
ATOM     10  C   UNL     1      -1.155   0.166   0.735  0.00  0.00    +0.181 C 
BRANCH  10  11
ATOM     11  O   UNL     1      -1.933   0.414  -0.431  0.00  0.00    -0.268 OA
BRANCH  11  12
ATOM     12  P   UNL     1      -3.538   0.249  -0.331  0.00  0.00    +0.473 P 
ATOM     13  O   UNL     1      -4.286   0.528  -1.602  0.00  0.00    -0.227 OA
BRANCH  12  14
ATOM     14  O   UNL     1      -3.943   1.179   0.928  0.00  0.00    -0.303 OA
ATOM     15  H   UNL     1      -3.411   0.929   1.700  0.00  0.00    +0.222 HD
ENDBRANCH  12  14
BRANCH  12  16
ATOM     16  O   UNL     1      -3.706  -1.252   0.245  0.00  0.00    -0.303 OA
ATOM     17  H   UNL     1      -3.192  -1.344   1.063  0.00  0.00    +0.222 HD
ENDBRANCH  12  16
ENDBRANCH  11  12
ENDBRANCH  10  11
ENDBRANCH   3  10
BRANCH   2  18
ATOM     18  C   UNL     1       0.534  -2.027  -0.236  0.00  0.00    +0.166 C 
BRANCH  18  19
ATOM     19  O   UNL     1       0.675  -2.771   0.966  0.00  0.00    -0.377 OA
ATOM     20  H   UNL     1       0.310  -3.661   0.840  0.00  0.00    +0.211 HD
ENDBRANCH  18  19
ENDBRANCH   2  18
TORSDOF 8
