REMARK  Name = 448673
REMARK  10 active torsions:
REMARK  status: ('A' for Active; 'I' for Inactive)
REMARK    1  A    between atoms: P_1  and  O_3
REMARK    2  A    between atoms: P_1  and  O_5
REMARK    3  A    between atoms: P_1  and  O_11
REMARK    4  A    between atoms: O_5  and  C_6
REMARK    5  A    between atoms: C_6  and  C_7
REMARK    6  A    between atoms: C_7  and  C_8
REMARK    7  A    between atoms: C_8  and  C_9
REMARK    8  A    between atoms: O_11  and  P_12
REMARK    9  A    between atoms: P_12  and  O_14
REMARK   10  A    between atoms: P_12  and  O_16
REMARK                            x       y       z     vdW  Elec       q    Type
REMARK                         _______ _______ _______ _____ _____    ______ ____
ROOT
ATOM      1  P   UNL     1       1.507  -1.445  -0.020  0.00  0.00    +0.484 P 
ATOM      2  O   UNL     1       2.478  -2.004   0.979  0.00  0.00    -0.227 OA
ENDROOT
BRANCH   1   3
ATOM      3  O   UNL     1       1.259  -2.390  -1.310  0.00  0.00    -0.302 OA
ATOM      4  H   UNL     1       0.623  -1.963  -1.905  0.00  0.00    +0.222 HD
ENDBRANCH   1   3
BRANCH   1   5
ATOM      5  O   UNL     1       0.027  -1.162   0.565  0.00  0.00    -0.273 OA
BRANCH   5   6
ATOM      6  C   UNL     1      -0.981  -0.632  -0.285  0.00  0.00    +0.154 C 
BRANCH   6   7
ATOM      7  C   UNL     1      -2.264  -0.466   0.517  0.00  0.00    +0.033 C 
BRANCH   7   8
ATOM      8  C   UNL     1      -3.390   0.116  -0.335  0.00  0.00    +0.003 C 
BRANCH   8   9
ATOM      9  C   UNL     1      -4.662   0.320   0.488  0.00  0.00    +0.000 C 
ATOM     10  C   UNL     1      -5.775   0.931  -0.348  0.00  0.00    +0.000 C 
ENDBRANCH   8   9
ENDBRANCH   7   8
ENDBRANCH   6   7
ENDBRANCH   5   6
ENDBRANCH   1   5
BRANCH   1  11
ATOM     11  O   UNL     1       1.964  -0.039  -0.673  0.00  0.00    -0.186 OA
BRANCH  11  12
ATOM     12  P   UNL     1       2.277   1.394   0.007  0.00  0.00    +0.481 P 
ATOM     13  O   UNL     1       1.126   1.997   0.756  0.00  0.00    -0.227 OA
BRANCH  12  14
ATOM     14  O   UNL     1       2.831   2.273  -1.231  0.00  0.00    -0.302 OA
ATOM     15  H   UNL     1       3.570   1.808  -1.654  0.00  0.00    +0.222 HD
ENDBRANCH  12  14
BRANCH  12  16
ATOM     16  O   UNL     1       3.602   1.107   0.888  0.00  0.00    -0.302 OA
ATOM     17  H   UNL     1       4.288   0.719   0.323  0.00  0.00    +0.222 HD
ENDBRANCH  12  16
ENDBRANCH  11  12
ENDBRANCH   1  11
TORSDOF 10
