17753790
  -OEChem-10051723573D

 29 30  0     1  0  0  0  0  0999 V2000
    2.7020    1.2454   -1.3638 O   0  0  0  0  0  0  0  0  0  0  0  0
    4.3024    0.4580    0.0379 O   0  0  0  0  0  0  0  0  0  0  0  0
   -1.1031    2.1916    0.3713 N   0  0  0  0  0  0  0  0  0  0  0  0
    3.0329   -1.9748    0.0561 N   0  0  0  0  0  0  0  0  0  0  0  0
   -1.0286   -2.4997    0.1750 N   0  0  0  0  0  0  0  0  0  0  0  0
    0.1459    0.3836    0.6848 C   0  0  0  0  0  0  0  0  0  0  0  0
    1.2989   -0.4802    1.0124 C   0  0  0  0  0  0  0  0  0  0  0  0
   -1.1438   -0.0359    0.2539 C   0  0  0  0  0  0  0  0  0  0  0  0
   -1.9078    1.1176    0.0642 C   0  0  0  0  0  0  0  0  0  0  0  0
    2.2214   -0.7861   -0.1953 C   0  0  1  0  0  0  0  0  0  0  0  0
    0.1399    1.7581    0.7473 C   0  0  0  0  0  0  0  0  0  0  0  0
   -1.7363   -1.2902    0.0060 C   0  0  0  0  0  0  0  0  0  0  0  0
   -3.2398    1.0794   -0.3628 C   0  0  0  0  0  0  0  0  0  0  0  0
   -3.0679   -1.3437   -0.4212 C   0  0  0  0  0  0  0  0  0  0  0  0
   -3.8065   -0.1757   -0.6020 C   0  0  0  0  0  0  0  0  0  0  0  0
    3.1905    0.3526   -0.4639 C   0  0  0  0  0  0  0  0  0  0  0  0
    1.8992    0.0298    1.7814 H   0  0  0  0  0  0  0  0  0  0  0  0
    0.9683   -1.3924    1.5164 H   0  0  0  0  0  0  0  0  0  0  0  0
    1.6320   -0.9725   -1.1010 H   0  0  0  0  0  0  0  0  0  0  0  0
    0.9066    2.4681    1.0252 H   0  0  0  0  0  0  0  0  0  0  0  0
   -1.3894    3.1598    0.3253 H   0  0  0  0  0  0  0  0  0  0  0  0
   -3.8153    1.9880   -0.5040 H   0  0  0  0  0  0  0  0  0  0  0  0
   -3.5432   -2.3022   -0.6184 H   0  0  0  0  0  0  0  0  0  0  0  0
   -4.8393   -0.2403   -0.9346 H   0  0  0  0  0  0  0  0  0  0  0  0
    3.5653   -2.2107   -0.7808 H   0  0  0  0  0  0  0  0  0  0  0  0
    2.4245   -2.7722    0.2377 H   0  0  0  0  0  0  0  0  0  0  0  0
   -1.5615   -3.3460    0.3348 H   0  0  0  0  0  0  0  0  0  0  0  0
   -0.0486   -2.5164    0.3999 H   0  0  0  0  0  0  0  0  0  0  0  0
    3.3384    1.9703   -1.5418 H   0  0  0  0  0  0  0  0  0  0  0  0
  1 16  1  0  0  0  0
  1 29  1  0  0  0  0
  2 16  2  0  0  0  0
  3  9  1  0  0  0  0
  3 11  1  0  0  0  0
  3 21  1  0  0  0  0
  4 10  1  0  0  0  0
  4 25  1  0  0  0  0
  4 26  1  0  0  0  0
  5 12  1  0  0  0  0
  5 27  1  0  0  0  0
  5 28  1  0  0  0  0
  6  7  1  0  0  0  0
  6  8  1  0  0  0  0
  6 11  2  0  0  0  0
  7 10  1  0  0  0  0
  7 17  1  0  0  0  0
  7 18  1  0  0  0  0
  8  9  1  0  0  0  0
  8 12  2  0  0  0  0
  9 13  2  0  0  0  0
 10 16  1  0  0  0  0
 10 19  1  0  0  0  0
 11 20  1  0  0  0  0
 12 14  1  0  0  0  0
 13 15  1  0  0  0  0
 13 22  1  0  0  0  0
 14 15  2  0  0  0  0
 14 23  1  0  0  0  0
 15 24  1  0  0  0  0
M  END
> <DATABASE_ID>
DB02286

> <DATABASE_NAME>
drugbank

> <ORIGINAL_SOURCE>
PUBCHEM

> <ORIGINAL_SOURCE_URL>
https://pubchem.ncbi.nlm.nih.gov/rest/pug/compound/inchikey/JUDQOTGDEFNIKF-QMMMGPOBSA-N/SDF?record_type=3d

> <SMILES>
[H][C@](N)(CC1=CNC2=CC=CC(N)=C12)C(O)=O

> <INCHI_IDENTIFIER>
InChI=1S/C11H13N3O2/c12-7-2-1-3-9-10(7)6(5-14-9)4-8(13)11(15)16/h1-3,5,8,14H,4,12-13H2,(H,15,16)/t8-/m0/s1

> <INCHI_KEY>
JUDQOTGDEFNIKF-QMMMGPOBSA-N

> <FORMULA>
C11H13N3O2

> <MOLECULAR_WEIGHT>
219.2398

> <EXACT_MASS>
219.100776675

> <JCHEM_ACCEPTOR_COUNT>
4

> <JCHEM_AVERAGE_POLARIZABILITY>
22.482850996092417

> <JCHEM_BIOAVAILABILITY>
1

> <JCHEM_DONOR_COUNT>
4

> <JCHEM_FORMAL_CHARGE>
0

> <JCHEM_GHOSE_FILTER>
0

> <JCHEM_IUPAC>
(2S)-2-amino-3-(4-amino-1H-indol-3-yl)propanoic acid

> <ALOGPS_LOGP>
-1.35

> <JCHEM_LOGP>
-1.9160567218903344

> <ALOGPS_LOGS>
-1.72

> <JCHEM_MDDR_LIKE_RULE>
0

> <JCHEM_NUMBER_OF_RINGS>
2

> <JCHEM_PHYSIOLOGICAL_CHARGE>
0

> <JCHEM_PKA>
17.467603739685394

> <JCHEM_PKA_STRONGEST_ACIDIC>
1.8381523236524746

> <JCHEM_PKA_STRONGEST_BASIC>
9.398784316090985

> <JCHEM_POLAR_SURFACE_AREA>
105.13000000000001

> <JCHEM_REFRACTIVITY>
60.9032

> <JCHEM_ROTATABLE_BOND_COUNT>
3

> <JCHEM_RULE_OF_FIVE>
1

> <ALOGPS_SOLUBILITY>
4.17e+00 g/l

> <JCHEM_TRADITIONAL_IUPAC>
(2S)-2-amino-3-(4-amino-1H-indol-3-yl)propanoic acid

> <JCHEM_VEBER_RULE>
0

> <DRUGBANK_ID>
DB02286

> <SECONDARY_ACCESSION_NUMBERS>
EXPT00218

> <DRUG_GROUPS>
experimental

> <GENERIC_NAME>
2-Amino-3-(4-Amino-1h-Indol-3-Yl)Propanoic Acid

$$$$
