REMARK  Name = 445278
REMARK  5 active torsions:
REMARK  status: ('A' for Active; 'I' for Inactive)
REMARK    1  A    between atoms: C_1  and  O_3
REMARK    2  A    between atoms: C_1  and  C_5
REMARK    3  A    between atoms: C_1  and  C_9
REMARK    4  A    between atoms: C_5  and  O_7
REMARK    5  A    between atoms: C_9  and  N_10
REMARK                            x       y       z     vdW  Elec       q    Type
REMARK                         _______ _______ _______ _____ _____    ______ ____
ROOT
ATOM      1  C   UNL     1      -0.229  -0.445   0.171  0.00  0.00    +0.093 C 
ATOM      2  C   UNL     1      -0.562  -1.629  -0.747  0.00  0.00    +0.030 C 
ENDROOT
BRANCH   1   3
ATOM      3  O   UNL     1       0.263  -1.016   1.393  0.00  0.00    -0.386 OA
ATOM      4  H   UNL     1       0.490  -0.306   2.013  0.00  0.00    +0.210 HD
ENDBRANCH   1   3
BRANCH   1   5
ATOM      5  C   UNL     1       0.876   0.451  -0.449  0.00  0.00    +0.133 C 
ATOM      6  C   UNL     1       1.270   1.658   0.400  0.00  0.00    +0.034 C 
BRANCH   5   7
ATOM      7  O   UNL     1       2.057  -0.321  -0.681  0.00  0.00    -0.382 OA
ATOM      8  H   UNL     1       1.836  -1.096  -1.220  0.00  0.00    +0.210 HD
ENDBRANCH   5   7
ENDBRANCH   1   5
BRANCH   1   9
ATOM      9  C   UNL     1      -1.507   0.349   0.532  0.00  0.00    -0.056 C 
BRANCH   9  10
ATOM     10  N   UNL     1      -2.169   0.953  -0.619  0.00  0.00    +0.382 N 
ATOM     11  H   UNL     1      -2.999   1.457  -0.308  0.00  0.00    -0.089 HD
ATOM     12  H   UNL     1      -2.442   0.222  -1.276  0.00  0.00    -0.089 HD
ATOM     13  H   UNL     1      -1.529   1.601  -1.078  0.00  0.00    -0.089 HD
ENDBRANCH   9  10
ENDBRANCH   1   9
TORSDOF 5
