REMARK  Name = 448400
REMARK  9 active torsions:
REMARK  status: ('A' for Active; 'I' for Inactive)
REMARK    1  A    between atoms: P_1  and  O_3
REMARK    2  A    between atoms: P_1  and  O_5
REMARK    3  A    between atoms: P_1  and  O_11
REMARK    4  A    between atoms: O_5  and  C_6
REMARK    5  A    between atoms: C_6  and  C_7
REMARK    6  A    between atoms: C_7  and  C_8
REMARK    7  A    between atoms: O_11  and  P_12
REMARK    8  A    between atoms: P_12  and  O_14
REMARK    9  A    between atoms: P_12  and  O_16
REMARK                            x       y       z     vdW  Elec       q    Type
REMARK                         _______ _______ _______ _____ _____    ______ ____
ROOT
ATOM      1  P   UNL     1      -1.112   1.522  -0.052  0.00  0.00    +0.484 P 
ATOM      2  O   UNL     1      -2.128   2.226   0.801  0.00  0.00    -0.227 OA
ENDROOT
BRANCH   1   3
ATOM      3  O   UNL     1      -0.614   2.373  -1.335  0.00  0.00    -0.302 OA
ATOM      4  H   UNL     1       0.037   1.855  -1.833  0.00  0.00    +0.222 HD
ENDBRANCH   1   3
BRANCH   1   5
ATOM      5  O   UNL     1       0.249   1.117   0.719  0.00  0.00    -0.273 OA
BRANCH   5   6
ATOM      6  C   UNL     1       1.287   0.446   0.016  0.00  0.00    +0.154 C 
BRANCH   6   7
ATOM      7  C   UNL     1       2.441   0.189   0.978  0.00  0.00    +0.033 C 
BRANCH   7   8
ATOM      8  C   UNL     1       3.642  -0.518   0.329  0.00  0.00    +0.003 C 
ATOM      9  C   UNL     1       3.199  -1.861  -0.258  0.00  0.00    +0.000 C 
ATOM     10  C   UNL     1       4.298   0.330  -0.760  0.00  0.00    +0.000 C 
ENDBRANCH   7   8
ENDBRANCH   6   7
ENDBRANCH   5   6
ENDBRANCH   1   5
BRANCH   1  11
ATOM     11  O   UNL     1      -1.639   0.141  -0.706  0.00  0.00    -0.186 OA
BRANCH  11  12
ATOM     12  P   UNL     1      -2.183  -1.218  -0.019  0.00  0.00    +0.481 P 
ATOM     13  O   UNL     1      -1.199  -1.899   0.886  0.00  0.00    -0.227 OA
BRANCH  12  14
ATOM     14  O   UNL     1      -2.679  -2.094  -1.283  0.00  0.00    -0.302 OA
ATOM     15  H   UNL     1      -3.308  -1.577  -1.808  0.00  0.00    +0.222 HD
ENDBRANCH  12  14
BRANCH  12  16
ATOM     16  O   UNL     1      -3.562  -0.754   0.684  0.00  0.00    -0.302 OA
ATOM     17  H   UNL     1      -4.132  -0.326   0.027  0.00  0.00    +0.222 HD
ENDBRANCH  12  16
ENDBRANCH  11  12
ENDBRANCH   1  11
TORSDOF 9
