REMARK  Name = 445825
REMARK  6 active torsions:
REMARK  status: ('A' for Active; 'I' for Inactive)
REMARK    1  A    between atoms: C_2  and  O_12
REMARK    2  A    between atoms: C_3  and  O_14
REMARK    3  A    between atoms: C_4  and  O_16
REMARK    4  A    between atoms: C_5  and  C_18
REMARK    5  A    between atoms: C_6  and  C_9
REMARK    6  A    between atoms: C_18  and  O_19
REMARK                            x       y       z     vdW  Elec       q    Type
REMARK                         _______ _______ _______ _____ _____    ______ ____
ROOT
ATOM      1  O   UNL     1       0.786   0.684  -0.919  0.00  0.00    -0.342 OA
ATOM      2  C   UNL     1      -0.926  -1.365   0.187  0.00  0.00    +0.169 C 
ATOM      3  C   UNL     1       0.586  -1.553   0.050  0.00  0.00    +0.169 C 
ATOM      4  C   UNL     1      -1.429  -0.330  -0.818  0.00  0.00    +0.176 C 
ATOM      5  C   UNL     1       1.313  -0.204   0.071  0.00  0.00    +0.174 C 
ATOM      6  C   UNL     1      -0.603   0.954  -0.790  0.00  0.00    +0.220 C 
ENDROOT
BRANCH   6   9
ATOM      7  O   UNL     1      -1.630   1.475   1.309  0.00  0.00    -0.273 OA
ATOM      8  N   UNL     1      -0.141   2.988   0.422  0.00  0.00    -0.327 N 
ATOM      9  C   UNL     1      -0.849   1.810   0.421  0.00  0.00    +0.249 C 
ATOM     10  H   UNL     1      -0.233   3.618   1.173  0.00  0.00    +0.145 HD
ATOM     11  H   UNL     1       0.459   3.202  -0.329  0.00  0.00    +0.145 HD
ENDBRANCH   6   9
BRANCH   2  12
ATOM     12  O   UNL     1      -1.584  -2.603  -0.087  0.00  0.00    -0.379 OA
ATOM     13  H   UNL     1      -1.279  -3.277   0.541  0.00  0.00    +0.211 HD
ENDBRANCH   2  12
BRANCH   3  14
ATOM     14  O   UNL     1       1.066  -2.352   1.128  0.00  0.00    -0.379 OA
ATOM     15  H   UNL     1       0.612  -3.209   1.123  0.00  0.00    +0.211 HD
ENDBRANCH   3  14
BRANCH   4  16
ATOM     16  O   UNL     1      -2.803  -0.050  -0.569  0.00  0.00    -0.379 OA
ATOM     17  H   UNL     1      -3.310  -0.877  -0.590  0.00  0.00    +0.211 HD
ENDBRANCH   4  16
BRANCH   5  18
ATOM     18  C   UNL     1       2.804  -0.367  -0.215  0.00  0.00    +0.169 C 
BRANCH  18  19
ATOM     19  O   UNL     1       3.408   0.913  -0.191  0.00  0.00    -0.379 OA
ATOM     20  H   UNL     1       4.357   0.825  -0.372  0.00  0.00    +0.211 HD
ENDBRANCH  18  19
ENDBRANCH   5  18
TORSDOF 6
