REMARK  Name = 83887
REMARK  6 active torsions:
REMARK  status: ('A' for Active; 'I' for Inactive)
REMARK    1  A    between atoms: CA_1  and  N_2
REMARK    2  A    between atoms: CA_1  and  C_7
REMARK    3  A    between atoms: CA_1  and  CB_10
REMARK    4  A    between atoms: C_7  and  O_8
REMARK    5  A    between atoms: CB_10  and  CG_12
REMARK    6  A    between atoms: CG_12  and  OD1_13
REMARK                            x       y       z     vdW  Elec       q    Type
REMARK                         _______ _______ _______ _____ _____    ______ ____
ROOT
ATOM      1  CA  ASP A   1       0.711   0.659  -0.527  0.00  0.00    +0.047 C 
ENDROOT
BRANCH   1   2
ATOM      2  N   ASP A   1       1.673   1.749  -0.363  0.00  0.00    +0.389 N 
ATOM      3  H1  ASP A   1       1.333   2.579  -0.848  0.00  0.00    -0.088 HD
ATOM      4  H2  ASP A   1       2.573   1.471  -0.755  0.00  0.00    -0.088 HD
ATOM      5  H3  ASP A   1       1.785   1.957   0.630  0.00  0.00    -0.088 HD
ENDBRANCH   1   2
BRANCH   1   7
ATOM      6  OXT ASP A   1       1.505  -0.577   1.422  0.00  0.00    -0.253 OA
ATOM      7  C   ASP A   1       1.285  -0.535   0.218  0.00  0.00    +0.293 C 
BRANCH   7   8
ATOM      8  O   ASP A   1       1.514  -1.592  -0.607  0.00  0.00    -0.482 OA
ATOM      9  H   ASP A   1       1.332  -1.519  -1.523  0.00  0.00    +0.295 HD
ENDBRANCH   7   8
ENDBRANCH   1   7
BRANCH   1  10
ATOM     10  CB  ASP A   1      -0.658   1.085   0.016  0.00  0.00    +0.098 C 
BRANCH  10  12
ATOM     11  OD2 ASP A   1      -1.734  -0.879  -0.960  0.00  0.00    -0.250 OA
ATOM     12  CG  ASP A   1      -1.693  -0.011  -0.101  0.00  0.00    +0.312 C 
BRANCH  12  13
ATOM     13  OD1 ASP A   1      -2.603   0.100   0.901  0.00  0.00    -0.480 OA
ATOM     14  HD1 ASP A   1      -2.521   0.787   1.533  0.00  0.00    +0.295 HD
ENDBRANCH  12  13
ENDBRANCH  10  12
ENDBRANCH   1  10
TORSDOF 6
