REMARK  Name = 446659
REMARK  5 active torsions:
REMARK  status: ('A' for Active; 'I' for Inactive)
REMARK    1  A    between atoms: C_6  and  C_16
REMARK    2  A    between atoms: C_15  and  O_19
REMARK    3  A    between atoms: C_17  and  O_21
REMARK    4  A    between atoms: C_18  and  C_23
REMARK    5  A    between atoms: C_23  and  O_24
REMARK                            x       y       z     vdW  Elec       q    Type
REMARK                         _______ _______ _______ _____ _____    ______ ____
ROOT
ATOM      1  N   UNL     1       0.604  -2.067  -0.604  0.00  0.00    -0.251 N 
ATOM      2  N   UNL     1       1.939  -1.940  -0.466  0.00  0.00    -0.181 NA
ATOM      3  N   UNL     1       0.671   1.332   0.131  0.00  0.00    -0.245 NA
ATOM      4  N   UNL     1       3.150   1.401   0.350  0.00  0.00    -0.228 NA
ATOM      5  N   UNL     1       4.575  -0.524   0.055  0.00  0.00    -0.316 N 
ATOM      6  C   UNL     1      -0.095  -0.915  -0.414  0.00  0.00    +0.158 C 
ATOM      7  C   UNL     1       0.854   0.020  -0.135  0.00  0.00    +0.099 C 
ATOM      8  C   UNL     1       2.128  -0.642  -0.172  0.00  0.00    +0.144 C 
ATOM      9  C   UNL     1       3.306   0.075   0.079  0.00  0.00    +0.146 C 
ATOM     10  C   UNL     1       1.880   1.925   0.358  0.00  0.00    +0.252 C 
ATOM     11  C   UNL     1       5.787   0.199   0.308  0.00  0.00    +0.110 C 
ATOM     12  H   UNL     1       0.170  -2.923  -0.823  0.00  0.00    +0.169 HD
ATOM     13  H   UNL     1       4.636  -1.486  -0.145  0.00  0.00    +0.148 HD
ENDROOT
BRANCH   6  16
ATOM     14  O   UNL     1      -1.979   0.443  -1.036  0.00  0.00    -0.349 OA
ATOM     15  C   UNL     1      -2.319  -1.006   0.805  0.00  0.00    +0.169 C 
ATOM     16  C   UNL     1      -1.599  -0.852  -0.526  0.00  0.00    +0.169 C 
ATOM     17  C   UNL     1      -3.608  -0.246   0.558  0.00  0.00    +0.169 C 
ATOM     18  C   UNL     1      -3.145   0.912  -0.320  0.00  0.00    +0.174 C 
BRANCH  15  19
ATOM     19  O   UNL     1      -2.534  -2.363   1.134  0.00  0.00    -0.379 OA
ATOM     20  H   UNL     1      -1.680  -2.800   1.281  0.00  0.00    +0.211 HD
ENDBRANCH  15  19
BRANCH  17  21
ATOM     21  O   UNL     1      -4.539  -1.047  -0.169  0.00  0.00    -0.379 OA
ATOM     22  H   UNL     1      -4.835  -1.784   0.388  0.00  0.00    +0.211 HD
ENDBRANCH  17  21
BRANCH  18  23
ATOM     23  C   UNL     1      -2.750   2.143   0.482  0.00  0.00    +0.169 C 
BRANCH  23  24
ATOM     24  O   UNL     1      -2.326   3.154  -0.416  0.00  0.00    -0.379 OA
ATOM     25  H   UNL     1      -2.071   3.945   0.084  0.00  0.00    +0.211 HD
ENDBRANCH  23  24
ENDBRANCH  18  23
ENDBRANCH   6  16
TORSDOF 5
