REMARK  Name = 122671
REMARK  5 active torsions:
REMARK  status: ('A' for Active; 'I' for Inactive)
REMARK    1  A    between atoms: C_2  and  C_10
REMARK    2  A    between atoms: C_3  and  O_18
REMARK    3  A    between atoms: C_4  and  O_20
REMARK    4  A    between atoms: C_5  and  C_22
REMARK    5  A    between atoms: C_22  and  O_23
REMARK                            x       y       z     vdW  Elec       q    Type
REMARK                         _______ _______ _______ _____ _____    ______ ____
ROOT
ATOM      1  O   UNL     1      -2.108   0.499  -0.988  0.00  0.00    -0.347 OA
ATOM      2  C   UNL     1      -1.117  -0.394  -0.430  0.00  0.00    +0.169 C 
ATOM      3  C   UNL     1      -1.758  -0.994   0.818  0.00  0.00    +0.171 C 
ATOM      4  C   UNL     1      -3.228  -1.026   0.449  0.00  0.00    +0.169 C 
ATOM      5  C   UNL     1      -3.387   0.253  -0.364  0.00  0.00    +0.174 C 
ENDROOT
BRANCH   2  10
ATOM      6  O   UNL     1       4.646   1.352   0.429  0.00  0.00    -0.221 OA
ATOM      7  N   UNL     1       1.706   1.851   0.376  0.00  0.00    -0.302 N 
ATOM      8  N   UNL     1       1.887  -1.502  -0.541  0.00  0.00    -0.311 N 
ATOM      9  N   UNL     1       4.191  -0.821  -0.203  0.00  0.00    -0.179 NA
ATOM     10  C   UNL     1       0.192   0.293  -0.154  0.00  0.00    +0.037 C 
ATOM     11  C   UNL     1       1.480  -0.261  -0.224  0.00  0.00    +0.071 C 
ATOM     12  C   UNL     1       0.359   1.611   0.222  0.00  0.00    +0.062 C 
ATOM     13  C   UNL     1       2.404   0.705   0.104  0.00  0.00    +0.146 C 
ATOM     14  C   UNL     1       3.833   0.483   0.135  0.00  0.00    +0.167 C 
ATOM     15  C   UNL     1       3.256  -1.678  -0.501  0.00  0.00    +0.229 C 
ATOM     16  H   UNL     1       2.104   2.712   0.641  0.00  0.00    +0.153 HD
ATOM     17  H   UNL     1       1.263  -2.225  -0.781  0.00  0.00    +0.149 HD
ENDBRANCH   2  10
BRANCH   3  18
ATOM     18  O   UNL     1      -1.239  -2.276   1.115  0.00  0.00    -0.379 OA
ATOM     19  H   UNL     1      -0.300  -2.199   1.344  0.00  0.00    +0.211 HD
ENDBRANCH   3  18
BRANCH   4  20
ATOM     20  O   UNL     1      -3.519  -2.151  -0.379  0.00  0.00    -0.379 OA
ATOM     21  H   UNL     1      -3.419  -2.967   0.136  0.00  0.00    +0.211 HD
ENDBRANCH   4  20
BRANCH   5  22
ATOM     22  C   UNL     1      -3.742   1.461   0.491  0.00  0.00    +0.169 C 
BRANCH  22  23
ATOM     23  O   UNL     1      -3.856   2.595  -0.352  0.00  0.00    -0.379 OA
ATOM     24  H   UNL     1      -4.082   3.373   0.182  0.00  0.00    +0.211 HD
ENDBRANCH  22  23
ENDBRANCH   5  22
TORSDOF 5
