REMARK  Name = 6175
REMARK  5 active torsions:
REMARK  status: ('A' for Active; 'I' for Inactive)
REMARK    1  A    between atoms: C2*_2  and  O2*_16
REMARK    2  A    between atoms: C3*_3  and  O3*_18
REMARK    3  A    between atoms: C1*_4  and  N1_7
REMARK    4  A    between atoms: C4*_5  and  C5*_20
REMARK    5  A    between atoms: C5*_20  and  O5*_21
REMARK                            x       y       z     vdW  Elec       q    Type
REMARK                         _______ _______ _______ _____ _____    ______ ____
ROOT
ATOM      1  O4* C   A   1      -1.368  -0.537   1.021  0.00  0.00    -0.332 OA
ATOM      2  C2* C   A   1      -1.363   0.982  -0.797  0.00  0.00    +0.188 C 
ATOM      3  C3* C   A   1      -2.795   0.594  -0.494  0.00  0.00    +0.171 C 
ATOM      4  C1* C   A   1      -0.651   0.587   0.485  0.00  0.00    +0.236 C 
ATOM      5  C4* C   A   1      -2.615  -0.688   0.308  0.00  0.00    +0.175 C 
ENDROOT
BRANCH   4   7
ATOM      6  O2  C   A   1       1.575   2.299   0.702  0.00  0.00    -0.193 OA
ATOM      7  N1  C   A   1       0.713   0.204   0.259  0.00  0.00    -0.178 N 
ATOM      8  N3  C   A   1       3.076   0.686   0.155  0.00  0.00    -0.306 NA
ATOM      9  N4  C   A   1       4.608  -0.970  -0.407  0.00  0.00    -0.332 N 
ATOM     10  C6  C   A   1       0.987  -1.107  -0.097  0.00  0.00    +0.083 C 
ATOM     11  C2  C   A   1       1.784   1.126   0.388  0.00  0.00    +0.276 C 
ATOM     12  C5  C   A   1       2.222  -1.549  -0.327  0.00  0.00    +0.065 C 
ATOM     13  C4  C   A   1       3.317  -0.554  -0.180  0.00  0.00    +0.193 C 
ATOM     14  H41 C   A   1       5.353  -0.333  -0.318  0.00  0.00    +0.145 HD
ATOM     15  H42 C   A   1       4.787  -1.905  -0.660  0.00  0.00    +0.145 HD
ENDBRANCH   4   7
BRANCH   2  16
ATOM     16  O2* C   A   1      -1.231   2.358  -1.090  0.00  0.00    -0.378 OA
ATOM     17  H2* C   A   1      -1.701   2.560  -1.914  0.00  0.00    +0.211 HD
ENDBRANCH   2  16
BRANCH   3  18
ATOM     18  O3* C   A   1      -3.401   1.565   0.359  0.00  0.00    -0.379 OA
ATOM     19  H3* C   A   1      -3.526   2.393  -0.131  0.00  0.00    +0.211 HD
ENDBRANCH   3  18
BRANCH   5  20
ATOM     20  C5* C   A   1      -2.516  -1.933  -0.563  0.00  0.00    +0.169 C 
BRANCH  20  21
ATOM     21  O5* C   A   1      -2.341  -3.061   0.277  0.00  0.00    -0.379 OA
ATOM     22  H5* C   A   1      -2.276  -3.862  -0.267  0.00  0.00    +0.211 HD
ENDBRANCH  20  21
ENDBRANCH   5  20
TORSDOF 5
