REMARK  Name = 447030
REMARK  5 active torsions:
REMARK  status: ('A' for Active; 'I' for Inactive)
REMARK    1  A    between atoms: N_1  and  C_4
REMARK    2  A    between atoms: N_1  and  C_10
REMARK    3  A    between atoms: N_2  and  O_8
REMARK    4  A    between atoms: C_10  and  C_11
REMARK    5  A    between atoms: C_11  and  C_12
REMARK                            x       y       z     vdW  Elec       q    Type
REMARK                         _______ _______ _______ _____ _____    ______ ____
ROOT
ATOM      1  N   UNL     1      -2.583  -0.657   0.170  0.00  0.00    -0.237 N 
ATOM      2  N   UNL     1      -2.152   1.569   0.293  0.00  0.00    -0.368 N 
ATOM      3  C   UNL     1      -1.610   0.317   0.085  0.00  0.00    +0.215 C 
ATOM      4  H   UNL     1      -3.481  -0.462   0.522  0.00  0.00    +0.197 HD
ATOM      5  H   UNL     1      -1.575   2.366   0.262  0.00  0.00    +0.159 HD
ATOM      6  H   UNL     1      -3.115   1.665   0.472  0.00  0.00    +0.159 HD
ENDROOT
BRANCH   1   7
ATOM      7  O   UNL     1      -2.235  -1.919  -0.263  0.00  0.00    -0.287 OA
ATOM      8  H   UNL     1      -2.991  -2.517  -0.157  0.00  0.00    +0.244 HD
ENDBRANCH   1   7
BRANCH   3   9
ATOM      9  N   UNL     1      -0.366   0.034  -0.152  0.00  0.00    -0.238 NA
BRANCH   9  10
ATOM     10  C   UNL     1       0.572   1.156  -0.213  0.00  0.00    +0.129 C 
BRANCH  10  11
ATOM     11  C   UNL     1       1.968   0.646  -0.553  0.00  0.00    +0.026 C 
BRANCH  11  12
ATOM     12  C   UNL     1       2.510  -0.321   0.502  0.00  0.00    +0.002 C 
ATOM     13  C   UNL     1       3.896  -0.825   0.132  0.00  0.00    +0.000 C 
ENDBRANCH  11  12
ENDBRANCH  10  11
ENDBRANCH   9  10
ENDBRANCH   3   9
TORSDOF 5
