REMARK  Name = 447722
REMARK  5 active torsions:
REMARK  status: ('A' for Active; 'I' for Inactive)
REMARK    1  A    between atoms: C_2  and  C_20
REMARK    2  A    between atoms: C_3  and  O_16
REMARK    3  A    between atoms: C_4  and  O_18
REMARK    4  A    between atoms: C_5  and  N_6
REMARK    5  A    between atoms: C_20  and  O_22
REMARK                            x       y       z     vdW  Elec       q    Type
REMARK                         _______ _______ _______ _____ _____    ______ ____
ROOT
ATOM      1  O   UNL     1       1.738  -0.338  -1.079  0.00  0.00    -0.333 OA
ATOM      2  C   UNL     1       3.049  -0.043  -0.542  0.00  0.00    +0.173 C 
ATOM      3  C   UNL     1       2.889   1.200   0.327  0.00  0.00    +0.171 C 
ATOM      4  C   UNL     1       1.449   1.089   0.788  0.00  0.00    +0.187 C 
ATOM      5  C   UNL     1       0.774   0.533  -0.456  0.00  0.00    +0.225 C 
ENDROOT
BRANCH   5   6
ATOM      6  N   UNL     1      -0.456  -0.207  -0.186  0.00  0.00    -0.247 N 
ATOM      7  N   UNL     1      -1.790  -1.921   0.325  0.00  0.00    -0.244 NA
ATOM      8  N   UNL     1      -2.119   1.538  -0.483  0.00  0.00    -0.228 NA
ATOM      9  N   UNL     1      -4.376   0.688  -0.111  0.00  0.00    -0.247 NA
ATOM     10  C   UNL     1      -1.732   0.284  -0.209  0.00  0.00    +0.151 C 
ATOM     11  C   UNL     1      -0.545  -1.536   0.140  0.00  0.00    +0.223 C 
ATOM     12  C   UNL     1      -2.543  -0.794   0.110  0.00  0.00    +0.122 C 
ATOM     13  C   UNL     1      -3.913  -0.558   0.155  0.00  0.00    +0.076 C 
ATOM     14  C   UNL     1      -3.464   1.644  -0.409  0.00  0.00    +0.252 C 
ATOM     15  C   UNL     1      -4.920  -1.606   0.481  0.00  0.00    +0.053 C 
ENDBRANCH   5   6
BRANCH   3  16
ATOM     16  O   UNL     1       3.037   2.358  -0.495  0.00  0.00    -0.379 OA
ATOM     17  H   UNL     1       3.958   2.429  -0.790  0.00  0.00    +0.211 HD
ENDBRANCH   3  16
BRANCH   4  18
ATOM     18  O   UNL     1       0.896   2.330   1.178  0.00  0.00    -0.378 OA
ATOM     19  H   UNL     1       1.351   2.651   1.972  0.00  0.00    +0.211 HD
ENDBRANCH   4  18
BRANCH   2  20
ATOM     20  C   UNL     1       3.530  -1.257   0.240  0.00  0.00    +0.140 C 
ATOM     21  C   UNL     1       4.900  -1.024   0.858  0.00  0.00    +0.034 C 
BRANCH  20  22
ATOM     22  O   UNL     1       3.593  -2.381  -0.631  0.00  0.00    -0.382 OA
ATOM     23  H   UNL     1       2.720  -2.532  -1.027  0.00  0.00    +0.210 HD
ENDBRANCH  20  22
ENDBRANCH   2  20
TORSDOF 5
