REMARK  Name = 6120722
REMARK  5 active torsions:
REMARK  status: ('A' for Active; 'I' for Inactive)
REMARK    1  A    between atoms: P_1  and  O_3
REMARK    2  A    between atoms: P_1  and  O_5
REMARK    3  A    between atoms: P_1  and  O_7
REMARK    4  A    between atoms: O_7  and  C_8
REMARK    5  A    between atoms: C_9  and  N_10
REMARK                            x       y       z     vdW  Elec       q    Type
REMARK                         _______ _______ _______ _____ _____    ______ ____
ROOT
ATOM      1  P   UNL     1      -1.441   0.102   0.030  0.00  0.00    +0.528 P 
ATOM      2  O   UNL     1      -1.747   1.489   0.517  0.00  0.00    -0.216 OA
ENDROOT
BRANCH   1   3
ATOM      3  O   UNL     1      -2.419  -1.043   0.623  0.00  0.00    -0.293 OA
ATOM      4  H   UNL     1      -2.159  -1.906   0.264  0.00  0.00    +0.223 HD
ENDBRANCH   1   3
BRANCH   1   5
ATOM      5  O   UNL     1      -1.582  -0.100  -1.569  0.00  0.00    -0.293 OA
ATOM      6  H   UNL     1      -1.368  -1.018  -1.799  0.00  0.00    +0.223 HD
ENDBRANCH   1   5
BRANCH   1   7
ATOM      7  O   UNL     1       0.036  -0.458   0.370  0.00  0.00    -0.398 OA
BRANCH   7   8
ATOM      8  C   UNL     1       1.175   0.141  -0.055  0.00  0.00    +0.198 C 
ATOM      9  C   UNL     1       2.392  -0.326   0.229  0.00  0.00    +0.096 C 
BRANCH   9  10
ATOM     10  N   UNL     1       3.587   0.195  -0.146  0.00  0.00    -0.354 N 
ATOM     11  H   UNL     1       4.424  -0.245   0.128  0.00  0.00    +0.142 HD
ATOM     12  H   UNL     1       3.617   1.013  -0.693  0.00  0.00    +0.142 HD
ENDBRANCH   9  10
ENDBRANCH   7   8
ENDBRANCH   1   7
TORSDOF 5
