REMARK  Name = 286
REMARK  4 active torsions:
REMARK  status: ('A' for Active; 'I' for Inactive)
REMARK    1  A    between atoms: C_1  and  C_3
REMARK    2  A    between atoms: C_1  and  O_6
REMARK    3  A    between atoms: C_3  and  O_4
REMARK    4  A    between atoms: O_6  and  N_7
REMARK                            x       y       z     vdW  Elec       q    Type
REMARK                         _______ _______ _______ _____ _____    ______ ____
ROOT
ATOM      1  C   UNL     1       0.337   0.580  -0.012  0.00  0.00    +0.274 C 
ENDROOT
BRANCH   1   3
ATOM      2  O   UNL     1      -1.270  -1.243  -0.003  0.00  0.00    -0.247 OA
ATOM      3  C   UNL     1      -1.031  -0.045  -0.003  0.00  0.00    +0.347 C 
BRANCH   3   4
ATOM      4  O   UNL     1      -1.986   0.919   0.008  0.00  0.00    -0.478 OA
ATOM      5  H   UNL     1      -1.739   1.823   0.008  0.00  0.00    +0.295 HD
ENDBRANCH   3   4
ENDBRANCH   1   3
BRANCH   1   6
ATOM      6  O   UNL     1       1.324  -0.432   0.010  0.00  0.00    -0.277 OA
BRANCH   6   7
ATOM      7  N   UNL     1       2.627   0.220   0.000  0.00  0.00    -0.213 NA
ATOM      8  H   UNL     1       3.361  -0.488   0.015  0.00  0.00    +0.150 HD
ATOM      9  H   UNL     1       2.715   0.818   0.821  0.00  0.00    +0.150 HD
ENDBRANCH   6   7
ENDBRANCH   1   6
TORSDOF 4
