REMARK  Name = 446237
REMARK  5 active torsions:
REMARK  status: ('A' for Active; 'I' for Inactive)
REMARK    1  A    between atoms: C_1  and  C_9
REMARK    2  A    between atoms: C_2  and  S_19
REMARK    3  A    between atoms: N_8  and  C_11
REMARK    4  A    between atoms: C_11  and  C_13
REMARK    5  A    between atoms: S_19  and  N_22
REMARK                            x       y       z     vdW  Elec       q    Type
REMARK                         _______ _______ _______ _____ _____    ______ ____
ROOT
ATOM      1  C   UNL     1      -1.073   0.780   0.253  0.00  0.00    +0.053 C 
ATOM      2  C   UNL     1      -3.649  -0.259  -0.005  0.00  0.00    +0.122 C 
ATOM      3  C   UNL     1      -1.721   0.239   1.363  0.00  0.00    +0.006 C 
ATOM      4  C   UNL     1      -1.712   0.801  -0.987  0.00  0.00    +0.006 C 
ATOM      5  C   UNL     1      -3.009  -0.280   1.234  0.00  0.00    +0.020 C 
ATOM      6  C   UNL     1      -3.001   0.282  -1.115  0.00  0.00    +0.020 C 
ENDROOT
BRANCH   1   9
ATOM      7  O   UNL     1       0.671   1.752   1.483  0.00  0.00    -0.270 OA
ATOM      8  N   UNL     1       1.079   1.305  -0.756  0.00  0.00    -0.297 N 
ATOM      9  C   UNL     1       0.271   1.320   0.387  0.00  0.00    +0.246 C 
ATOM     10  H   UNL     1       0.698   0.949  -1.591  0.00  0.00    +0.150 HD
BRANCH   8  11
ATOM     11  C   UNL     1       2.442   1.784  -0.777  0.00  0.00    +0.117 C 
BRANCH  11  13
ATOM     12  F   UNL     1       6.120  -2.284   0.452  0.00  0.00    -0.204 F 
ATOM     13  C   UNL     1       3.425   0.697  -0.448  0.00  0.00    -0.002 C 
ATOM     14  C   UNL     1       3.794   0.481   0.874  0.00  0.00    -0.000 C 
ATOM     15  C   UNL     1       3.955  -0.081  -1.470  0.00  0.00    -0.000 C 
ATOM     16  C   UNL     1       4.706  -0.529   1.179  0.00  0.00    +0.029 C 
ATOM     17  C   UNL     1       4.868  -1.091  -1.165  0.00  0.00    +0.029 C 
ATOM     18  C   UNL     1       5.244  -1.315   0.159  0.00  0.00    +0.140 C 
ENDBRANCH  11  13
ENDBRANCH   8  11
ENDBRANCH   1   9
BRANCH   2  19
ATOM     19  S   UNL     1      -5.262  -0.907  -0.166  0.00  0.00    +0.057 S 
ATOM     20  O   UNL     1      -5.465  -1.296  -1.554  0.00  0.00    -0.153 OA
ATOM     21  O   UNL     1      -5.478  -1.879   0.897  0.00  0.00    -0.153 OA
BRANCH  19  22
ATOM     22  N   UNL     1      -6.205   0.480   0.162  0.00  0.00    -0.203 NA
ATOM     23  H   UNL     1      -7.194   0.241   0.101  0.00  0.00    +0.144 HD
ATOM     24  H   UNL     1      -5.988   1.207  -0.520  0.00  0.00    +0.144 HD
ENDBRANCH  19  22
ENDBRANCH   2  19
TORSDOF 5
