REMARK  Name = 446312
REMARK  0 active torsions:
REMARK  status: ('A' for Active; 'I' for Inactive)
REMARK                            x       y       z     vdW  Elec       q    Type
REMARK                         _______ _______ _______ _____ _____    ______ ____
ROOT
ATOM      1  O   UNL     1       1.475   1.314   0.000  0.00  0.00    -0.401 OA
ATOM      2  O   UNL     1      -0.739  -2.659   0.000  0.00  0.00    -0.267 OA
ATOM      3  N   UNL     1      -1.968  -0.676   0.000  0.00  0.00    -0.242 N 
ATOM      4  N   UNL     1       1.680  -0.948   0.000  0.00  0.00    -0.360 NA
ATOM      5  N   UNL     1      -0.946   1.489   0.000  0.00  0.00    -0.336 NA
ATOM      6  N   UNL     1      -3.285   1.272   0.000  0.00  0.00    -0.321 N 
ATOM      7  C   UNL     1       0.366  -0.587   0.000  0.00  0.00    +0.254 C 
ATOM      8  C   UNL     1       0.211   0.783   0.000  0.00  0.00    +0.321 C 
ATOM      9  C   UNL     1      -0.792  -1.436   0.000  0.00  0.00    +0.288 C 
ATOM     10  C   UNL     1       2.288   0.218   0.000  0.00  0.00    +0.260 C 
ATOM     11  C   UNL     1      -2.023   0.736   0.000  0.00  0.00    +0.241 C 
ATOM     12  C   UNL     1       3.734   0.494   0.000  0.00  0.00    +0.110 C 
ATOM     13  H   UNL     1      -2.823  -1.164   0.000  0.00  0.00    +0.159 HD
ATOM     14  H   UNL     1      -4.072   0.680   0.000  0.00  0.00    +0.146 HD
ATOM     15  H   UNL     1      -3.405   2.249  -0.001  0.00  0.00    +0.146 HD
ENDROOT
TORSDOF 0
