REMARK  Name = 5288527
REMARK  4 active torsions:
REMARK  status: ('A' for Active; 'I' for Inactive)
REMARK    1  A    between atoms: N_1  and  C_18
REMARK    2  A    between atoms: C_4  and  C_11
REMARK    3  A    between atoms: C_19  and  S_24
REMARK    4  A    between atoms: S_24  and  N_27
REMARK                            x       y       z     vdW  Elec       q    Type
REMARK                         _______ _______ _______ _____ _____    ______ ____
ROOT
ATOM      1  N   UNL     1       1.095  -2.539  -0.413  0.00  0.00    -0.247 N 
ATOM      2  N   UNL     1      -0.841  -1.359   0.189  0.00  0.00    -0.336 NA
ATOM      3  N   UNL     1      -0.947  -3.694  -0.396  0.00  0.00    -0.170 NA
ATOM      4  C   UNL     1      -2.174  -1.391   0.387  0.00  0.00    +0.161 C 
ATOM      5  C   UNL     1      -0.300  -2.530  -0.196  0.00  0.00    +0.149 C 
ATOM      6  C   UNL     1      -2.953  -2.514   0.218  0.00  0.00    +0.056 C 
ATOM      7  C   UNL     1      -2.278  -3.650  -0.179  0.00  0.00    +0.114 C 
ATOM      8  H   UNL     1       1.447  -3.415  -0.693  0.00  0.00    +0.165 HD
ENDROOT
BRANCH   4  11
ATOM      9  N   UNL     1      -3.230   0.829  -0.053  0.00  0.00    -0.246 N 
ATOM     10  N   UNL     1      -3.528   1.613   2.021  0.00  0.00    -0.227 NA
ATOM     11  C   UNL     1      -2.750  -0.133   0.799  0.00  0.00    +0.107 C 
ATOM     12  C   UNL     1      -3.694   1.875   0.741  0.00  0.00    +0.139 C 
ATOM     13  C   UNL     1      -2.945   0.372   2.063  0.00  0.00    +0.118 C 
ATOM     14  C   UNL     1      -3.280   0.836  -1.444  0.00  0.00    +0.071 C 
ATOM     15  C   UNL     1      -4.246   3.003   0.066  0.00  0.00    +0.035 C 
ATOM     16  C   UNL     1      -3.801   1.902  -2.072  0.00  0.00    +0.017 C 
ATOM     17  C   UNL     1      -4.297   3.017  -1.280  0.00  0.00    +0.004 C 
ENDBRANCH   4  11
BRANCH   1  18
ATOM     18  C   UNL     1       2.082  -1.541  -0.307  0.00  0.00    +0.058 C 
ATOM     19  C   UNL     1       4.039   0.440  -0.097  0.00  0.00    +0.122 C 
ATOM     20  C   UNL     1       3.392  -1.884   0.034  0.00  0.00    +0.017 C 
ATOM     21  C   UNL     1       1.754  -0.204  -0.543  0.00  0.00    +0.017 C 
ATOM     22  C   UNL     1       4.369  -0.895   0.139  0.00  0.00    +0.021 C 
ATOM     23  C   UNL     1       2.731   0.785  -0.438  0.00  0.00    +0.021 C 
BRANCH  19  24
ATOM     24  S   UNL     1       5.262   1.679   0.035  0.00  0.00    +0.057 S 
ATOM     25  O   UNL     1       6.564   1.063  -0.179  0.00  0.00    -0.153 OA
ATOM     26  O   UNL     1       4.858   2.817  -0.778  0.00  0.00    -0.153 OA
BRANCH  24  27
ATOM     27  N   UNL     1       5.118   2.105   1.684  0.00  0.00    -0.203 NA
ATOM     28  H   UNL     1       5.791   2.838   1.905  0.00  0.00    +0.144 HD
ATOM     29  H   UNL     1       5.303   1.286   2.264  0.00  0.00    +0.144 HD
ENDBRANCH  24  27
ENDBRANCH  19  24
ENDBRANCH   1  18
TORSDOF 4
