REMARK  Name = 447864
REMARK  4 active torsions:
REMARK  status: ('A' for Active; 'I' for Inactive)
REMARK    1  A    between atoms: N_2  and  C1*_12
REMARK    2  A    between atoms: C3*_13  and  O3*_16
REMARK    3  A    between atoms: C4*_15  and  C5*_18
REMARK    4  A    between atoms: C5*_18  and  O5*_19
REMARK                            x       y       z     vdW  Elec       q    Type
REMARK                         _______ _______ _______ _____ _____    ______ ____
ROOT
ATOM      1  F   UNL     1       3.614   2.599   0.372  0.00  0.00    -0.098 F 
ATOM      2  N   UNL     1      -0.067  -0.290   0.063  0.00  0.00    -0.238 N 
ATOM      3  N   UNL     1       1.173  -2.122  -0.242  0.00  0.00    -0.240 NA
ATOM      4  N   UNL     1       1.694   1.373   0.252  0.00  0.00    -0.300 NA
ATOM      5  N   UNL     1       3.903   0.358   0.036  0.00  0.00    -0.301 NA
ATOM      6  C   UNL     1       1.237   0.123   0.083  0.00  0.00    +0.222 C 
ATOM      7  C   UNL     1      -0.051  -1.648  -0.135  0.00  0.00    +0.224 C 
ATOM      8  C   UNL     1       1.987  -1.026  -0.107  0.00  0.00    +0.167 C 
ATOM      9  C   UNL     1       3.371  -0.877  -0.128  0.00  0.00    +0.213 C 
ATOM     10  C   UNL     1       3.044   1.391   0.213  0.00  0.00    +0.300 C 
ATOM     11  N   UNL     1       4.210  -1.989  -0.314  0.00  0.00    -0.331 N 
ATOM     12  H   UNL     1       5.187  -1.872  -0.327  0.00  0.00    +0.145 HD
ATOM     13  H   UNL     1       3.820  -2.886  -0.431  0.00  0.00    +0.145 HD
ENDROOT
BRANCH   2  15
ATOM     14  O4* UNL     1      -2.287  -0.195   0.896  0.00  0.00    -0.335 OA
ATOM     15  C1* UNL     1      -1.254   0.543   0.219  0.00  0.00    +0.198 C 
ATOM     16  C3* UNL     1      -3.296   1.256  -0.703  0.00  0.00    +0.144 C 
ATOM     17  C2* UNL     1      -1.853   1.032  -1.092  0.00  0.00    +0.083 C 
ATOM     18  C4* UNL     1      -3.560   0.145   0.308  0.00  0.00    +0.173 C 
BRANCH  16  19
ATOM     19  O3* UNL     1      -3.398   2.523  -0.057  0.00  0.00    -0.382 OA
ATOM     20  H3* UNL     1      -3.230   3.229  -0.701  0.00  0.00    +0.210 HD
ENDBRANCH  16  19
BRANCH  18  21
ATOM     21  C5* UNL     1      -4.133  -1.110  -0.336  0.00  0.00    +0.169 C 
BRANCH  21  22
ATOM     22  O5* UNL     1      -4.334  -2.086   0.672  0.00  0.00    -0.379 OA
ATOM     23  H5* UNL     1      -4.699  -2.891   0.274  0.00  0.00    +0.211 HD
ENDBRANCH  21  22
ENDBRANCH  18  21
ENDBRANCH   2  15
TORSDOF 4
