449593
  -OEChem-10051719483D

 20 19  0     0  0  0  0  0  0999 V2000
    3.2636   -0.8146   -0.0135 O   0  0  0  0  0  0  0  0  0  0  0  0
    2.3675    1.2721   -0.0201 O   0  0  0  0  0  0  0  0  0  0  0  0
   -4.0567   -0.2368   -0.0481 N   0  3  0  0  0  0  0  0  0  0  0  0
   -1.6188   -0.4434    0.0223 C   0  0  0  0  0  0  0  0  0  0  0  0
   -0.2845    0.3028    0.0412 C   0  0  0  0  0  0  0  0  0  0  0  0
   -2.7888    0.5292    0.0162 C   0  0  0  0  0  0  0  0  0  0  0  0
    0.8958   -0.6669    0.0113 C   0  0  0  0  0  0  0  0  0  0  0  0
    2.2219    0.0577   -0.0092 C   0  0  0  0  0  0  0  0  0  0  0  0
   -1.6855   -1.1017    0.8972 H   0  0  0  0  0  0  0  0  0  0  0  0
   -1.6661   -1.0853   -0.8664 H   0  0  0  0  0  0  0  0  0  0  0  0
   -0.2241    0.9324    0.9377 H   0  0  0  0  0  0  0  0  0  0  0  0
   -0.2282    0.9779   -0.8221 H   0  0  0  0  0  0  0  0  0  0  0  0
   -2.7719    1.1861   -0.8584 H   0  0  0  0  0  0  0  0  0  0  0  0
   -2.8259    1.1313    0.9289 H   0  0  0  0  0  0  0  0  0  0  0  0
    0.8397   -1.2942   -0.8852 H   0  0  0  0  0  0  0  0  0  0  0  0
    0.8705   -1.3086    0.8988 H   0  0  0  0  0  0  0  0  0  0  0  0
   -4.1611   -0.8662    0.7589 H   0  0  0  0  0  0  0  0  0  0  0  0
   -4.1106   -0.8110   -0.8999 H   0  0  0  0  0  0  0  0  0  0  0  0
   -4.8698    0.3932   -0.0520 H   0  0  0  0  0  0  0  0  0  0  0  0
    4.1282   -0.3512   -0.0264 H   0  0  0  0  0  0  0  0  0  0  0  0
  1  8  1  0  0  0  0
  1 20  1  0  0  0  0
  2  8  2  0  0  0  0
  3  6  1  0  0  0  0
  3 17  1  0  0  0  0
  3 18  1  0  0  0  0
  3 19  1  0  0  0  0
  4  5  1  0  0  0  0
  4  6  1  0  0  0  0
  4  9  1  0  0  0  0
  4 10  1  0  0  0  0
  5  7  1  0  0  0  0
  5 11  1  0  0  0  0
  5 12  1  0  0  0  0
  6 13  1  0  0  0  0
  6 14  1  0  0  0  0
  7  8  1  0  0  0  0
  7 15  1  0  0  0  0
  7 16  1  0  0  0  0
M  CHG  1   3   1
M  END
> <DATABASE_ID>
DB02068

> <DATABASE_NAME>
drugbank

> <ORIGINAL_SOURCE>
PUBCHEM

> <ORIGINAL_SOURCE_URL>
https://pubchem.ncbi.nlm.nih.gov/rest/pug/compound/inchikey/JJMDCOVWQOJGCB-UHFFFAOYSA-O/SDF?record_type=3d

> <SMILES>
[NH3+]CCCCC(O)=O

> <INCHI_IDENTIFIER>
InChI=1S/C5H11NO2/c6-4-2-1-3-5(7)8/h1-4,6H2,(H,7,8)/p+1

> <INCHI_KEY>
JJMDCOVWQOJGCB-UHFFFAOYSA-O

> <FORMULA>
C5H12NO2

> <MOLECULAR_WEIGHT>
118.1543

> <EXACT_MASS>
118.086803633

> <JCHEM_ACCEPTOR_COUNT>
2

> <JCHEM_AVERAGE_POLARIZABILITY>
12.993218981947459

> <JCHEM_BIOAVAILABILITY>
1

> <JCHEM_DONOR_COUNT>
2

> <JCHEM_FORMAL_CHARGE>
1

> <JCHEM_GHOSE_FILTER>
0

> <JCHEM_IUPAC>
4-carboxybutan-1-aminium

> <ALOGPS_LOGP>
-2.37

> <JCHEM_LOGP>
-2.441462136430473

> <ALOGPS_LOGS>
-1.17

> <JCHEM_MDDR_LIKE_RULE>
0

> <JCHEM_NUMBER_OF_RINGS>
0

> <JCHEM_PHYSIOLOGICAL_CHARGE>
0

> <JCHEM_PKA_STRONGEST_ACIDIC>
4.6510543313288055

> <JCHEM_PKA_STRONGEST_BASIC>
10.205972024771656

> <JCHEM_POLAR_SURFACE_AREA>
64.94

> <JCHEM_REFRACTIVITY>
41.351600000000005

> <JCHEM_ROTATABLE_BOND_COUNT>
4

> <JCHEM_RULE_OF_FIVE>
1

> <ALOGPS_SOLUBILITY>
1.03e+01 g/l

> <JCHEM_TRADITIONAL_IUPAC>
delta-amino valeric acid

> <JCHEM_VEBER_RULE>
0

> <DRUGBANK_ID>
DB02068

> <SECONDARY_ACCESSION_NUMBERS>
EXPT01116

> <DRUG_GROUPS>
experimental

> <GENERIC_NAME>
Delta-Amino Valeric Acid

$$$$
