REMARK  Name = 5288123
REMARK  9 active torsions:
REMARK  status: ('A' for Active; 'I' for Inactive)
REMARK    1  A    between atoms: P_1  and  O_3
REMARK    2  A    between atoms: P_1  and  S_5
REMARK    3  A    between atoms: P_1  and  O_11
REMARK    4  A    between atoms: S_5  and  C_6
REMARK    5  A    between atoms: C_6  and  C_7
REMARK    6  A    between atoms: C_7  and  C_8
REMARK    7  A    between atoms: O_11  and  P_12
REMARK    8  A    between atoms: P_12  and  O_14
REMARK    9  A    between atoms: P_12  and  O_16
REMARK                            x       y       z     vdW  Elec       q    Type
REMARK                         _______ _______ _______ _____ _____    ______ ____
ROOT
ATOM      1  P   UNL     1      -1.337   1.522  -0.110  0.00  0.00    +0.398 P 
ATOM      2  O   UNL     1      -2.486   2.212   0.576  0.00  0.00    -0.246 OA
ENDROOT
BRANCH   1   3
ATOM      3  O   UNL     1      -0.856   2.308  -1.446  0.00  0.00    -0.316 OA
ATOM      4  H   UNL     1      -0.117   1.830  -1.854  0.00  0.00    +0.221 HD
ENDBRANCH   1   3
BRANCH   1   5
ATOM      5  S   UNL     1       0.300   1.303   1.174  0.00  0.00    -0.031 S 
BRANCH   5   6
ATOM      6  C   UNL     1       1.566   0.462   0.179  0.00  0.00    +0.069 C 
BRANCH   6   7
ATOM      7  C   UNL     1       2.831   0.237   1.005  0.00  0.00    +0.012 C 
BRANCH   7   8
ATOM      8  C   UNL     1       3.948  -0.475   0.217  0.00  0.00    +0.001 C 
ATOM      9  C   UNL     1       3.448  -1.834  -0.280  0.00  0.00    +0.000 C 
ATOM     10  C   UNL     1       4.448   0.354  -0.968  0.00  0.00    +0.000 C 
ENDBRANCH   7   8
ENDBRANCH   6   7
ENDBRANCH   5   6
ENDBRANCH   1   5
BRANCH   1  11
ATOM     11  O   UNL     1      -1.744   0.073  -0.712  0.00  0.00    -0.200 OA
BRANCH  11  12
ATOM     12  P   UNL     1      -2.306  -1.258   0.009  0.00  0.00    +0.480 P 
ATOM     13  O   UNL     1      -1.408  -1.845   1.058  0.00  0.00    -0.227 OA
BRANCH  12  14
ATOM     14  O   UNL     1      -2.635  -2.244  -1.230  0.00  0.00    -0.302 OA
ATOM     15  H   UNL     1      -3.218  -1.790  -1.858  0.00  0.00    +0.222 HD
ENDBRANCH  12  14
BRANCH  12  16
ATOM     16  O   UNL     1      -3.771  -0.814   0.527  0.00  0.00    -0.302 OA
ATOM     17  H   UNL     1      -4.279  -0.448  -0.214  0.00  0.00    +0.222 HD
ENDBRANCH  12  16
ENDBRANCH  11  12
ENDBRANCH   1  11
TORSDOF 9
