REMARK  Name = 1003
REMARK  2 active torsions:
REMARK  status: ('A' for Active; 'I' for Inactive)
REMARK    1  A    between atoms: P_1  and  O_4
REMARK    2  A    between atoms: P_1  and  O_6
REMARK                            x       y       z     vdW  Elec       q    Type
REMARK                         _______ _______ _______ _____ _____    ______ ____
ROOT
ATOM      1  P   UNL     1      -0.002  -0.125   0.000  0.00  0.00    +0.500 P 
ATOM      2  O   UNL     1      -1.328  -0.853  -0.001  0.00  0.00    -0.225 OA
ATOM      3  O   UNL     1       1.300  -0.894  -0.001  0.00  0.00    -0.116 OA
ENDROOT
BRANCH   1   4
ATOM      4  O   UNL     1       0.015   0.937  -1.239  0.00  0.00    -0.301 OA
ATOM      5  H   UNL     1      -0.816   1.437  -1.249  0.00  0.00    +0.222 HD
ENDBRANCH   1   4
BRANCH   1   6
ATOM      6  O   UNL     1       0.015   0.934   1.241  0.00  0.00    -0.301 OA
ATOM      7  H   UNL     1      -0.816   1.434   1.252  0.00  0.00    +0.222 HD
ENDBRANCH   1   6
TORSDOF 2
