REMARK  Name = 131153
REMARK  5 active torsions:
REMARK  status: ('A' for Active; 'I' for Inactive)
REMARK    1  A    between atoms: C_1  and  C_3
REMARK    2  A    between atoms: C_1  and  C_6
REMARK    3  A    between atoms: C_3  and  C_5
REMARK    4  A    between atoms: C_6  and  C_8
REMARK    5  A    between atoms: C_8  and  O_9
REMARK                            x       y       z     vdW  Elec       q    Type
REMARK                         _______ _______ _______ _____ _____    ______ ____
ROOT
ATOM      1  C   UNL     1       0.068  -0.488  -0.021  0.00  0.00    +0.079 C 
ENDROOT
BRANCH   1   3
ATOM      2  O   UNL     1       1.634   1.359  -0.024  0.00  0.00    -0.293 OA
ATOM      3  C   UNL     1       1.452   0.142  -0.005  0.00  0.00    +0.187 C 
BRANCH   3   5
ATOM      4  F   UNL     1       3.801  -0.152   0.024  0.00  0.00    -0.226 F 
ATOM      5  C   UNL     1       2.614  -0.816   0.026  0.00  0.00    +0.257 C 
ENDBRANCH   3   5
ENDBRANCH   1   3
BRANCH   1   6
ATOM      6  C   UNL     1      -1.063   0.536  -0.040  0.00  0.00    +0.117 C 
BRANCH   6   8
ATOM      7  O   UNL     1      -2.656  -1.307  -0.017  0.00  0.00    -0.250 OA
ATOM      8  C   UNL     1      -2.433  -0.105   0.002  0.00  0.00    +0.314 C 
BRANCH   8   9
ATOM      9  O   UNL     1      -3.417   0.831   0.056  0.00  0.00    -0.480 OA
ATOM     10  H   UNL     1      -3.197   1.742   0.069  0.00  0.00    +0.295 HD
ENDBRANCH   8   9
ENDBRANCH   6   8
ENDBRANCH   1   6
TORSDOF 5
