3396560
  -OEChem-10051720033D

  9  8  0     1  0  0  0  0  0999 V2000
    0.1297    0.0369   -0.4559 P   0  0  2  0  0  0  0  0  0  0  0  0
    0.2013   -1.4728    0.1471 O   0  0  0  0  0  0  0  0  0  0  0  0
    1.1745    0.9155    0.1844 O   0  0  0  0  0  0  0  0  0  0  0  0
   -1.5054    0.5205    0.1243 C   0  0  0  0  0  0  0  0  0  0  0  0
    0.1572   -0.1990   -1.8467 H   0  0  0  0  0  0  0  0  0  0  0  0
   -1.7463    1.5237   -0.2371 H   0  0  0  0  0  0  0  0  0  0  0  0
   -2.2598   -0.1760   -0.2513 H   0  0  0  0  0  0  0  0  0  0  0  0
   -1.5391    0.5215    1.2171 H   0  0  0  0  0  0  0  0  0  0  0  0
    1.0076   -2.0066   -0.0178 H   0  0  0  0  0  0  0  0  0  0  0  0
  1  2  1  0  0  0  0
  1  3  2  0  0  0  0
  1  4  1  0  0  0  0
  1  5  1  0  0  0  0
  2  9  1  0  0  0  0
  4  6  1  0  0  0  0
  4  7  1  0  0  0  0
  4  8  1  0  0  0  0
M  END
> <DATABASE_ID>
DB02845

> <DATABASE_NAME>
drugbank

> <ORIGINAL_SOURCE>
PUBCHEM

> <ORIGINAL_SOURCE_URL>
https://pubchem.ncbi.nlm.nih.gov/rest/pug/compound/inchikey/BCDIWLCKOCHCIH-UHFFFAOYSA-N/SDF?record_type=3d

> <SMILES>
CP(O)=O

> <INCHI_IDENTIFIER>
InChI=1S/CH5O2P/c1-4(2)3/h4H,1H3,(H,2,3)

> <INCHI_KEY>
BCDIWLCKOCHCIH-UHFFFAOYSA-N

> <FORMULA>
CH5O2P

> <MOLECULAR_WEIGHT>
80.023

> <EXACT_MASS>
80.002715916

> <JCHEM_ACCEPTOR_COUNT>
2

> <JCHEM_AVERAGE_POLARIZABILITY>
6.175806821831147

> <JCHEM_BIOAVAILABILITY>
1

> <JCHEM_DONOR_COUNT>
1

> <JCHEM_FORMAL_CHARGE>
0

> <JCHEM_GHOSE_FILTER>
0

> <JCHEM_IUPAC>
methylphosphinic acid

> <ALOGPS_LOGP>
-1.23

> <JCHEM_LOGP>
-1.1868999999999998

> <ALOGPS_LOGS>
0.94

> <JCHEM_MDDR_LIKE_RULE>
0

> <JCHEM_NUMBER_OF_RINGS>
0

> <JCHEM_PHYSIOLOGICAL_CHARGE>
-1

> <JCHEM_PKA_STRONGEST_ACIDIC>
2.3132801948218016

> <JCHEM_POLAR_SURFACE_AREA>
37.3

> <JCHEM_REFRACTIVITY>
15.9532

> <JCHEM_ROTATABLE_BOND_COUNT>
0

> <JCHEM_RULE_OF_FIVE>
1

> <ALOGPS_SOLUBILITY>
6.91e+02 g/l

> <JCHEM_TRADITIONAL_IUPAC>
methylphosphinic acid

> <JCHEM_VEBER_RULE>
1

> <DRUGBANK_ID>
DB02845

> <SECONDARY_ACCESSION_NUMBERS>
EXPT02226; DB04390

> <DRUG_GROUPS>
experimental

> <GENERIC_NAME>
Methylphosphinic Acid

$$$$
