REMARK  Name = 3332061
REMARK  2 active torsions:
REMARK  status: ('A' for Active; 'I' for Inactive)
REMARK    1  A    between atoms: C_1  and  C_5
REMARK    2  A    between atoms: C_1  and  N_8
REMARK                            x       y       z     vdW  Elec       q    Type
REMARK                         _______ _______ _______ _____ _____    ______ ____
ROOT
ATOM      1  C   UNL     1      -0.746   0.006   0.000  0.00  0.00    +0.095 C 
ATOM      2  C   UNL     1      -1.380   1.150  -0.298  0.00  0.00    +0.020 C 
ENDROOT
BRANCH   1   5
ATOM      3  O   UNL     1       1.373   1.080   0.303  0.00  0.00    -0.269 OA
ATOM      4  N   UNL     1       1.370  -1.123  -0.319  0.00  0.00    -0.324 N 
ATOM      5  C   UNL     1       0.752   0.059   0.019  0.00  0.00    +0.256 C 
ATOM      6  H   UNL     1       2.353  -1.179  -0.333  0.00  0.00    +0.145 HD
ATOM      7  H   UNL     1       0.829  -1.914  -0.548  0.00  0.00    +0.145 HD
ENDBRANCH   1   5
BRANCH   1   8
ATOM      8  N   UNL     1      -1.370  -1.171   0.295  0.00  0.00    -0.353 N 
ATOM      9  H   UNL     1      -0.837  -1.972   0.504  0.00  0.00    +0.142 HD
ATOM     10  H   UNL     1      -2.353  -1.220   0.298  0.00  0.00    +0.142 HD
ENDBRANCH   1   8
TORSDOF 2
