REMARK  Name = 6961
REMARK  8 active torsions:
REMARK  status: ('A' for Active; 'I' for Inactive)
REMARK    1  A    between atoms: C_1  and  C_8
REMARK    2  A    between atoms: C_2  and  C_12
REMARK    3  A    between atoms: C_3  and  C_16
REMARK    4  A    between atoms: C_4  and  C_20
REMARK    5  A    between atoms: C_8  and  O_9
REMARK    6  A    between atoms: C_12  and  O_13
REMARK    7  A    between atoms: C_16  and  O_17
REMARK    8  A    between atoms: C_20  and  O_21
REMARK                            x       y       z     vdW  Elec       q    Type
REMARK                         _______ _______ _______ _____ _____    ______ ____
ROOT
ATOM      1  C   UNL     1      -1.208   0.719   0.012  0.00  0.00    +0.082 C 
ATOM      2  C   UNL     1      -1.208  -0.674   0.071  0.00  0.00    +0.082 C 
ATOM      3  C   UNL     1       1.208   0.719   0.012  0.00  0.00    +0.082 C 
ATOM      4  C   UNL     1       1.208  -0.674   0.071  0.00  0.00    +0.082 C 
ATOM      5  C   UNL     1       0.000   1.416  -0.018  0.00  0.00    +0.013 C 
ATOM      6  C   UNL     1       0.000  -1.371   0.101  0.00  0.00    +0.013 C 
ENDROOT
BRANCH   1   8
ATOM      7  O   UNL     1      -3.063   1.889   0.969  0.00  0.00    -0.245 OA
ATOM      8  C   UNL     1      -2.453   1.476  -0.021  0.00  0.00    +0.338 C 
BRANCH   8   9
ATOM      9  O   UNL     1      -2.895   1.691  -1.289  0.00  0.00    -0.477 OA
ATOM     10  H   UNL     1      -2.405   1.362  -2.018  0.00  0.00    +0.295 HD
ENDBRANCH   8   9
ENDBRANCH   1   8
BRANCH   2  12
ATOM     11  O   UNL     1      -3.515  -1.036   0.590  0.00  0.00    -0.245 OA
ATOM     12  C   UNL     1      -2.453  -1.431   0.103  0.00  0.00    +0.338 C 
BRANCH  12  13
ATOM     13  O   UNL     1      -2.329  -2.656  -0.476  0.00  0.00    -0.477 OA
ATOM     14  H   UNL     1      -1.507  -2.923  -0.836  0.00  0.00    +0.295 HD
ENDBRANCH  12  13
ENDBRANCH   2  12
BRANCH   3  16
ATOM     15  O   UNL     1       3.063   1.889   0.968  0.00  0.00    -0.245 OA
ATOM     16  C   UNL     1       2.453   1.476  -0.021  0.00  0.00    +0.338 C 
BRANCH  16  17
ATOM     17  O   UNL     1       2.895   1.689  -1.290  0.00  0.00    -0.477 OA
ATOM     18  H   UNL     1       2.406   1.360  -2.018  0.00  0.00    +0.295 HD
ENDBRANCH  16  17
ENDBRANCH   3  16
BRANCH   4  20
ATOM     19  O   UNL     1       3.516  -1.035   0.590  0.00  0.00    -0.245 OA
ATOM     20  C   UNL     1       2.453  -1.431   0.103  0.00  0.00    +0.338 C 
BRANCH  20  21
ATOM     21  O   UNL     1       2.329  -2.656  -0.473  0.00  0.00    -0.477 OA
ATOM     22  H   UNL     1       1.506  -2.924  -0.833  0.00  0.00    +0.295 HD
ENDBRANCH  20  21
ENDBRANCH   4  20
TORSDOF 8
