REMARK  Name = 186
REMARK  4 active torsions:
REMARK  status: ('A' for Active; 'I' for Inactive)
REMARK    1  A    between atoms: P_1  and  O_3
REMARK    2  A    between atoms: P_1  and  O_5
REMARK    3  A    between atoms: P_1  and  O_7
REMARK    4  A    between atoms: O_7  and  C_9
REMARK                            x       y       z     vdW  Elec       q    Type
REMARK                         _______ _______ _______ _____ _____    ______ ____
ROOT
ATOM      1  P   UNL     1       1.164   0.007   0.078  0.00  0.00    +0.530 P 
ATOM      2  O   UNL     1       1.418  -0.952   1.205  0.00  0.00    -0.216 OA
ENDROOT
BRANCH   1   3
ATOM      3  O   UNL     1       1.300  -0.633  -1.401  0.00  0.00    -0.293 OA
ATOM      4  H   UNL     1       1.122   0.050  -2.066  0.00  0.00    +0.223 HD
ENDBRANCH   1   3
BRANCH   1   5
ATOM      5  O   UNL     1       2.154   1.285   0.040  0.00  0.00    -0.293 OA
ATOM      6  H   UNL     1       1.923   1.850  -0.714  0.00  0.00    +0.223 HD
ENDBRANCH   1   5
BRANCH   1   7
ATOM      7  O   UNL     1      -0.318   0.656   0.091  0.00  0.00    -0.371 OA
BRANCH   7   9
ATOM      8  O   UNL     1      -1.589  -1.247  -0.080  0.00  0.00    -0.250 OA
ATOM      9  C   UNL     1      -1.486  -0.032   0.012  0.00  0.00    +0.324 C 
ATOM     10  C   UNL     1      -2.644   0.916   0.055  0.00  0.00    +0.122 C 
ENDBRANCH   7   9
ENDBRANCH   1   7
TORSDOF 4
