REMARK  Name = 73318
REMARK  4 active torsions:
REMARK  status: ('A' for Active; 'I' for Inactive)
REMARK    1  A    between atoms: N_3  and  C1*_18
REMARK    2  A    between atoms: C3*_20  and  O3*_22
REMARK    3  A    between atoms: C4*_21  and  C5*_24
REMARK    4  A    between atoms: C5*_24  and  O5*_25
REMARK                            x       y       z     vdW  Elec       q    Type
REMARK                         _______ _______ _______ _____ _____    ______ ____
ROOT
ATOM      1  O   UNL     1      -0.071  -3.481  -0.151  0.00  0.00    -0.246 OA
ATOM      2  O   UNL     1      -4.393  -0.456  -0.639  0.00  0.00    -0.208 OA
ATOM      3  N   UNL     1       0.003  -1.130   0.284  0.00  0.00    -0.244 N 
ATOM      4  N   UNL     1      -1.955  -2.049  -0.342  0.00  0.00    -0.294 N 
ATOM      5  N   UNL     1      -0.914   1.198   0.482  0.00  0.00    -0.260 N 
ATOM      6  N   UNL     1      -3.230   1.446  -0.020  0.00  0.00    -0.301 NA
ATOM      7  N   UNL     1      -1.897   3.279   0.623  0.00  0.00    -0.320 N 
ATOM      8  C   UNL     1      -0.959  -0.141   0.233  0.00  0.00    +0.149 A 
ATOM      9  C   UNL     1      -0.593  -2.379  -0.079  0.00  0.00    +0.331 A 
ATOM     10  C   UNL     1      -2.113  -0.710  -0.141  0.00  0.00    +0.187 A 
ATOM     11  C   UNL     1      -3.348   0.085  -0.292  0.00  0.00    +0.226 C 
ATOM     12  C   UNL     1      -2.069   1.948   0.344  0.00  0.00    +0.249 C 
ATOM     13  H   UNL     1      -2.659  -2.678  -0.621  0.00  0.00    +0.171 HD
ATOM     14  H   UNL     1      -0.072   1.626   0.756  0.00  0.00    +0.157 HD
ATOM     15  H   UNL     1      -1.011   3.615   0.892  0.00  0.00    +0.146 HD
ATOM     16  H   UNL     1      -2.658   3.899   0.555  0.00  0.00    +0.146 HD
ENDROOT
BRANCH   3  18
ATOM     17  O4* UNL     1       1.585   0.435   1.007  0.00  0.00    -0.333 OA
ATOM     18  C1* UNL     1       1.377  -0.937   0.643  0.00  0.00    +0.212 C 
ATOM     19  C2* UNL     1       2.334  -1.253  -0.496  0.00  0.00    +0.086 C 
ATOM     20  C3* UNL     1       3.461  -0.275  -0.257  0.00  0.00    +0.145 C 
ATOM     21  C4* UNL     1       2.747   0.939   0.321  0.00  0.00    +0.173 C 
BRANCH  20  22
ATOM     22  O3* UNL     1       4.365  -0.810   0.707  0.00  0.00    -0.382 OA
ATOM     23  H3* UNL     1       4.816  -1.583   0.333  0.00  0.00    +0.210 HD
ENDBRANCH  20  22
BRANCH  21  24
ATOM     24  C5* UNL     1       2.273   1.913  -0.750  0.00  0.00    +0.169 C 
BRANCH  24  25
ATOM     25  O5* UNL     1       3.398   2.380  -1.476  0.00  0.00    -0.379 OA
ATOM     26  H5* UNL     1       3.107   3.001  -2.161  0.00  0.00    +0.211 HD
ENDBRANCH  24  25
ENDBRANCH  21  24
ENDBRANCH   3  18
TORSDOF 4
