REMARK  Name = 5289313
REMARK  10 active torsions:
REMARK  status: ('A' for Active; 'I' for Inactive)
REMARK    1  A    between atoms: C_1  and  O_2
REMARK    2  A    between atoms: C_1  and  C_4
REMARK    3  A    between atoms: C_1  and  C_12
REMARK    4  A    between atoms: C_4  and  C_5
REMARK    5  A    between atoms: C_5  and  O_6
REMARK    6  A    between atoms: C_5  and  C_9
REMARK    7  A    between atoms: C_9  and  O_10
REMARK    8  A    between atoms: C_12  and  O_13
REMARK    9  A    between atoms: C_12  and  C_15
REMARK   10  A    between atoms: C_15  and  O_16
REMARK                            x       y       z     vdW  Elec       q    Type
REMARK                         _______ _______ _______ _____ _____    ______ ____
ROOT
ATOM      1  C   UNL     1      -0.880  -0.993  -0.152  0.00  0.00    +0.143 C 
ENDROOT
BRANCH   1   2
ATOM      2  O   UNL     1      -1.531  -2.033   0.576  0.00  0.00    -0.382 OA
ATOM      3  H   UNL     1      -1.009  -2.848   0.512  0.00  0.00    +0.210 HD
ENDBRANCH   1   2
BRANCH   1   4
ATOM      4  C   UNL     1       0.558  -0.805   0.372  0.00  0.00    +0.073 C 
BRANCH   4   5
ATOM      5  C   UNL     1       1.385   0.250  -0.376  0.00  0.00    +0.212 C 
BRANCH   5   6
ATOM      6  O   UNL     1       1.411  -0.056  -1.762  0.00  0.00    -0.374 OA
ATOM      7  H   UNL     1       0.502  -0.120  -2.096  0.00  0.00    +0.211 HD
ENDBRANCH   5   6
BRANCH   5   9
ATOM      8  O   UNL     1       3.806   0.118  -0.545  0.00  0.00    -0.248 OA
ATOM      9  C   UNL     1       2.811   0.347   0.130  0.00  0.00    +0.341 C 
BRANCH   9  10
ATOM     10  O   UNL     1       2.871   0.698   1.440  0.00  0.00    -0.479 OA
ATOM     11  H   UNL     1       2.082   0.864   1.918  0.00  0.00    +0.295 HD
ENDBRANCH   9  10
ENDBRANCH   5   9
ENDBRANCH   4   5
ENDBRANCH   1   4
BRANCH   1  12
ATOM     12  C   UNL     1      -1.706   0.301  -0.051  0.00  0.00    +0.166 C 
BRANCH  12  13
ATOM     13  O   UNL     1      -1.714   0.742   1.308  0.00  0.00    -0.379 OA
ATOM     14  H   UNL     1      -0.802   0.874   1.610  0.00  0.00    +0.211 HD
ENDBRANCH  12  13
BRANCH  12  15
ATOM     15  C   UNL     1      -3.150   0.099  -0.510  0.00  0.00    +0.169 C 
BRANCH  15  16
ATOM     16  O   UNL     1      -3.861   1.330  -0.432  0.00  0.00    -0.379 OA
ATOM     17  H   UNL     1      -4.776   1.194  -0.724  0.00  0.00    +0.211 HD
ENDBRANCH  15  16
ENDBRANCH  12  15
ENDBRANCH   1  12
TORSDOF 10
