REMARK  Name = 5288641
REMARK  1 active torsions:
REMARK  status: ('A' for Active; 'I' for Inactive)
REMARK    1  A    between atoms: C_14  and  S_23
REMARK                            x       y       z     vdW  Elec       q    Type
REMARK                         _______ _______ _______ _____ _____    ______ ____
ROOT
ATOM      1  O   UNL     1      -1.059   3.734   0.038  0.00  0.00    -0.270 OA
ATOM      2  O   UNL     1      -0.451  -1.498  -0.033  0.00  0.00    -0.285 OA
ATOM      3  N   UNL     1      -2.645   1.223   0.017  0.00  0.00    -0.310 N 
ATOM      4  N   UNL     1       1.250   3.232   0.014  0.00  0.00    -0.280 N 
ATOM      5  C   UNL     1      -0.196   1.458   0.002  0.00  0.00    +0.071 C 
ATOM      6  C   UNL     1       1.166   0.934  -0.014  0.00  0.00    +0.020 C 
ATOM      7  C   UNL     1      -1.346   0.782   0.002  0.00  0.00    +0.092 C 
ATOM      8  C   UNL     1       2.003   2.054  -0.006  0.00  0.00    +0.051 C 
ATOM      9  C   UNL     1      -0.122   2.957   0.021  0.00  0.00    +0.251 C 
ATOM     10  C   UNL     1      -2.816  -1.068  -0.012  0.00  0.00    +0.054 C 
ATOM     11  C   UNL     1      -3.520   0.144   0.009  0.00  0.00    +0.051 C 
ATOM     12  C   UNL     1      -1.383  -0.723  -0.017  0.00  0.00    +0.210 C 
ATOM     13  C   UNL     1       1.695  -0.342  -0.035  0.00  0.00    +0.020 C 
ATOM     14  C   UNL     1       3.088  -0.473  -0.047  0.00  0.00    +0.112 C 
ATOM     15  C   UNL     1       3.380   1.947  -0.018  0.00  0.00    +0.016 C 
ATOM     16  C   UNL     1       3.922   0.660  -0.039  0.00  0.00    +0.020 C 
ATOM     17  C   UNL     1      -3.433  -2.301  -0.023  0.00  0.00    +0.004 C 
ATOM     18  C   UNL     1      -4.899   0.141   0.020  0.00  0.00    +0.015 C 
ATOM     19  C   UNL     1      -4.828  -2.304  -0.012  0.00  0.00    +0.000 C 
ATOM     20  C   UNL     1      -5.554  -1.096   0.009  0.00  0.00    +0.001 C 
ATOM     21  H   UNL     1      -2.919   2.168   0.032  0.00  0.00    +0.152 HD
ATOM     22  H   UNL     1       1.635   4.139   0.023  0.00  0.00    +0.155 HD
ENDROOT
BRANCH  14  23
ATOM     23  S   UNL     1       3.804  -2.068  -0.072  0.00  0.00    +0.042 S 
ATOM     24  O   UNL     1       3.991  -2.478   1.499  0.00  0.00    -0.065 OA
ATOM     25  O   UNL     1       2.829  -2.987  -0.639  0.00  0.00    -0.065 OA
ATOM     26  O   UNL     1       5.125  -1.928  -0.664  0.00  0.00    -0.065 OA
ENDBRANCH  14  23
TORSDOF 1
