REMARK  Name = 7259
REMARK  1 active torsions:
REMARK  status: ('A' for Active; 'I' for Inactive)
REMARK    1  A    between atoms: C_2  and  N_9
REMARK                            x       y       z     vdW  Elec       q    Type
REMARK                         _______ _______ _______ _____ _____    ______ ____
ROOT
ATOM      1  C   UNL     1      -1.157  -0.521   0.000  0.00  0.00    -0.009 C 
ATOM      2  C   UNL     1      -0.728   0.806   0.000  0.00  0.00    +0.037 C 
ATOM      3  C   UNL     1       1.571   0.062   0.000  0.00  0.00    -0.021 C 
ATOM      4  C   UNL     1       0.636   1.097   0.000  0.00  0.00    +0.010 C 
ATOM      5  C   UNL     1      -0.222  -1.557   0.000  0.00  0.00    -0.003 C 
ATOM      6  C   UNL     1       1.142  -1.265   0.000  0.00  0.00    -0.004 C 
ATOM      7  C   UNL     1      -2.612  -0.863   0.000  0.00  0.00    +0.032 C 
ATOM      8  C   UNL     1       3.030   0.373   0.000  0.00  0.00    +0.031 C 
ENDROOT
BRANCH   2   9
ATOM      9  N   UNL     1      -1.660   1.867   0.000  0.00  0.00    -0.357 N 
ATOM     10  H   UNL     1      -2.625   1.674   0.000  0.00  0.00    +0.142 HD
ATOM     11  H   UNL     1      -1.345   2.799   0.001  0.00  0.00    +0.142 HD
ENDBRANCH   2   9
TORSDOF 1
