REMARK  Name = 5288483
REMARK  5 active torsions:
REMARK  status: ('A' for Active; 'I' for Inactive)
REMARK    1  A    between atoms: C_5  and  C_16
REMARK    2  A    between atoms: C_6  and  O_10
REMARK    3  A    between atoms: C_7  and  O_12
REMARK    4  A    between atoms: C_8  and  O_14
REMARK    5  A    between atoms: C_16  and  O_17
REMARK                            x       y       z     vdW  Elec       q    Type
REMARK                         _______ _______ _______ _____ _____    ______ ____
ROOT
ATOM      1  N   UNL     1       0.058   1.037  -0.135  0.00  0.00    -0.212 N 
ATOM      2  N   UNL     1       0.217   2.367  -0.178  0.00  0.00    -0.043 NA
ATOM      3  N   UNL     1       2.151   1.373   0.332  0.00  0.00    -0.110 NA
ATOM      4  N   UNL     1       1.494   2.567   0.127  0.00  0.00    -0.023 NA
ATOM      5  C   UNL     1      -1.191   0.370  -0.474  0.00  0.00    +0.167 C 
ATOM      6  C   UNL     1      -1.136  -1.123  -0.065  0.00  0.00    +0.165 C 
ATOM      7  C   UNL     1       0.211  -1.746  -0.473  0.00  0.00    +0.173 C 
ATOM      8  C   UNL     1       1.391  -1.044   0.214  0.00  0.00    +0.200 C 
ATOM      9  C   UNL     1       1.252   0.430   0.143  0.00  0.00    +0.190 A 
ENDROOT
BRANCH   6  10
ATOM     10  O   UNL     1      -1.293  -1.267   1.348  0.00  0.00    -0.380 OA
ATOM     11  H   UNL     1      -2.139  -0.878   1.621  0.00  0.00    +0.211 HD
ENDBRANCH   6  10
BRANCH   7  12
ATOM     12  O   UNL     1       0.234  -3.125  -0.110  0.00  0.00    -0.379 OA
ATOM     13  H   UNL     1      -0.506  -3.584  -0.536  0.00  0.00    +0.211 HD
ENDBRANCH   7  12
BRANCH   8  14
ATOM     14  O   UNL     1       2.600  -1.380  -0.460  0.00  0.00    -0.375 OA
ATOM     15  H   UNL     1       2.727  -2.341  -0.436  0.00  0.00    +0.211 HD
ENDBRANCH   8  14
BRANCH   5  16
ATOM     16  C   UNL     1      -2.411   1.087   0.108  0.00  0.00    +0.164 C 
BRANCH  16  17
ATOM     17  O   UNL     1      -3.577   0.451  -0.378  0.00  0.00    -0.380 OA
ATOM     18  H   UNL     1      -4.361   0.895  -0.018  0.00  0.00    +0.211 HD
ENDBRANCH  16  17
ENDBRANCH   5  16
TORSDOF 5
