REMARK  Name = 160024
REMARK  1 active torsions:
REMARK  status: ('A' for Active; 'I' for Inactive)
REMARK    1  A    between atoms: C_10  and  C_22
REMARK                            x       y       z     vdW  Elec       q    Type
REMARK                         _______ _______ _______ _____ _____    ______ ____
ROOT
ATOM      1  F   UNL     1      -3.951   2.131   0.080  0.00  0.00    -0.204 F 
ATOM      2  O   UNL     1       1.514   1.581  -0.140  0.00  0.00    -0.470 OA
ATOM      3  O   UNL     1       0.010  -1.357   2.233  0.00  0.00    -0.273 OA
ATOM      4  O   UNL     1      -1.875  -3.793  -1.159  0.00  0.00    -0.252 OA
ATOM      5  N   UNL     1      -0.755  -1.741  -1.136  0.00  0.00    -0.281 N 
ATOM      6  N   UNL     1      -1.006  -2.845   0.778  0.00  0.00    -0.238 N 
ATOM      7  C   UNL     1      -0.084  -0.883  -0.173  0.00  0.00    +0.153 C 
ATOM      8  C   UNL     1       1.414  -0.834  -0.488  0.00  0.00    +0.084 C 
ATOM      9  C   UNL     1      -0.683   0.502  -0.097  0.00  0.00    +0.038 C 
ATOM     10  C   UNL     1       2.062   0.325   0.255  0.00  0.00    +0.243 C 
ATOM     11  C   UNL     1      -0.336  -1.691   1.108  0.00  0.00    +0.249 C 
ATOM     12  C   UNL     1       0.143   1.637  -0.087  0.00  0.00    +0.137 C 
ATOM     13  C   UNL     1      -1.279  -2.903  -0.569  0.00  0.00    +0.307 C 
ATOM     14  C   UNL     1      -2.075   0.691  -0.029  0.00  0.00    +0.030 C 
ATOM     15  C   UNL     1      -0.408   2.922  -0.055  0.00  0.00    +0.039 C 
ATOM     16  C   UNL     1      -2.623   1.974   0.021  0.00  0.00    +0.140 C 
ATOM     17  C   UNL     1      -1.790   3.089   0.002  0.00  0.00    +0.033 C 
ATOM     18  H   UNL     1      -0.833  -1.523  -2.093  0.00  0.00    +0.152 HD
ATOM     19  H   UNL     1      -1.259  -3.543   1.424  0.00  0.00    +0.159 HD
ENDROOT
BRANCH  10  22
ATOM     20  O   UNL     1       3.962   1.422  -0.682  0.00  0.00    -0.271 OA
ATOM     21  N   UNL     1       4.254  -0.663   0.246  0.00  0.00    -0.326 N 
ATOM     22  C   UNL     1       3.507   0.436  -0.107  0.00  0.00    +0.260 C 
ATOM     23  H   UNL     1       5.218  -0.686   0.051  0.00  0.00    +0.145 HD
ATOM     24  H   UNL     1       3.824  -1.426   0.695  0.00  0.00    +0.145 HD
ENDBRANCH  10  22
TORSDOF 1
