REMARK  Name = 1549093
REMARK  1 active torsions:
REMARK  status: ('A' for Active; 'I' for Inactive)
REMARK    1  A    between atoms: C_1  and  N_7
REMARK                            x       y       z     vdW  Elec       q    Type
REMARK                         _______ _______ _______ _____ _____    ______ ____
ROOT
ATOM      1  C   UNL     1      -1.157   0.000   0.442  0.00  0.00    -0.066 C 
ATOM      2  C   UNL     1      -0.316  -1.270   0.580  0.00  0.00    -0.022 C 
ATOM      3  C   UNL     1      -0.316   1.269   0.581  0.00  0.00    -0.022 C 
ATOM      4  C   UNL     1       0.930  -1.264  -0.305  0.00  0.00    -0.002 C 
ATOM      5  C   UNL     1       0.930   1.264  -0.305  0.00  0.00    -0.002 C 
ATOM      6  C   UNL     1       1.760   0.000  -0.103  0.00  0.00    -0.000 C 
ENDROOT
BRANCH   1   7
ATOM      7  N   UNL     1      -1.831   0.000  -0.889  0.00  0.00    +0.382 N 
ATOM      8  H   UNL     1      -2.393  -0.846  -0.985  0.00  0.00    -0.089 HD
ATOM      9  H   UNL     1      -1.127   0.027  -1.627  0.00  0.00    -0.089 HD
ATOM     10  H   UNL     1      -2.434   0.819  -0.964  0.00  0.00    -0.089 HD
ENDBRANCH   1   7
TORSDOF 1
