REMARK  Name = 444235
REMARK  0 active torsions:
REMARK  status: ('A' for Active; 'I' for Inactive)
REMARK                            x       y       z     vdW  Elec       q    Type
REMARK                         _______ _______ _______ _____ _____    ______ ____
ROOT
ATOM      1  N   UNL     1      -0.709  -0.006   0.000  0.00  0.00    -0.287 N 
ATOM      2  N   UNL     1       1.327   0.708   0.000  0.00  0.00    -0.314 N 
ATOM      3  C   UNL     1       0.048   1.096   0.000  0.00  0.00    +0.185 C 
ATOM      4  C   UNL     1       0.100  -1.117   0.000  0.00  0.00    +0.078 C 
ATOM      5  C   UNL     1      -2.157  -0.018   0.000  0.00  0.00    +0.114 C 
ATOM      6  C   UNL     1       1.390  -0.664   0.000  0.00  0.00    +0.075 C 
ATOM      7  H   UNL     1       2.105   1.313   0.000  0.00  0.00    +0.148 HD
ENDROOT
TORSDOF 0
