REMARK  Name = 445211
REMARK  3 active torsions:
REMARK  status: ('A' for Active; 'I' for Inactive)
REMARK    1  A    between atoms: N_1  and  C_13
REMARK    2  A    between atoms: C_13  and  C_14
REMARK    3  A    between atoms: C_14  and  O_16
REMARK                            x       y       z     vdW  Elec       q    Type
REMARK                         _______ _______ _______ _____ _____    ______ ____
ROOT
ATOM      1  N   UNL     1      -0.794   0.379   0.539  0.00  0.00    -0.269 N 
ATOM      2  N   UNL     1       0.819   1.878   0.192  0.00  0.00    -0.242 NA
ATOM      3  N   UNL     1       0.471  -1.672   0.236  0.00  0.00    -0.228 NA
ATOM      4  N   UNL     1       2.809  -1.204  -0.283  0.00  0.00    -0.229 NA
ATOM      5  C   UNL     1       0.339  -0.338   0.279  0.00  0.00    +0.151 C 
ATOM      6  C   UNL     1       1.327   0.609   0.067  0.00  0.00    +0.140 C 
ATOM      7  C   UNL     1      -0.455   1.705   0.475  0.00  0.00    +0.221 C 
ATOM      8  C   UNL     1       2.602   0.134  -0.223  0.00  0.00    +0.143 C 
ATOM      9  C   UNL     1       1.746  -2.012  -0.053  0.00  0.00    +0.253 C 
ATOM     10  N   UNL     1       3.666   1.024  -0.451  0.00  0.00    -0.342 N 
ATOM     11  H   UNL     1       4.564   0.676  -0.655  0.00  0.00    +0.144 HD
ATOM     12  H   UNL     1       3.513   1.996  -0.406  0.00  0.00    +0.144 HD
ENDROOT
BRANCH   1  13
ATOM     13  C   UNL     1      -2.105  -0.148   0.828  0.00  0.00    +0.123 C 
BRANCH  13  14
ATOM     14  C   UNL     1      -2.951  -0.352  -0.432  0.00  0.00    +0.130 C 
ATOM     15  C   UNL     1      -4.328  -0.897  -0.078  0.00  0.00    +0.034 C 
BRANCH  14  16
ATOM     16  O   UNL     1      -3.145   0.895  -1.095  0.00  0.00    -0.383 OA
ATOM     17  H   UNL     1      -2.283   1.271  -1.335  0.00  0.00    +0.210 HD
ENDBRANCH  14  16
ENDBRANCH  13  14
ENDBRANCH   1  13
TORSDOF 3
