REMARK  Name = 292661
REMARK  1 active torsions:
REMARK  status: ('A' for Active; 'I' for Inactive)
REMARK    1  A    between atoms: C_9  and  N_17
REMARK                            x       y       z     vdW  Elec       q    Type
REMARK                         _______ _______ _______ _____ _____    ______ ____
ROOT
ATOM      1  N   UNL     1       1.370   1.375   0.000  0.00  0.00    -0.332 NA
ATOM      2  N   UNL     1       2.208  -0.884   0.000  0.00  0.00    -0.313 NA
ATOM      3  N   UNL     1       0.728  -2.713   0.000  0.00  0.00    -0.332 N 
ATOM      4  N   UNL     1       3.676   0.942   0.000  0.00  0.00    -0.283 N 
ATOM      5  C   UNL     1      -0.172  -0.461   0.000  0.00  0.00    +0.072 C 
ATOM      6  C   UNL     1       0.107   0.915   0.000  0.00  0.00    +0.131 C 
ATOM      7  C   UNL     1      -1.497  -0.930   0.000  0.00  0.00    +0.020 C 
ATOM      8  C   UNL     1       0.931  -1.310   0.000  0.00  0.00    +0.193 C 
ATOM      9  C   UNL     1      -2.555  -0.027   0.000  0.00  0.00    +0.038 C 
ATOM     10  C   UNL     1      -0.971   1.797   0.000  0.00  0.00    +0.087 C 
ATOM     11  C   UNL     1      -2.292   1.338   0.000  0.00  0.00    -0.005 C 
ATOM     12  C   UNL     1       2.352   0.451   0.000  0.00  0.00    +0.197 C 
ATOM     13  H   UNL     1       1.502  -3.322   0.000  0.00  0.00    +0.145 HD
ATOM     14  H   UNL     1      -0.186  -3.078   0.000  0.00  0.00    +0.145 HD
ATOM     15  H   UNL     1       3.842   1.912   0.000  0.00  0.00    +0.156 HD
ATOM     16  H   UNL     1       4.434   0.313   0.000  0.00  0.00    +0.156 HD
ENDROOT
BRANCH   9  17
ATOM     17  N   UNL     1      -3.886  -0.492   0.000  0.00  0.00    -0.357 N 
ATOM     18  H   UNL     1      -4.069  -1.459   0.000  0.00  0.00    +0.142 HD
ATOM     19  H   UNL     1      -4.631   0.150   0.000  0.00  0.00    +0.142 HD
ENDBRANCH   9  17
TORSDOF 1
