REMARK  Name = 49866988
REMARK  8 active torsions:
REMARK  status: ('A' for Active; 'I' for Inactive)
REMARK    1  A    between atoms: C_1  and  C_9
REMARK    2  A    between atoms: C_2  and  C_25
REMARK    3  A    between atoms: C_5  and  N_28
REMARK    4  A    between atoms: C_19  and  O_22
REMARK    5  A    between atoms: C_25  and  O_26
REMARK    6  A    between atoms: N_28  and  C_31
REMARK    7  A    between atoms: C_31  and  N_32
REMARK    8  A    between atoms: N_32  and  C_34
REMARK                            x       y       z     vdW  Elec       q    Type
REMARK                         _______ _______ _______ _____ _____    ______ ____
ROOT
ATOM      1  C   UNL     1       0.236  -0.091  -0.207  0.00  0.00    +0.006 C 
ATOM      2  C   UNL     1       0.946  -0.161   0.992  0.00  0.00    +0.077 C 
ATOM      3  C   UNL     1       0.921  -0.072  -1.422  0.00  0.00    +0.001 C 
ATOM      4  C   UNL     1       2.339  -0.211   0.976  0.00  0.00    +0.021 C 
ATOM      5  C   UNL     1       3.024  -0.192  -0.239  0.00  0.00    +0.050 C 
ATOM      6  C   UNL     1       2.315  -0.123  -1.438  0.00  0.00    +0.015 C 
ENDROOT
BRANCH   1   9
ATOM      7  O   UNL     1      -4.094   0.055  -0.267  0.00  0.00    -0.474 OA
ATOM      8  O   UNL     1      -4.149  -4.647  -0.434  0.00  0.00    -0.291 OA
ATOM      9  C   UNL     1      -1.230  -0.035  -0.228  0.00  0.00    +0.003 C 
ATOM     10  C   UNL     1      -1.985   1.244  -0.194  0.00  0.00    +0.022 C 
ATOM     11  C   UNL     1      -1.948  -1.190  -0.279  0.00  0.00    +0.030 C 
ATOM     12  C   UNL     1      -3.380   1.222  -0.215  0.00  0.00    +0.213 C 
ATOM     13  C   UNL     1      -3.419  -1.157  -0.300  0.00  0.00    +0.124 C 
ATOM     14  C   UNL     1      -1.345   2.493  -0.140  0.00  0.00    +0.003 C 
ATOM     15  C   UNL     1      -1.305  -2.512  -0.316  0.00  0.00    +0.006 C 
ATOM     16  C   UNL     1      -4.125   2.405  -0.184  0.00  0.00    +0.058 C 
ATOM     17  C   UNL     1      -4.143  -2.285  -0.351  0.00  0.00    +0.133 C 
ATOM     18  C   UNL     1      -2.086   3.678  -0.109  0.00  0.00    +0.036 C 
ATOM     19  C   UNL     1      -3.476   3.634  -0.131  0.00  0.00    +0.133 C 
ATOM     20  C   UNL     1      -2.010  -3.649  -0.367  0.00  0.00    +0.038 C 
ATOM     21  C   UNL     1      -3.489  -3.615  -0.388  0.00  0.00    +0.181 C 
BRANCH  19  22
ATOM     22  O   UNL     1      -4.197   4.787  -0.100  0.00  0.00    -0.506 OA
ATOM     23  H   UNL     1      -5.133   4.755  -0.115  0.00  0.00    +0.292 HD
ENDBRANCH  19  22
ENDBRANCH   1   9
BRANCH   2  25
ATOM     24  O   UNL     1      -0.540  -1.039   2.650  0.00  0.00    -0.245 OA
ATOM     25  C   UNL     1       0.268  -0.182   2.284  0.00  0.00    +0.338 C 
BRANCH  25  26
ATOM     26  O   UNL     1       0.625   0.867   3.072  0.00  0.00    -0.477 OA
ATOM     27  H   UNL     1       1.243   1.499   2.759  0.00  0.00    +0.295 HD
ENDBRANCH  25  26
ENDBRANCH   2  25
BRANCH   5  28
ATOM     28  N   UNL     1       4.418  -0.242  -0.256  0.00  0.00    -0.296 N 
ATOM     29  H   UNL     1       4.803  -0.797   0.461  0.00  0.00    +0.154 HD
BRANCH  28  31
ATOM     30  S   UNL     1       5.121   1.383  -2.390  0.00  0.00    -0.019 S 
ATOM     31  C   UNL     1       5.381   0.344  -1.096  0.00  0.00    +0.135 C 
BRANCH  31  32
ATOM     32  N   UNL     1       6.702   0.050  -0.782  0.00  0.00    -0.316 N 
ATOM     33  H   UNL     1       7.390   0.452  -1.360  0.00  0.00    +0.148 HD
BRANCH  32  34
ATOM     34  C   UNL     1       7.178  -0.786   0.304  0.00  0.00    +0.088 C 
ATOM     35  C   UNL     1       7.447   0.028   1.553  0.00  0.00    +0.023 C 
ENDBRANCH  32  34
ENDBRANCH  31  32
ENDBRANCH  28  31
ENDBRANCH   5  28
TORSDOF 8
