REMARK  Name = 3744
REMARK  4 active torsions:
REMARK  status: ('A' for Active; 'I' for Inactive)
REMARK    1  A    between atoms: C_2  and  C_11
REMARK    2  A    between atoms: C_11  and  C_12
REMARK    3  A    between atoms: C_12  and  C_14
REMARK    4  A    between atoms: C_14  and  O_15
REMARK                            x       y       z     vdW  Elec       q    Type
REMARK                         _______ _______ _______ _____ _____    ______ ____
ROOT
ATOM      1  N   UNL     1       1.722  -2.007  -0.192  0.00  0.00    -0.312 N 
ATOM      2  C   UNL     1      -0.054  -0.782   0.332  0.00  0.00    -0.006 C 
ATOM      3  C   UNL     1       1.062   0.089   0.191  0.00  0.00    +0.011 C 
ATOM      4  C   UNL     1       2.163  -0.704  -0.138  0.00  0.00    +0.048 C 
ATOM      5  C   UNL     1       0.383  -2.064   0.090  0.00  0.00    +0.058 C 
ATOM      6  C   UNL     1       1.242   1.482   0.311  0.00  0.00    +0.001 C 
ATOM      7  C   UNL     1       3.440  -0.173  -0.352  0.00  0.00    +0.015 C 
ATOM      8  C   UNL     1       2.513   2.027   0.100  0.00  0.00    +0.000 C 
ATOM      9  C   UNL     1       3.594   1.211  -0.227  0.00  0.00    +0.001 C 
ATOM     10  H   UNL     1       2.287  -2.785  -0.403  0.00  0.00    +0.152 HD
ENDROOT
BRANCH   2  11
ATOM     11  C   UNL     1      -1.436  -0.392   0.675  0.00  0.00    +0.039 C 
BRANCH  11  12
ATOM     12  C   UNL     1      -2.321  -0.069  -0.542  0.00  0.00    +0.114 C 
BRANCH  12  14
ATOM     13  O   UNL     1      -4.069   0.441   1.046  0.00  0.00    -0.250 OA
ATOM     14  C   UNL     1      -3.709   0.351  -0.121  0.00  0.00    +0.314 C 
BRANCH  14  15
ATOM     15  O   UNL     1      -4.529   0.592  -1.173  0.00  0.00    -0.480 OA
ATOM     16  H   UNL     1      -4.205   0.509  -2.049  0.00  0.00    +0.295 HD
ENDBRANCH  14  15
ENDBRANCH  12  14
ENDBRANCH  11  12
ENDBRANCH   2  11
TORSDOF 4
