REMARK  Name = 17754062
REMARK  9 active torsions:
REMARK  status: ('A' for Active; 'I' for Inactive)
REMARK    1  A    between atoms: C_1  and  C_2
REMARK    2  A    between atoms: C_1  and  C_11
REMARK    3  A    between atoms: C_2  and  C_3
REMARK    4  A    between atoms: C_3  and  C_4
REMARK    5  A    between atoms: C_4  and  N_6
REMARK    6  A    between atoms: C_7  and  O_9
REMARK    7  A    between atoms: C_11  and  N_12
REMARK    8  A    between atoms: C_11  and  C_16
REMARK    9  A    between atoms: C_16  and  O_17
REMARK                            x       y       z     vdW  Elec       q    Type
REMARK                         _______ _______ _______ _____ _____    ______ ____
ROOT
ATOM      1  C   UNK     1      -1.768  -0.442   0.215  0.00  0.00    -0.019 C 
ENDROOT
BRANCH   1   2
ATOM      2  C   UNK     1      -0.437  -0.378  -0.546  0.00  0.00    -0.000 C 
BRANCH   2   3
ATOM      3  C   UNK     1       0.588  -1.349   0.052  0.00  0.00    +0.021 C 
BRANCH   3   4
ATOM      4  C   UNK     1       1.905  -1.357  -0.717  0.00  0.00    +0.093 C 
BRANCH   4   6
ATOM      5  O   UNK     1       3.832  -0.309   1.213  0.00  0.00    -0.227 OA
ATOM      6  N   UNK     1       2.548  -0.072  -0.717  0.00  0.00    -0.271 N 
ATOM      7  C   UNK     1       3.451   0.337   0.244  0.00  0.00    +0.398 C 
ATOM      8  H   UNK     1       2.332   0.554  -1.445  0.00  0.00    +0.153 HD
BRANCH   7   9
ATOM      9  O   UNK     1       3.894   1.596  -0.013  0.00  0.00    -0.466 OA
ATOM     10  H   UNK     1       3.579   2.059  -0.764  0.00  0.00    +0.297 HD
ENDBRANCH   7   9
ENDBRANCH   4   6
ENDBRANCH   3   4
ENDBRANCH   2   3
ENDBRANCH   1   2
BRANCH   1  11
ATOM     11  C   UNK     1      -2.831   0.538  -0.319  0.00  0.00    -0.036 C 
BRANCH  11  12
ATOM     12  N   UNK     1      -2.367   1.923  -0.236  0.00  0.00    +0.383 N 
ATOM     13  H   UNK     1      -1.494   2.021  -0.754  0.00  0.00    -0.089 HD
ATOM     14  H   UNK     1      -2.211   2.171   0.741  0.00  0.00    -0.089 HD
ATOM     15  H   UNK     1      -3.072   2.542  -0.636  0.00  0.00    -0.089 HD
ENDBRANCH  11  12
BRANCH  11  16
ATOM     16  C   UNK     1      -4.142   0.414   0.466  0.00  0.00    +0.115 C 
BRANCH  16  17
ATOM     17  O   UNK     1      -4.674  -0.901   0.357  0.00  0.00    -0.384 OA
ATOM     18  H   UNK     1      -5.501  -0.958   0.860  0.00  0.00    +0.210 HD
ENDBRANCH  16  17
ENDBRANCH  11  16
ENDBRANCH   1  11
TORSDOF 9
