REMARK  Name = 1017
REMARK  4 active torsions:
REMARK  status: ('A' for Active; 'I' for Inactive)
REMARK    1  A    between atoms: C_1  and  C_8
REMARK    2  A    between atoms: C_2  and  C_12
REMARK    3  A    between atoms: C_8  and  O_9
REMARK    4  A    between atoms: C_12  and  O_13
REMARK                            x       y       z     vdW  Elec       q    Type
REMARK                         _______ _______ _______ _____ _____    ______ ____
ROOT
ATOM      1  C   UNL     1      -0.075   0.733  -0.007  0.00  0.00    +0.082 C 
ATOM      2  C   UNL     1      -0.284  -0.645  -0.058  0.00  0.00    +0.082 C 
ATOM      3  C   UNL     1      -1.164   1.604   0.007  0.00  0.00    +0.007 C 
ATOM      4  C   UNL     1      -1.583  -1.152  -0.094  0.00  0.00    +0.007 C 
ATOM      5  C   UNL     1      -2.463   1.097  -0.028  0.00  0.00    +0.000 C 
ATOM      6  C   UNL     1      -2.673  -0.281  -0.079  0.00  0.00    +0.000 C 
ENDROOT
BRANCH   1   8
ATOM      7  O   UNL     1       1.943   1.603  -0.955  0.00  0.00    -0.245 OA
ATOM      8  C   UNL     1       1.270   1.293   0.032  0.00  0.00    +0.338 C 
BRANCH   8   9
ATOM      9  O   UNL     1       1.729   1.449   1.303  0.00  0.00    -0.477 OA
ATOM     10  H   UNL     1       1.190   1.203   2.029  0.00  0.00    +0.295 HD
ENDBRANCH   8   9
ENDBRANCH   1   8
BRANCH   2  12
ATOM     11  O   UNL     1       1.946  -1.353  -0.555  0.00  0.00    -0.245 OA
ATOM     12  C   UNL     1       0.833  -1.581  -0.075  0.00  0.00    +0.338 C 
BRANCH  12  13
ATOM     13  O   UNL     1       0.521  -2.769   0.510  0.00  0.00    -0.477 OA
ATOM     14  H   UNL     1      -0.335  -2.906   0.864  0.00  0.00    +0.295 HD
ENDBRANCH  12  13
ENDBRANCH   2  12
TORSDOF 4
