REMARK  Name = 4469807
REMARK  9 active torsions:
REMARK  status: ('A' for Active; 'I' for Inactive)
REMARK    1  A    between atoms: C_1  and  N_2
REMARK    2  A    between atoms: C_1  and  C_11
REMARK    3  A    between atoms: N_2  and  C_5
REMARK    4  A    between atoms: C_5  and  C_6
REMARK    5  A    between atoms: C_6  and  C_7
REMARK    6  A    between atoms: C_11  and  O_12
REMARK    7  A    between atoms: O_12  and  P_13
REMARK    8  A    between atoms: P_13  and  O_16
REMARK    9  A    between atoms: O_16  and  P_17
REMARK                            x       y       z     vdW  Elec       q    Type
REMARK                         _______ _______ _______ _____ _____    ______ ____
ROOT
ATOM      1  C   UNL     1       0.729  -0.464   0.558  0.00  0.00    -0.044 C 
ENDROOT
BRANCH   1   2
ATOM      2  N   UNL     1       1.725   0.334  -0.159  0.00  0.00    +0.387 N 
ATOM      3  C   UNL     1       1.322   1.741  -0.190  0.00  0.00    -0.101 C 
ATOM      4  H   UNL     1       1.784  -0.007  -1.118  0.00  0.00    -0.080 HD
BRANCH   2   5
ATOM      5  C   UNL     1       3.038   0.190   0.459  0.00  0.00    -0.073 C 
BRANCH   5   6
ATOM      6  C   UNL     1       4.089   0.950  -0.349  0.00  0.00    +0.003 C 
BRANCH   6   7
ATOM      7  C   UNL     1       5.453   0.806   0.266  0.00  0.00    -0.037 C 
ATOM      8  C   UNL     1       6.401  -0.101  -0.037  0.00  0.00    -0.048 C 
ATOM      9  C   UNL     1       7.734  -0.073   0.662  0.00  0.00    +0.026 C 
ATOM     10  C   UNL     1       6.250  -1.203  -1.046  0.00  0.00    +0.026 C 
ENDBRANCH   6   7
ENDBRANCH   5   6
ENDBRANCH   2   5
ENDBRANCH   1   2
BRANCH   1  11
ATOM     11  C   UNL     1      -0.617  -0.402  -0.147  0.00  0.00    +0.131 C 
BRANCH  11  12
ATOM     12  O   UNL     1      -1.547  -1.202   0.572  0.00  0.00    -0.274 OA
BRANCH  12  13
ATOM     13  P   UNL     1      -3.084  -1.315   0.029  0.00  0.00    +0.514 P 
ATOM     14  O   UNL     1      -3.880  -2.214   0.950  0.00  0.00    -0.116 OA
ATOM     15  O   UNL     1      -3.036  -1.581  -1.460  0.00  0.00    -0.224 OA
BRANCH  13  16
ATOM     16  O   UNL     1      -3.558   0.233   0.261  0.00  0.00    -0.181 OA
BRANCH  16  17
ATOM     17  P   UNL     1      -5.009   0.955  -0.042  0.00  0.00    +0.540 P 
ATOM     18  O   UNL     1      -4.805   2.402   0.393  0.00  0.00    -0.114 OA
ATOM     19  O   UNL     1      -5.992   0.174   0.824  0.00  0.00    -0.114 OA
ATOM     20  O   UNL     1      -5.213   0.771  -1.542  0.00  0.00    -0.222 OA
ENDBRANCH  16  17
ENDBRANCH  13  16
ENDBRANCH  12  13
ENDBRANCH  11  12
ENDBRANCH   1  11
TORSDOF 9
