REMARK  Name = 151483
REMARK  8 active torsions:
REMARK  status: ('A' for Active; 'I' for Inactive)
REMARK    1  A    between atoms: N_2  and  CA_15
REMARK    2  A    between atoms: C_3  and  C_5
REMARK    3  A    between atoms: C_6  and  O_11
REMARK    4  A    between atoms: C_8  and  O_13
REMARK    5  A    between atoms: CA_15  and  C_17
REMARK    6  A    between atoms: CA_15  and  CB_20
REMARK    7  A    between atoms: C_17  and  O_18
REMARK    8  A    between atoms: CB_20  and  O_21
REMARK                            x       y       z     vdW  Elec       q    Type
REMARK                         _______ _______ _______ _____ _____    ______ ____
ROOT
ATOM      1  O   UNL     1       0.255  -1.401  -1.269  0.00  0.00    -0.270 OA
ATOM      2  N   UNL     1       1.239   0.450  -0.277  0.00  0.00    -0.291 N 
ATOM      3  C   ACE A   0       0.164  -0.340  -0.657  0.00  0.00    +0.249 C 
ATOM      4  H   UNL     1       1.062   1.286   0.212  0.00  0.00    +0.150 HD
ENDROOT
BRANCH   3   5
ATOM      5  C   UNL     1      -1.182   0.178  -0.301  0.00  0.00    +0.090 C 
ATOM      6  C   UNL     1      -2.214  -0.702  -0.048  0.00  0.00    +0.172 C 
ATOM      7  C   UNL     1      -1.353   1.547  -0.234  0.00  0.00    +0.008 C 
ATOM      8  C   UNL     1      -3.470  -0.194   0.285  0.00  0.00    +0.168 C 
ATOM      9  C   UNL     1      -2.609   2.055   0.099  0.00  0.00    +0.003 C 
ATOM     10  C   UNL     1      -3.667   1.185   0.358  0.00  0.00    +0.040 C 
BRANCH   6  11
ATOM     11  O   UNL     1      -2.029  -2.052  -0.119  0.00  0.00    -0.503 OA
ATOM     12  H   UNL     1      -1.187  -2.398  -0.342  0.00  0.00    +0.292 HD
ENDBRANCH   6  11
BRANCH   8  13
ATOM     13  O   UNL     1      -4.513  -1.033   0.541  0.00  0.00    -0.503 OA
ATOM     14  H   UNL     1      -4.390  -1.961   0.494  0.00  0.00    +0.292 HD
ENDBRANCH   8  13
ENDBRANCH   3   5
BRANCH   2  15
ATOM     15  CA  UNL     1       2.605   0.095  -0.573  0.00  0.00    +0.201 C 
BRANCH  15  17
ATOM     16  OXT UNL     1       2.786  -0.667   1.732  0.00  0.00    -0.248 OA
ATOM     17  C   UNL     1       3.094  -0.791   0.554  0.00  0.00    +0.334 C 
BRANCH  17  18
ATOM     18  O   UNL     1       3.972  -1.731   0.116  0.00  0.00    -0.479 OA
ATOM     19  H   UNL     1       4.179  -1.790  -0.796  0.00  0.00    +0.295 HD
ENDBRANCH  17  18
ENDBRANCH  15  17
BRANCH  15  20
ATOM     20  CB  UNL     1       3.489   1.325  -0.708  0.00  0.00    +0.168 C 
BRANCH  20  21
ATOM     21  O   UNL     1       3.433   2.076   0.499  0.00  0.00    -0.380 OA
ATOM     22  H   UNL     1       3.995   2.862   0.418  0.00  0.00    +0.211 HD
ENDBRANCH  20  21
ENDBRANCH  15  20
ENDBRANCH   2  15
TORSDOF 8
