REMARK  Name = 448317
REMARK  6 active torsions:
REMARK  status: ('A' for Active; 'I' for Inactive)
REMARK    1  A    between atoms: C_1  and  C_18
REMARK    2  A    between atoms: C_4  and  N_24
REMARK    3  A    between atoms: C_5  and  S_25
REMARK    4  A    between atoms: S_25  and  C_26
REMARK    5  A    between atoms: C_27  and  O_32
REMARK    6  A    between atoms: O_32  and  C_33
REMARK                            x       y       z     vdW  Elec       q    Type
REMARK                         _______ _______ _______ _____ _____    ______ ____
ROOT
ATOM      1  C   UNL     1      -0.406  -1.024  -0.438  0.00  0.00    +0.002 C 
ATOM      2  C   UNL     1      -0.588   0.357  -0.508  0.00  0.00    +0.025 C 
ATOM      3  C   UNL     1      -1.440  -1.883  -0.810  0.00  0.00    +0.001 C 
ATOM      4  C   UNL     1      -1.803   0.880  -0.952  0.00  0.00    +0.149 C 
ATOM      5  C   UNL     1      -2.837   0.021  -1.324  0.00  0.00    +0.052 C 
ATOM      6  C   UNL     1      -2.656  -1.361  -1.254  0.00  0.00    +0.008 C 
ENDROOT
BRANCH   1  18
ATOM      7  O   UNL     1       8.079   2.470   0.740  0.00  0.00    -0.275 OA
ATOM      8  N   UNL     1       4.435  -0.686   0.041  0.00  0.00    -0.290 N 
ATOM      9  N   UNL     1       6.834   0.773  -0.238  0.00  0.00    -0.276 N 
ATOM     10  N   UNL     1       3.287  -2.615   0.911  0.00  0.00    -0.229 NA
ATOM     11  C   UNL     1       5.702  -1.410  -0.132  0.00  0.00    +0.114 C 
ATOM     12  C   UNL     1       4.536   0.660   0.627  0.00  0.00    +0.114 C 
ATOM     13  C   UNL     1       6.717  -0.541  -0.874  0.00  0.00    +0.115 C 
ATOM     14  C   UNL     1       5.568   1.493  -0.130  0.00  0.00    +0.115 C 
ATOM     15  C   UNL     1       3.254  -1.404   0.262  0.00  0.00    +0.132 C 
ATOM     16  C   UNL     1       8.013   1.352   0.224  0.00  0.00    +0.226 C 
ATOM     17  C   UNL     1       2.035  -0.865  -0.191  0.00  0.00    +0.034 C 
ATOM     18  C   UNL     1       0.853  -1.566   0.022  0.00  0.00    +0.004 C 
ATOM     19  C   UNL     1       9.270   0.533   0.073  0.00  0.00    +0.095 C 
ATOM     20  C   UNL     1       0.887  -2.791   0.679  0.00  0.00    +0.021 C 
ATOM     21  C   UNL     1       2.118  -3.268   1.099  0.00  0.00    +0.100 C 
ENDBRANCH   1  18
BRANCH   4  24
ATOM     22  O   UNL     1      -0.978   3.013  -0.658  0.00  0.00    -0.126 OA
ATOM     23  O   UNL     1      -3.030   2.779  -1.404  0.00  0.00    -0.126 OA
ATOM     24  N   UNL     1      -1.944   2.296  -1.007  0.00  0.00    +0.058 N 
ENDBRANCH   4  24
BRANCH   5  25
ATOM     25  S   UNL     1      -4.421   0.625  -1.902  0.00  0.00    -0.082 S 
BRANCH  25  26
ATOM     26  C   UNL     1      -5.519  -0.079  -0.683  0.00  0.00    +0.063 C 
ATOM     27  C   UNL     1      -5.392   0.225   0.673  0.00  0.00    +0.144 C 
ATOM     28  C   UNL     1      -6.522  -0.953  -1.109  0.00  0.00    +0.010 C 
ATOM     29  C   UNL     1      -6.265  -0.342   1.601  0.00  0.00    +0.037 C 
ATOM     30  C   UNL     1      -7.395  -1.520  -0.180  0.00  0.00    +0.001 C 
ATOM     31  C   UNL     1      -7.267  -1.215   1.175  0.00  0.00    +0.003 C 
BRANCH  27  32
ATOM     32  O   UNL     1      -4.427   1.075   1.126  0.00  0.00    -0.475 OA
BRANCH  32  33
ATOM     33  C   UNL     1      -4.727   1.831   2.297  0.00  0.00    +0.206 C 
ATOM     34  C   UNL     1      -3.971   3.141   2.245  0.00  0.00    +0.051 C 
ENDBRANCH  32  33
ENDBRANCH  27  32
ENDBRANCH  25  26
ENDBRANCH   5  25
TORSDOF 6
