REMARK  Name = 17753990
REMARK  7 active torsions:
REMARK  status: ('A' for Active; 'I' for Inactive)
REMARK    1  A    between atoms: C_2  and  N_8
REMARK    2  A    between atoms: C_3  and  N_12
REMARK    3  A    between atoms: C_4  and  C_18
REMARK    4  A    between atoms: C_6  and  C_24
REMARK    5  A    between atoms: N_17  and  C_19
REMARK    6  A    between atoms: N_17  and  C_21
REMARK    7  A    between atoms: C_24  and  O_25
REMARK                            x       y       z     vdW  Elec       q    Type
REMARK                         _______ _______ _______ _____ _____    ______ ____
ROOT
ATOM      1  O   UNL     1      -1.070   0.732  -0.961  0.00  0.00    -0.337 OA
ATOM      2  C   UNL     1       0.016  -1.039   0.386  0.00  0.00    +0.088 C 
ATOM      3  C   UNL     1      -1.068  -0.878   1.470  0.00  0.00    -0.041 C 
ATOM      4  C   UNL     1       0.170   0.179  -0.539  0.00  0.00    +0.207 C 
ATOM      5  C   UNL     1      -2.326  -0.233   0.879  0.00  0.00    +0.021 C 
ATOM      6  C   UNL     1      -1.983   1.024   0.089  0.00  0.00    +0.212 C 
ENDROOT
BRANCH   2   8
ATOM      7  O   UNL     1       0.797  -3.786   0.909  0.00  0.00    -0.275 OA
ATOM      8  N   UNL     1      -0.288  -2.211  -0.417  0.00  0.00    -0.305 N 
ATOM      9  C   UNL     1       0.134  -3.481  -0.079  0.00  0.00    +0.223 C 
ATOM     10  C   UNL     1      -0.339  -4.513  -1.067  0.00  0.00    +0.095 C 
ATOM     11  H   UNL     1      -0.817  -2.094  -1.239  0.00  0.00    +0.149 HD
ENDBRANCH   2   8
BRANCH   3  12
ATOM     12  N   UNL     1      -0.572  -0.059   2.579  0.00  0.00    +0.383 N 
ATOM     13  H   UNL     1       0.265  -0.489   2.971  0.00  0.00    -0.089 HD
ATOM     14  H   UNL     1      -1.290   0.007   3.300  0.00  0.00    -0.089 HD
ATOM     15  H   UNL     1      -0.346   0.875   2.237  0.00  0.00    -0.089 HD
ENDBRANCH   3  12
BRANCH   4  18
ATOM     16  O   UNL     1       0.511   2.166   0.694  0.00  0.00    -0.272 OA
ATOM     17  N   UNL     1       2.402   1.182  -0.233  0.00  0.00    -0.278 N 
ATOM     18  C   UNL     1       1.034   1.266   0.032  0.00  0.00    +0.254 C 
BRANCH  17  19
ATOM     19  C   UNL     1       3.353   2.169   0.261  0.00  0.00    +0.094 C 
ATOM     20  C   UNL     1       3.895   1.786   1.622  0.00  0.00    +0.023 C 
ENDBRANCH  17  19
BRANCH  17  21
ATOM     21  C   UNL     1       2.979   0.098  -1.023  0.00  0.00    +0.094 C 
ATOM     22  C   UNL     1       3.019   0.446  -2.497  0.00  0.00    +0.023 C 
ENDBRANCH  17  21
ENDBRANCH   4  18
BRANCH   6  24
ATOM     23  O   UNL     1      -3.334   1.652  -1.810  0.00  0.00    -0.248 OA
ATOM     24  C   UNL     1      -3.197   1.561  -0.600  0.00  0.00    +0.341 C 
BRANCH  24  25
ATOM     25  O   UNL     1      -4.132   1.941   0.305  0.00  0.00    -0.479 OA
ATOM     26  H   UNL     1      -3.964   1.844   1.222  0.00  0.00    +0.295 HD
ENDBRANCH  24  25
ENDBRANCH   6  24
TORSDOF 7
