REMARK  Name = 978
REMARK  3 active torsions:
REMARK  status: ('A' for Active; 'I' for Inactive)
REMARK    1  A    between atoms: C_1  and  C_11
REMARK    2  A    between atoms: C_2  and  N_7
REMARK    3  A    between atoms: C_11  and  O_12
REMARK                            x       y       z     vdW  Elec       q    Type
REMARK                         _______ _______ _______ _____ _____    ______ ____
ROOT
ATOM      1  C   UNL     1      -0.697   0.035   0.001  0.00  0.00    +0.076 C 
ATOM      2  C   UNL     1       2.093  -0.005   0.000  0.00  0.00    +0.042 C 
ATOM      3  C   UNL     1       0.018   1.233   0.000  0.00  0.00    +0.008 C 
ATOM      4  C   UNL     1      -0.017  -1.183   0.001  0.00  0.00    +0.008 C 
ATOM      5  C   UNL     1       1.413   1.213   0.000  0.00  0.00    +0.014 C 
ATOM      6  C   UNL     1       1.378  -1.203   0.000  0.00  0.00    +0.014 C 
ENDROOT
BRANCH   2   7
ATOM      7  N   UNL     1       3.503  -0.026  -0.001  0.00  0.00    -0.357 N 
ATOM      8  H   UNL     1       4.008   0.820  -0.001  0.00  0.00    +0.142 HD
ATOM      9  H   UNL     1       3.983  -0.885   0.000  0.00  0.00    +0.142 HD
ENDBRANCH   2   7
BRANCH   1  11
ATOM     10  O   UNL     1      -2.852   1.073   0.000  0.00  0.00    -0.245 OA
ATOM     11  C   UNL     1      -2.151   0.056   0.000  0.00  0.00    +0.338 C 
BRANCH  11  12
ATOM     12  O   UNL     1      -2.689  -1.194  -0.001  0.00  0.00    -0.477 OA
ATOM     13  H   UNL     1      -2.129  -1.945   0.000  0.00  0.00    +0.295 HD
ENDBRANCH  11  12
ENDBRANCH   1  11
TORSDOF 3
