REMARK  Name = 447229
REMARK  6 active torsions:
REMARK  status: ('A' for Active; 'I' for Inactive)
REMARK    1  A    between atoms: C_5  and  N_17
REMARK    2  A    between atoms: N_17  and  C_19
REMARK    3  A    between atoms: C_19  and  C_20
REMARK    4  A    between atoms: C_23  and  O_26
REMARK    5  A    between atoms: C_24  and  O_28
REMARK    6  A    between atoms: C_25  and  O_30
REMARK                            x       y       z     vdW  Elec       q    Type
REMARK                         _______ _______ _______ _____ _____    ______ ____
ROOT
ATOM      1  N   UNL     1       2.823   1.586  -1.507  0.00  0.00    -0.180 NA
ATOM      2  N   UNL     1       4.580   0.083  -1.371  0.00  0.00    -0.273 NA
ATOM      3  N   UNL     1       4.797  -1.435   0.486  0.00  0.00    -0.312 NA
ATOM      4  N   UNL     1       6.369  -1.432  -1.249  0.00  0.00    -0.283 N 
ATOM      5  C   UNL     1       1.135   1.688   0.217  0.00  0.00    +0.069 C 
ATOM      6  C   UNL     1       1.786   0.674   0.897  0.00  0.00    +0.031 C 
ATOM      7  C   UNL     1       2.960   0.124   0.361  0.00  0.00    +0.121 C 
ATOM      8  C   UNL     1       1.691   2.105  -0.973  0.00  0.00    +0.125 C 
ATOM      9  C   UNL     1       3.461   0.604  -0.855  0.00  0.00    +0.105 C 
ATOM     10  C   UNL     1       3.672  -0.897   0.986  0.00  0.00    +0.201 C 
ATOM     11  C   UNL     1       5.189  -0.904  -0.680  0.00  0.00    +0.206 C 
ATOM     12  H   UNL     1       6.703  -1.079  -2.105  0.00  0.00    +0.156 HD
ATOM     13  H   UNL     1       6.857  -2.152  -0.789  0.00  0.00    +0.156 HD
ATOM     14  N   UNL     1       3.206  -1.419   2.218  0.00  0.00    -0.332 N 
ATOM     15  H   UNL     1       3.703  -2.141   2.666  0.00  0.00    +0.145 HD
ATOM     16  H   UNL     1       2.385  -1.060   2.626  0.00  0.00    +0.145 HD
ENDROOT
BRANCH   5  17
ATOM     17  N   UNL     1      -0.039   2.269   0.719  0.00  0.00    -0.301 N 
ATOM     18  C   UNL     1      -0.474   3.578   0.260  0.00  0.00    +0.113 C 
BRANCH  17  19
ATOM     19  C   UNL     1      -0.854   1.568   1.698  0.00  0.00    +0.118 C 
BRANCH  19  20
ATOM     20  C   UNL     1      -1.851   0.700   0.992  0.00  0.00    +0.004 C 
ATOM     21  C   UNL     1      -3.101   1.213   0.661  0.00  0.00    +0.038 C 
ATOM     22  C   UNL     1      -1.519  -0.613   0.672  0.00  0.00    +0.038 C 
ATOM     23  C   UNL     1      -2.447  -1.421   0.016  0.00  0.00    +0.175 C 
ATOM     24  C   UNL     1      -4.029   0.404   0.004  0.00  0.00    +0.175 C 
ATOM     25  C   UNL     1      -3.702  -0.913  -0.318  0.00  0.00    +0.206 C 
BRANCH  23  26
ATOM     26  O   UNL     1      -2.114  -2.705  -0.295  0.00  0.00    -0.468 OA
ATOM     27  C   UNL     1      -0.811  -3.146   0.082  0.00  0.00    +0.253 C 
ENDBRANCH  23  26
BRANCH  24  28
ATOM     28  O   UNL     1      -5.251   0.913  -0.318  0.00  0.00    -0.468 OA
ATOM     29  C   UNL     1      -5.375   1.544  -1.591  0.00  0.00    +0.253 C 
ENDBRANCH  24  28
BRANCH  25  30
ATOM     30  O   UNL     1      -4.608  -1.702  -0.963  0.00  0.00    -0.465 OA
ATOM     31  C   UNL     1      -5.496  -2.465  -0.149  0.00  0.00    +0.253 C 
ENDBRANCH  25  30
ENDBRANCH  19  20
ENDBRANCH  17  19
ENDBRANCH   5  17
TORSDOF 6
