REMARK  Name = 87901
REMARK  5 active torsions:
REMARK  status: ('A' for Active; 'I' for Inactive)
REMARK    1  A    between atoms: C_3  and  O_13
REMARK    2  A    between atoms: C_4  and  O_15
REMARK    3  A    between atoms: C_5  and  C_17
REMARK    4  A    between atoms: C_6  and  N_9
REMARK    5  A    between atoms: C_17  and  O_18
REMARK                            x       y       z     vdW  Elec       q    Type
REMARK                         _______ _______ _______ _____ _____    ______ ____
ROOT
ATOM      1  O   UNL     1      -1.523   1.202   0.196  0.00  0.00    -0.446 OA
ATOM      2  O   UNL     1       0.260   2.564   0.235  0.00  0.00    -0.248 OA
ATOM      3  C   UNL     1       0.123  -1.096  -0.260  0.00  0.00    +0.170 C 
ATOM      4  C   UNL     1      -1.323  -1.249   0.187  0.00  0.00    +0.182 C 
ATOM      5  C   UNL     1      -2.105  -0.030  -0.276  0.00  0.00    +0.227 C 
ATOM      6  C   UNL     1       0.710   0.199   0.281  0.00  0.00    +0.201 C 
ATOM      7  C   UNL     1      -0.187   1.419   0.188  0.00  0.00    +0.338 C 
ENDROOT
BRANCH   6   9
ATOM      8  O   UNL     1       3.409  -0.621   0.970  0.00  0.00    -0.275 OA
ATOM      9  N   UNL     1       1.932   0.526  -0.417  0.00  0.00    -0.295 N 
ATOM     10  C   UNL     1       3.180   0.085  -0.009  0.00  0.00    +0.223 C 
ATOM     11  C   UNL     1       4.279   0.549  -0.927  0.00  0.00    +0.095 C 
ATOM     12  H   UNL     1       1.875   1.090  -1.222  0.00  0.00    +0.150 HD
ENDBRANCH   6   9
BRANCH   3  13
ATOM     13  O   UNL     1       0.891  -2.180   0.266  0.00  0.00    -0.380 OA
ATOM     14  H   UNL     1       0.534  -3.019  -0.066  0.00  0.00    +0.211 HD
ENDBRANCH   3  13
BRANCH   4  15
ATOM     15  O   UNL     1      -1.889  -2.415  -0.404  0.00  0.00    -0.378 OA
ATOM     16  H   UNL     1      -1.395  -3.197  -0.113  0.00  0.00    +0.211 HD
ENDBRANCH   4  15
BRANCH   5  17
ATOM     17  C   UNL     1      -3.550  -0.061   0.215  0.00  0.00    +0.184 C 
BRANCH  17  18
ATOM     18  O   UNL     1      -4.207   1.106  -0.244  0.00  0.00    -0.378 OA
ATOM     19  H   UNL     1      -5.128   1.100   0.061  0.00  0.00    +0.211 HD
ENDBRANCH  17  18
ENDBRANCH   5  17
TORSDOF 5
