REMARK  Name = 4369343
REMARK  7 active torsions:
REMARK  status: ('A' for Active; 'I' for Inactive)
REMARK    1  A    between atoms: C_3  and  C_10
REMARK    2  A    between atoms: C_7  and  C_22
REMARK    3  A    between atoms: N_9  and  C_12
REMARK    4  A    between atoms: C_22  and  N_24
REMARK    5  A    between atoms: C_22  and  C_33
REMARK    6  A    between atoms: C_25  and  C_27
REMARK    7  A    between atoms: C_27  and  N_29
REMARK                            x       y       z     vdW  Elec       q    Type
REMARK                         _______ _______ _______ _____ _____    ______ ____
ROOT
ATOM      1  O   UNL     1       0.849  -1.145  -0.352  0.00  0.00    -0.273 OA
ATOM      2  N   UNL     1       0.956   1.133   0.048  0.00  0.00    -0.272 N 
ATOM      3  C   UNL     1      -0.324   1.242   0.734  0.00  0.00    +0.152 C 
ATOM      4  C   UNL     1      -0.284   2.606   1.413  0.00  0.00    +0.031 C 
ATOM      5  C   UNL     1       1.657   2.414   0.033  0.00  0.00    +0.094 C 
ATOM      6  C   UNL     1       0.627   3.428   0.505  0.00  0.00    +0.024 C 
ATOM      7  C   UNL     1       1.471  -0.082  -0.379  0.00  0.00    +0.244 C 
ENDROOT
BRANCH   3  10
ATOM      8  O   UNL     1      -1.207   1.575  -1.459  0.00  0.00    -0.273 OA
ATOM      9  N   UNL     1      -2.572   0.640   0.178  0.00  0.00    -0.301 N 
ATOM     10  C   UNL     1      -1.395   1.173  -0.314  0.00  0.00    +0.241 C 
ATOM     11  H   UNL     1      -2.600   0.352   1.119  0.00  0.00    +0.150 HD
BRANCH   9  12
ATOM     12  C   UNL     1      -3.766   0.487  -0.626  0.00  0.00    +0.094 C 
ATOM     13  C   UNL     1      -4.571   1.791  -0.643  0.00  0.00    +0.024 C 
ATOM     14  C   UNL     1      -4.577  -0.699  -0.149  0.00  0.00    -0.008 C 
ATOM     15  C   UNL     1      -5.353   1.971   0.654  0.00  0.00    +0.007 C 
ATOM     16  C   UNL     1      -6.358   0.836   0.834  0.00  0.00    +0.026 C 
ATOM     17  C   UNL     1      -5.775  -0.530   0.571  0.00  0.00    -0.025 C 
ATOM     18  C   UNL     1      -4.106  -1.998  -0.401  0.00  0.00    -0.003 C 
ATOM     19  C   UNL     1      -6.484  -1.662   1.004  0.00  0.00    -0.005 C 
ATOM     20  C   UNL     1      -4.815  -3.113   0.043  0.00  0.00    -0.000 C 
ATOM     21  C   UNL     1      -6.004  -2.945   0.745  0.00  0.00    -0.000 C 
ENDBRANCH   9  12
ENDBRANCH   3  10
BRANCH   7  22
ATOM     22  C   UNL     1       2.882  -0.038  -0.910  0.00  0.00    +0.149 C 
BRANCH  22  24
ATOM     23  O   UNL     1       4.905   0.960   0.878  0.00  0.00    -0.277 OA
ATOM     24  N   UNL     1       3.640  -0.799   0.045  0.00  0.00    -0.300 N 
ATOM     25  C   UNL     1       4.604  -0.232   0.875  0.00  0.00    +0.203 C 
ATOM     26  H   UNL     1       3.470  -1.766   0.117  0.00  0.00    +0.150 HD
BRANCH  25  27
ATOM     27  C   UNL     1       5.267  -1.263   1.780  0.00  0.00    +0.017 C 
ATOM     28  C   UNL     1       4.520  -1.361   3.104  0.00  0.00    -0.014 C 
BRANCH  27  29
ATOM     29  N   UNL     1       6.650  -0.853   2.008  0.00  0.00    +0.389 N 
ATOM     30  C   UNL     1       7.377  -0.763   0.750  0.00  0.00    -0.105 C 
ATOM     31  H   UNL     1       7.107  -1.537   2.610  0.00  0.00    -0.084 HD
ATOM     32  H   UNL     1       6.649   0.066   2.451  0.00  0.00    -0.084 HD
ENDBRANCH  27  29
ENDBRANCH  25  27
ENDBRANCH  22  24
BRANCH  22  33
ATOM     33  C   UNL     1       3.006  -0.545  -2.366  0.00  0.00    +0.025 C 
ATOM     34  C   UNL     1       4.476  -0.466  -2.826  0.00  0.00    +0.002 C 
ATOM     35  C   UNL     1       2.567  -2.023  -2.429  0.00  0.00    +0.002 C 
ATOM     36  C   UNL     1       2.138   0.262  -3.351  0.00  0.00    +0.002 C 
ENDBRANCH  22  33
ENDBRANCH   7  22
TORSDOF 7
