REMARK  Name = 54675858
REMARK  3 active torsions:
REMARK  status: ('A' for Active; 'I' for Inactive)
REMARK    1  A    between atoms: C_2  and  C_11
REMARK    2  A    between atoms: C_3  and  O_8
REMARK    3  A    between atoms: C_11  and  O_12
REMARK                            x       y       z     vdW  Elec       q    Type
REMARK                         _______ _______ _______ _____ _____    ______ ____
ROOT
ATOM      1  O   UNL     1       2.697   1.434   0.096  0.00  0.00    -0.283 OA
ATOM      2  C   UNL     1      -1.137   0.064   0.020  0.00  0.00    +0.079 C 
ATOM      3  C   UNL     1       1.229  -0.369   0.242  0.00  0.00    +0.178 C 
ATOM      4  C   UNL     1      -0.086  -0.832   0.215  0.00  0.00    +0.047 C 
ATOM      5  C   UNL     1      -0.873   1.423  -0.148  0.00  0.00    +0.010 C 
ATOM      6  C   UNL     1       1.494   0.990   0.074  0.00  0.00    +0.229 C 
ATOM      7  C   UNL     1       0.443   1.886  -0.120  0.00  0.00    +0.045 C 
ENDROOT
BRANCH   3   8
ATOM      8  O   UNL     1       2.227  -1.283   0.436  0.00  0.00    -0.468 OA
ATOM      9  C   UNL     1       2.783  -1.885  -0.729  0.00  0.00    +0.253 C 
ENDBRANCH   3   8
BRANCH   2  11
ATOM     10  O   UNL     1      -2.857  -1.595   0.129  0.00  0.00    -0.245 OA
ATOM     11  C   UNL     1      -2.509  -0.418  -0.008  0.00  0.00    +0.338 C 
BRANCH  11  12
ATOM     12  O   UNL     1      -3.409   0.584  -0.207  0.00  0.00    -0.477 OA
ATOM     13  H   UNL     1      -3.113   1.467  -0.307  0.00  0.00    +0.295 HD
ENDBRANCH  11  12
ENDBRANCH   2  11
TORSDOF 3
