REMARK  Name = 54325748
REMARK  14 active torsions:
REMARK  status: ('A' for Active; 'I' for Inactive)
REMARK    1  A    between atoms: C_2  and  O_18
REMARK    2  A    between atoms: C_3  and  O_20
REMARK    3  A    between atoms: C_4  and  C_22
REMARK    4  A    between atoms: C_5  and  N_6
REMARK    5  A    between atoms: C_22  and  S_23
REMARK    6  A    between atoms: S_23  and  C_24
REMARK    7  A    between atoms: C_24  and  C_26
REMARK    8  A    between atoms: C_25  and  C_35
REMARK    9  A    between atoms: C_26  and  C_27
REMARK   10  A    between atoms: C_27  and  C_28
REMARK   11  A    between atoms: C_28  and  C_29
REMARK   12  A    between atoms: C_29  and  C_30
REMARK   13  A    between atoms: C_30  and  N_31
REMARK   14  A    between atoms: C_35  and  N_36
REMARK                            x       y       z     vdW  Elec       q    Type
REMARK                         _______ _______ _______ _____ _____    ______ ____
ROOT
ATOM      1  O   UNL     1       1.131  -1.762  -1.205  0.00  0.00    -0.335 OA
ATOM      2  C   UNL     1       1.589  -3.534   0.311  0.00  0.00    +0.169 C 
ATOM      3  C   UNL     1       2.321  -2.290   0.772  0.00  0.00    +0.187 C 
ATOM      4  C   UNL     1       0.550  -2.960  -0.643  0.00  0.00    +0.157 C 
ATOM      5  C   UNL     1       2.352  -1.451  -0.502  0.00  0.00    +0.225 C 
ENDROOT
BRANCH   5   6
ATOM      6  N   UNL     1       2.472   0.030  -0.230  0.00  0.00    -0.247 N 
ATOM      7  N   UNL     1       1.849   2.126   0.202  0.00  0.00    -0.242 NA
ATOM      8  N   UNL     1       4.882   0.320  -0.318  0.00  0.00    -0.228 NA
ATOM      9  N   UNL     1       5.510   2.644   0.082  0.00  0.00    -0.229 NA
ATOM     10  C   UNL     1       3.624   0.759  -0.161  0.00  0.00    +0.152 C 
ATOM     11  C   UNL     1       1.433   0.894  -0.006  0.00  0.00    +0.223 C 
ATOM     12  C   UNL     1       3.217   2.056   0.107  0.00  0.00    +0.140 C 
ATOM     13  C   UNL     1       4.216   3.017   0.229  0.00  0.00    +0.143 C 
ATOM     14  C   UNL     1       5.758   1.338  -0.178  0.00  0.00    +0.253 C 
ATOM     15  N   UNL     1       3.893   4.358   0.502  0.00  0.00    -0.342 N 
ATOM     16  H   UNL     1       4.609   5.029   0.586  0.00  0.00    +0.144 HD
ATOM     17  H   UNL     1       2.952   4.626   0.608  0.00  0.00    +0.144 HD
ENDBRANCH   5   6
BRANCH   2  18
ATOM     18  O   UNL     1       2.462  -4.375  -0.442  0.00  0.00    -0.379 OA
ATOM     19  H   UNL     1       3.134  -4.753   0.146  0.00  0.00    +0.211 HD
ENDBRANCH   2  18
BRANCH   3  20
ATOM     20  O   UNL     1       3.610  -2.565   1.283  0.00  0.00    -0.378 OA
ATOM     21  H   UNL     1       3.531  -3.098   2.089  0.00  0.00    +0.211 HD
ENDBRANCH   3  20
BRANCH   4  22
ATOM     22  C   UNL     1      -0.751  -2.579   0.049  0.00  0.00    +0.094 C 
BRANCH  22  23
ATOM     23  S   UNL     1      -1.932  -1.920  -1.140  0.00  0.00    -0.116 S 
BRANCH  23  24
ATOM     24  C   UNL     1      -3.281  -1.629  -0.053  0.00  0.00    -0.003 C 
ATOM     25  C   UNL     1      -4.184  -2.610   0.146  0.00  0.00    -0.048 C 
BRANCH  24  26
ATOM     26  C   UNL     1      -3.356  -0.244   0.554  0.00  0.00    +0.032 C 
BRANCH  26  27
ATOM     27  C   UNL     1      -4.202   0.757  -0.246  0.00  0.00    +0.005 C 
BRANCH  27  28
ATOM     28  C   UNL     1      -4.327   2.126   0.429  0.00  0.00    -0.002 C 
BRANCH  28  29
ATOM     29  C   UNL     1      -5.207   3.071  -0.396  0.00  0.00    -0.024 C 
BRANCH  29  30
ATOM     30  C   UNL     1      -5.351   4.458   0.232  0.00  0.00    -0.086 C 
BRANCH  30  31
ATOM     31  N   UNL     1      -6.223   5.324  -0.552  0.00  0.00    +0.380 N 
ATOM     32  H   UNL     1      -6.291   6.236  -0.100  0.00  0.00    -0.089 HD
ATOM     33  H   UNL     1      -7.151   4.905  -0.614  0.00  0.00    -0.089 HD
ATOM     34  H   UNL     1      -5.837   5.437  -1.489  0.00  0.00    -0.089 HD
ENDBRANCH  30  31
ENDBRANCH  29  30
ENDBRANCH  28  29
ENDBRANCH  27  28
ENDBRANCH  26  27
ENDBRANCH  24  26
BRANCH  25  35
ATOM     35  C   UNL     1      -5.428  -2.557   0.986  0.00  0.00    -0.059 C 
BRANCH  35  36
ATOM     36  N   UNL     1      -6.624  -2.803   0.185  0.00  0.00    +0.383 N 
ATOM     37  H   UNL     1      -7.449  -2.760   0.784  0.00  0.00    -0.089 HD
ATOM     38  H   UNL     1      -6.563  -3.727  -0.243  0.00  0.00    -0.089 HD
ATOM     39  H   UNL     1      -6.697  -2.094  -0.544  0.00  0.00    -0.089 HD
ENDBRANCH  35  36
ENDBRANCH  25  35
ENDBRANCH  23  24
ENDBRANCH  22  23
ENDBRANCH   4  22
TORSDOF 14
