REMARK  Name = 46936391
REMARK  14 active torsions:
REMARK  status: ('A' for Active; 'I' for Inactive)
REMARK    1  A    between atoms: C_1  and  C_2
REMARK    2  A    between atoms: C_1  and  C_11
REMARK    3  A    between atoms: C_2  and  C_3
REMARK    4  A    between atoms: C_3  and  C_4
REMARK    5  A    between atoms: C_4  and  C_5
REMARK    6  A    between atoms: C_5  and  C_6
REMARK    7  A    between atoms: C_6  and  C_7
REMARK    8  A    between atoms: C_7  and  C_8
REMARK    9  A    between atoms: C_8  and  C_9
REMARK   10  A    between atoms: C_11  and  P_12
REMARK   11  A    between atoms: P_12  and  O_15
REMARK   12  A    between atoms: O_15  and  C_16
REMARK   13  A    between atoms: C_16  and  C_17
REMARK   14  A    between atoms: C_17  and  C_18
REMARK                            x       y       z     vdW  Elec       q    Type
REMARK                         _______ _______ _______ _____ _____    ______ ____
ROOT
ATOM      1  C   UNL     1       1.271   1.896   0.882  0.00  0.00    +0.010 C 
ENDROOT
BRANCH   1   2
ATOM      2  C   UNL     1       0.240   0.835   0.496  0.00  0.00    +0.001 C 
BRANCH   2   3
ATOM      3  C   UNL     1      -1.205   1.326   0.605  0.00  0.00    +0.000 C 
BRANCH   3   4
ATOM      4  C   UNL     1      -2.196   0.207   0.276  0.00  0.00    +0.000 C 
BRANCH   4   5
ATOM      5  C   UNL     1      -3.642   0.703   0.353  0.00  0.00    +0.000 C 
BRANCH   5   6
ATOM      6  C   UNL     1      -4.629  -0.409  -0.008  0.00  0.00    +0.000 C 
BRANCH   6   7
ATOM      7  C   UNL     1      -6.095   0.026   0.075  0.00  0.00    +0.000 C 
BRANCH   7   8
ATOM      8  C   UNL     1      -7.083  -1.105  -0.214  0.00  0.00    +0.000 C 
BRANCH   8   9
ATOM      9  C   UNL     1      -8.529  -0.612  -0.130  0.00  0.00    +0.000 C 
ATOM     10  C   UNL     1      -9.516  -1.724  -0.447  0.00  0.00    +0.000 C 
ENDBRANCH   8   9
ENDBRANCH   7   8
ENDBRANCH   6   7
ENDBRANCH   5   6
ENDBRANCH   4   5
ENDBRANCH   3   4
ENDBRANCH   2   3
ENDBRANCH   1   2
BRANCH   1  11
ATOM     11  C   UNL     1       2.709   1.394   0.850  0.00  0.00    +0.083 C 
BRANCH  11  12
ATOM     12  P   UNL     1       3.183   0.807  -0.795  0.00  0.00    +0.202 P 
ATOM     13  O   UNL     1       2.931   1.907  -1.793  0.00  0.00    -0.293 OA
ATOM     14  H   UNL     1       3.157  -0.543  -1.080  0.00  0.00    +0.129 HD
BRANCH  12  15
ATOM     15  O   UNL     1       4.781   0.575  -0.595  0.00  0.00    -0.316 OA
BRANCH  15  16
ATOM     16  C   UNL     1       5.224  -0.566   0.118  0.00  0.00    +0.149 C 
BRANCH  16  17
ATOM     17  C   UNL     1       6.679  -0.836  -0.241  0.00  0.00    +0.033 C 
BRANCH  17  18
ATOM     18  C   UNL     1       7.219  -2.066   0.482  0.00  0.00    +0.003 C 
ATOM     19  C   UNL     1       8.658  -2.357   0.088  0.00  0.00    +0.000 C 
ENDBRANCH  17  18
ENDBRANCH  16  17
ENDBRANCH  15  16
ENDBRANCH  12  15
ENDBRANCH  11  12
ENDBRANCH   1  11
TORSDOF 14
