REMARK  Name = 445093
REMARK  7 active torsions:
REMARK  status: ('A' for Active; 'I' for Inactive)
REMARK    1  A    between atoms: C_2  and  O_18
REMARK    2  A    between atoms: C_3  and  O_20
REMARK    3  A    between atoms: C_4  and  N_6
REMARK    4  A    between atoms: C_5  and  C_22
REMARK    5  A    between atoms: C_22  and  O_23
REMARK    6  A    between atoms: O_23  and  P_24
REMARK    7  A    between atoms: P_24  and  O_27
REMARK                            x       y       z     vdW  Elec       q    Type
REMARK                         _______ _______ _______ _____ _____    ______ ____
ROOT
ATOM      1  O   UNL     1       0.987  -0.365   0.840  0.00  0.00    -0.333 OA
ATOM      2  C   UNL     1       0.169  -1.800  -0.856  0.00  0.00    +0.187 C 
ATOM      3  C   UNL     1       1.559  -2.267  -0.472  0.00  0.00    +0.171 C 
ATOM      4  C   UNL     1      -0.224  -0.982   0.365  0.00  0.00    +0.225 C 
ATOM      5  C   UNL     1       2.120  -1.050   0.258  0.00  0.00    +0.176 C 
ENDROOT
BRANCH   4   6
ATOM      6  N   UNL     1      -1.228   0.044   0.096  0.00  0.00    -0.247 N 
ATOM      7  N   UNL     1      -2.090   2.013  -0.503  0.00  0.00    -0.242 NA
ATOM      8  N   UNL     1      -3.269  -1.146   0.661  0.00  0.00    -0.228 NA
ATOM      9  N   UNL     1      -5.237   0.261   0.338  0.00  0.00    -0.229 NA
ATOM     10  C   UNL     1      -2.583  -0.073   0.242  0.00  0.00    +0.152 C 
ATOM     11  C   UNL     1      -0.983   1.316  -0.354  0.00  0.00    +0.223 C 
ATOM     12  C   UNL     1      -3.097   1.157  -0.135  0.00  0.00    +0.140 C 
ATOM     13  C   UNL     1      -4.480   1.305  -0.076  0.00  0.00    +0.143 C 
ATOM     14  C   UNL     1      -4.594  -0.883   0.676  0.00  0.00    +0.253 C 
ATOM     15  N   UNL     1      -5.088   2.518  -0.442  0.00  0.00    -0.342 N 
ATOM     16  H   UNL     1      -6.067   2.612  -0.396  0.00  0.00    +0.144 HD
ATOM     17  H   UNL     1      -4.535   3.275  -0.743  0.00  0.00    +0.144 HD
ENDBRANCH   4   6
BRANCH   2  18
ATOM     18  O   UNL     1      -0.729  -2.866  -1.087  0.00  0.00    -0.378 OA
ATOM     19  H   UNL     1      -0.447  -3.363  -1.871  0.00  0.00    +0.211 HD
ENDBRANCH   2  18
BRANCH   3  20
ATOM     20  O   UNL     1       1.459  -3.352   0.450  0.00  0.00    -0.379 OA
ATOM     21  H   UNL     1       1.103  -4.131  -0.005  0.00  0.00    +0.211 HD
ENDBRANCH   3  20
BRANCH   5  22
ATOM     22  C   UNL     1       2.843  -0.083  -0.668  0.00  0.00    +0.183 C 
BRANCH  22  23
ATOM     23  O   UNL     1       3.315   1.012   0.098  0.00  0.00    -0.291 OA
BRANCH  23  24
ATOM     24  P   UNL     1       4.893   1.356   0.172  0.00  0.00    +0.341 P 
ATOM     25  O   UNL     1       5.214   2.622   0.911  0.00  0.00    -0.258 OA
ATOM     26  C   UNL     1       5.669  -0.092   0.860  0.00  0.00    +0.129 C 
BRANCH  24  27
ATOM     27  O   UNL     1       5.376   1.353  -1.372  0.00  0.00    -0.323 OA
ATOM     28  H   UNL     1       4.996   2.119  -1.831  0.00  0.00    +0.220 HD
ENDBRANCH  24  27
ENDBRANCH  23  24
ENDBRANCH  22  23
ENDBRANCH   5  22
TORSDOF 7
