REMARK  Name = 449409
REMARK  12 active torsions:
REMARK  status: ('A' for Active; 'I' for Inactive)
REMARK    1  A    between atoms: C_2  and  O_15
REMARK    2  A    between atoms: C_3  and  O_17
REMARK    3  A    between atoms: C_4  and  C_19
REMARK    4  A    between atoms: C_5  and  N_8
REMARK    5  A    between atoms: C_19  and  O_20
REMARK    6  A    between atoms: O_20  and  P_21
REMARK    7  A    between atoms: P_21  and  O_23
REMARK    8  A    between atoms: P_21  and  O_25
REMARK    9  A    between atoms: O_25  and  P_26
REMARK   10  A    between atoms: P_26  and  O_28
REMARK   11  A    between atoms: P_26  and  O_30
REMARK   12  A    between atoms: O_30  and  C_31
REMARK                            x       y       z     vdW  Elec       q    Type
REMARK                         _______ _______ _______ _____ _____    ______ ____
ROOT
ATOM      1  O   UNL     1       2.126   1.885   0.766  0.00  0.00    -0.333 OA
ATOM      2  C   UNL     1       2.599   2.467  -1.481  0.00  0.00    +0.171 C 
ATOM      3  C   UNL     1       2.834   0.982  -1.307  0.00  0.00    +0.187 C 
ATOM      4  C   UNL     1       1.721   2.794  -0.281  0.00  0.00    +0.176 C 
ATOM      5  C   UNL     1       2.955   0.856   0.202  0.00  0.00    +0.229 C 
ENDROOT
BRANCH   5   8
ATOM      6  O   UNL     1       4.647  -1.358   0.662  0.00  0.00    -0.252 OA
ATOM      7  O   UNL     1       1.128  -3.991   2.050  0.00  0.00    -0.270 OA
ATOM      8  N   UNL     1       2.508  -0.419   0.684  0.00  0.00    -0.217 N 
ATOM      9  N   UNL     1       2.894  -2.668   1.352  0.00  0.00    -0.236 N 
ATOM     10  C   UNL     1       3.439  -1.466   0.880  0.00  0.00    +0.315 C 
ATOM     11  C   UNL     1       1.160  -0.624   0.957  0.00  0.00    +0.076 C 
ATOM     12  C   UNL     1       0.655  -1.775   1.406  0.00  0.00    +0.074 C 
ATOM     13  C   UNL     1       1.561  -2.919   1.637  0.00  0.00    +0.254 C 
ATOM     14  H   UNL     1       3.523  -3.411   1.495  0.00  0.00    +0.159 HD
ENDBRANCH   5   8
BRANCH   2  15
ATOM     15  O   UNL     1       3.826   3.183  -1.335  0.00  0.00    -0.379 OA
ATOM     16  H   UNL     1       4.404   2.990  -2.090  0.00  0.00    +0.211 HD
ENDBRANCH   2  15
BRANCH   3  17
ATOM     17  O   UNL     1       3.992   0.539  -1.984  0.00  0.00    -0.378 OA
ATOM     18  H   UNL     1       3.865   0.639  -2.940  0.00  0.00    +0.211 HD
ENDBRANCH   3  17
BRANCH   4  19
ATOM     19  C   UNL     1       0.236   2.581  -0.545  0.00  0.00    +0.186 C 
BRANCH  19  20
ATOM     20  O   UNL     1      -0.485   2.902   0.631  0.00  0.00    -0.270 OA
BRANCH  20  21
ATOM     21  P   UNL     1      -2.099   2.771   0.653  0.00  0.00    +0.485 P 
ATOM     22  O   UNL     1      -2.799   3.635  -0.355  0.00  0.00    -0.227 OA
BRANCH  21  23
ATOM     23  O   UNL     1      -2.498   3.080   2.190  0.00  0.00    -0.302 OA
ATOM     24  H   UNL     1      -2.007   2.485   2.778  0.00  0.00    +0.222 HD
ENDBRANCH  21  23
BRANCH  21  25
ATOM     25  O   UNL     1      -2.381   1.188   0.499  0.00  0.00    -0.176 OA
BRANCH  25  26
ATOM     26  P   UNL     1      -3.759   0.345   0.570  0.00  0.00    +0.539 P 
ATOM     27  O   UNL     1      -4.781   0.737  -0.457  0.00  0.00    -0.215 OA
BRANCH  26  28
ATOM     28  O   UNL     1      -4.216   0.537   2.110  0.00  0.00    -0.293 OA
ATOM     29  H   UNL     1      -3.496   0.259   2.698  0.00  0.00    +0.223 HD
ENDBRANCH  26  28
BRANCH  26  30
ATOM     30  O   UNL     1      -3.251  -1.185   0.499  0.00  0.00    -0.402 OA
BRANCH  30  31
ATOM     31  C   UNL     1      -2.631  -1.761  -0.575  0.00  0.00    +0.149 C 
ATOM     32  C   UNL     1      -2.398  -1.009  -1.723  0.00  0.00    +0.037 C 
ATOM     33  C   UNL     1      -2.239  -3.094  -0.513  0.00  0.00    +0.037 C 
ATOM     34  C   UNL     1      -1.767  -1.597  -2.819  0.00  0.00    +0.003 C 
ATOM     35  C   UNL     1      -1.607  -3.682  -1.610  0.00  0.00    +0.003 C 
ATOM     36  C   UNL     1      -1.372  -2.933  -2.763  0.00  0.00    +0.000 C 
ENDBRANCH  30  31
ENDBRANCH  26  30
ENDBRANCH  25  26
ENDBRANCH  21  25
ENDBRANCH  20  21
ENDBRANCH  19  20
ENDBRANCH   4  19
TORSDOF 12
