107
  -OEChem-10051719473D

 21 21  0     0  0  0  0  0  0999 V2000
    3.9228    0.0762   -1.1419 O   0  0  0  0  0  0  0  0  0  0  0  0
    3.4392   -0.0845    1.0716 O   0  0  0  0  0  0  0  0  0  0  0  0
    0.6783   -0.0124    0.6990 C   0  0  0  0  0  0  0  0  0  0  0  0
   -0.7683   -0.0068    0.3358 C   0  0  0  0  0  0  0  0  0  0  0  0
    1.6184    0.0362   -0.5112 C   0  0  0  0  0  0  0  0  0  0  0  0
   -1.4509    1.2031    0.2092 C   0  0  0  0  0  0  0  0  0  0  0  0
   -1.4387   -1.2114    0.1224 C   0  0  0  0  0  0  0  0  0  0  0  0
   -2.8036    1.2087   -0.1307 C   0  0  0  0  0  0  0  0  0  0  0  0
   -2.7915   -1.2058   -0.2175 C   0  0  0  0  0  0  0  0  0  0  0  0
    3.0682   -0.0076   -0.0927 C   0  0  0  0  0  0  0  0  0  0  0  0
   -3.4739    0.0042   -0.3441 C   0  0  0  0  0  0  0  0  0  0  0  0
    0.8911    0.8344    1.3657 H   0  0  0  0  0  0  0  0  0  0  0  0
    0.8968   -0.9044    1.3018 H   0  0  0  0  0  0  0  0  0  0  0  0
    1.4286   -0.8187   -1.1701 H   0  0  0  0  0  0  0  0  0  0  0  0
    1.4516    0.9596   -1.0775 H   0  0  0  0  0  0  0  0  0  0  0  0
   -0.9394    2.1484    0.3707 H   0  0  0  0  0  0  0  0  0  0  0  0
   -0.9178   -2.1606    0.2158 H   0  0  0  0  0  0  0  0  0  0  0  0
   -3.3350    2.1507   -0.2298 H   0  0  0  0  0  0  0  0  0  0  0  0
   -3.3135   -2.1435   -0.3843 H   0  0  0  0  0  0  0  0  0  0  0  0
   -4.5271    0.0085   -0.6090 H   0  0  0  0  0  0  0  0  0  0  0  0
    4.8601    0.0594   -0.8530 H   0  0  0  0  0  0  0  0  0  0  0  0
  1 10  1  0  0  0  0
  1 21  1  0  0  0  0
  2 10  2  0  0  0  0
  3  4  1  0  0  0  0
  3  5  1  0  0  0  0
  3 12  1  0  0  0  0
  3 13  1  0  0  0  0
  4  6  2  0  0  0  0
  4  7  1  0  0  0  0
  5 10  1  0  0  0  0
  5 14  1  0  0  0  0
  5 15  1  0  0  0  0
  6  8  1  0  0  0  0
  6 16  1  0  0  0  0
  7  9  2  0  0  0  0
  7 17  1  0  0  0  0
  8 11  2  0  0  0  0
  8 18  1  0  0  0  0
  9 11  1  0  0  0  0
  9 19  1  0  0  0  0
 11 20  1  0  0  0  0
M  END
> <DATABASE_ID>
DB02024

> <DATABASE_NAME>
drugbank

> <ORIGINAL_SOURCE>
PUBCHEM

> <ORIGINAL_SOURCE_URL>
https://pubchem.ncbi.nlm.nih.gov/rest/pug/compound/inchikey/XMIIGOLPHOKFCH-UHFFFAOYSA-N/SDF?record_type=3d

> <SMILES>
OC(=O)CCC1=CC=CC=C1

> <INCHI_IDENTIFIER>
InChI=1S/C9H10O2/c10-9(11)7-6-8-4-2-1-3-5-8/h1-5H,6-7H2,(H,10,11)

> <INCHI_KEY>
XMIIGOLPHOKFCH-UHFFFAOYSA-N

> <FORMULA>
C9H10O2

> <MOLECULAR_WEIGHT>
150.1745

> <EXACT_MASS>
150.068079564

> <JCHEM_ACCEPTOR_COUNT>
2

> <JCHEM_ATOM_COUNT>
21

> <JCHEM_AVERAGE_POLARIZABILITY>
15.943854511513758

> <JCHEM_BIOAVAILABILITY>
1

> <JCHEM_DONOR_COUNT>
1

> <JCHEM_FORMAL_CHARGE>
0

> <JCHEM_GHOSE_FILTER>
0

> <JCHEM_IUPAC>
3-phenylpropanoic acid

> <ALOGPS_LOGP>
1.84

> <JCHEM_LOGP>
2.0555627703333332

> <ALOGPS_LOGS>
-1.95

> <JCHEM_MDDR_LIKE_RULE>
0

> <JCHEM_NUMBER_OF_RINGS>
1

> <JCHEM_PHYSIOLOGICAL_CHARGE>
-1

> <JCHEM_PKA_STRONGEST_ACIDIC>
4.728925328917475

> <JCHEM_POLAR_SURFACE_AREA>
37.3

> <JCHEM_REFRACTIVITY>
41.9666

> <JCHEM_ROTATABLE_BOND_COUNT>
3

> <JCHEM_RULE_OF_FIVE>
1

> <ALOGPS_SOLUBILITY>
1.70e+00 g/l

> <JCHEM_TRADITIONAL_IUPAC>
3-phenylpropionic acid

> <JCHEM_VEBER_RULE>
1

> <DRUGBANK_ID>
DB02024

> <SECONDARY_ACCESSION_NUMBERS>
EXPT01708

> <DRUG_GROUPS>
experimental

> <GENERIC_NAME>
3-phenylpropionic acid

> <SYNONYMS>
3-phenyl-propionic acid; 3-phenylpropanoic acid; 3-phenylpropionic acid; 3-Phenylpropions√§ure; 3PP; beta-Phenylpropionic acid; Hydrocinnamic acid; Phenylpropanoate

$$$$
