REMARK  Name = 12546061
REMARK  5 active torsions:
REMARK  status: ('A' for Active; 'I' for Inactive)
REMARK    1  A    between atoms: N_1  and  C_4
REMARK    2  A    between atoms: N_1  and  C_10
REMARK    3  A    between atoms: C_10  and  C_11
REMARK    4  A    between atoms: C_11  and  C_12
REMARK    5  A    between atoms: C_12  and  S_13
REMARK                            x       y       z     vdW  Elec       q    Type
REMARK                         _______ _______ _______ _____ _____    ______ ____
ROOT
ATOM      1  N   UNL     1       0.875   0.773  -0.556  0.00  0.00    +0.385 N 
ATOM      2  H   UNL     1       0.710  -0.214  -0.356  0.00  0.00    -0.084 HD
ATOM      3  H   UNL     1       0.634   1.026  -1.514  0.00  0.00    -0.084 HD
ENDROOT
BRANCH   1   4
ATOM      4  C   UNL     1       2.331   1.047  -0.390  0.00  0.00    -0.062 C 
ATOM      5  C   UNL     1       2.729   0.798   1.065  0.00  0.00    -0.021 C 
ATOM      6  C   UNL     1       3.123   0.174  -1.365  0.00  0.00    -0.021 C 
ATOM      7  C   UNL     1       2.734  -0.684   1.440  0.00  0.00    -0.002 C 
ATOM      8  C   UNL     1       3.124  -1.306  -0.979  0.00  0.00    -0.002 C 
ATOM      9  C   UNL     1       3.568  -1.510   0.466  0.00  0.00    -0.000 C 
ENDBRANCH   1   4
BRANCH   1  10
ATOM     10  C   UNL     1       0.001   1.581   0.333  0.00  0.00    -0.080 C 
BRANCH  10  11
ATOM     11  C   UNL     1      -1.467   1.284   0.056  0.00  0.00    +0.003 C 
BRANCH  11  12
ATOM     12  C   UNL     1      -1.836  -0.178   0.267  0.00  0.00    +0.156 C 
BRANCH  12  13
ATOM     13  S   UNL     1      -3.553  -0.455  -0.041  0.00  0.00    +0.022 S 
ATOM     14  O   UNL     1      -3.710  -0.052  -1.437  0.00  0.00    -0.069 OA
ATOM     15  O   UNL     1      -3.709  -1.887   0.209  0.00  0.00    -0.069 OA
ATOM     16  O   UNL     1      -4.210   0.417   0.931  0.00  0.00    -0.069 OA
ENDBRANCH  12  13
ENDBRANCH  11  12
ENDBRANCH  10  11
ENDBRANCH   1  10
TORSDOF 5
