REMARK  Name = 445756
REMARK  6 active torsions:
REMARK  status: ('A' for Active; 'I' for Inactive)
REMARK    1  A    between atoms: C_3  and  C_11
REMARK    2  A    between atoms: C_6  and  C_22
REMARK    3  A    between atoms: C_11  and  N_12
REMARK    4  A    between atoms: C_22  and  N_23
REMARK    5  A    between atoms: N_23  and  C_25
REMARK    6  A    between atoms: C_30  and  C_33
REMARK                            x       y       z     vdW  Elec       q    Type
REMARK                         _______ _______ _______ _____ _____    ______ ____
ROOT
ATOM      1  N   UNL     1       0.704   1.787   0.632  0.00  0.00    -0.261 N 
ATOM      2  N   UNL     1       0.483   0.896  -1.392  0.00  0.00    -0.392 NA
ATOM      3  C   UNL     1      -3.154   1.372  -0.674  0.00  0.00    -0.017 C 
ATOM      4  C   UNL     1      -0.646   1.741   0.398  0.00  0.00    +0.079 C 
ATOM      5  C   UNL     1      -0.758   1.181  -0.872  0.00  0.00    +0.128 C 
ATOM      6  C   UNL     1       1.336   1.271  -0.465  0.00  0.00    +0.183 C 
ATOM      7  C   UNL     1      -2.035   0.990  -1.426  0.00  0.00    +0.084 C 
ATOM      8  C   UNL     1      -3.009   1.932   0.597  0.00  0.00    -0.005 C 
ATOM      9  C   UNL     1      -1.746   2.130   1.164  0.00  0.00    +0.017 C 
ATOM     10  C   UNL     1       1.342   2.292   1.827  0.00  0.00    +0.120 C 
ENDROOT
BRANCH   3  11
ATOM     11  C   UNL     1      -4.521   1.179  -1.244  0.00  0.00    +0.120 C 
BRANCH  11  12
ATOM     12  N   UNL     1      -5.074  -0.134  -0.898  0.00  0.00    -0.260 N 
ATOM     13  N   UNL     1      -5.540  -2.282  -1.056  0.00  0.00    -0.394 NA
ATOM     14  C   UNL     1      -5.815  -0.406   0.209  0.00  0.00    +0.079 C 
ATOM     15  C   UNL     1      -4.930  -1.267  -1.627  0.00  0.00    +0.164 C 
ATOM     16  C   UNL     1      -6.098  -1.764   0.090  0.00  0.00    +0.128 C 
ATOM     17  C   UNL     1      -6.255   0.378   1.276  0.00  0.00    +0.017 C 
ATOM     18  C   UNL     1      -4.174  -1.313  -2.895  0.00  0.00    +0.084 C 
ATOM     19  C   UNL     1      -6.864  -2.393   1.086  0.00  0.00    +0.086 C 
ATOM     20  C   UNL     1      -7.017  -0.265   2.257  0.00  0.00    -0.003 C 
ATOM     21  C   UNL     1      -7.317  -1.626   2.166  0.00  0.00    -0.019 C 
ENDBRANCH  11  12
ENDBRANCH   3  11
BRANCH   6  22
ATOM     22  C   UNL     1       2.807   1.169  -0.549  0.00  0.00    +0.164 C 
BRANCH  22  23
ATOM     23  N   UNL     1       3.372  -0.079  -0.048  0.00  0.00    -0.326 N 
ATOM     24  H   UNL     1       2.754  -0.785   0.252  0.00  0.00    +0.147 HD
BRANCH  23  25
ATOM     25  C   UNL     1       4.727  -0.318   0.028  0.00  0.00    +0.045 C 
ATOM     26  C   UNL     1       5.664   0.653  -0.386  0.00  0.00    +0.014 C 
ATOM     27  C   UNL     1       5.225  -1.543   0.520  0.00  0.00    +0.014 C 
ATOM     28  C   UNL     1       7.035   0.410  -0.311  0.00  0.00    +0.004 C 
ATOM     29  C   UNL     1       6.596  -1.786   0.595  0.00  0.00    +0.004 C 
ATOM     30  C   UNL     1       7.501  -0.810   0.179  0.00  0.00    +0.031 C 
BRANCH  30  33
ATOM     31  N   UNL     1       9.860  -0.109  -0.152  0.00  0.00    -0.343 N 
ATOM     32  N   UNL     1       9.370  -2.222   0.717  0.00  0.00    -0.285 NA
ATOM     33  C   UNL     1       8.931  -1.064   0.256  0.00  0.00    +0.117 C 
ATOM     34  H   UNL     1      10.824  -0.302  -0.091  0.00  0.00    +0.144 HD
ATOM     35  H   UNL     1       9.553   0.759  -0.501  0.00  0.00    +0.144 HD
ATOM     36  H   UNL     1      10.338  -2.396   0.770  0.00  0.00    +0.188 HD
ENDBRANCH  30  33
ENDBRANCH  23  25
ENDBRANCH  22  23
ENDBRANCH   6  22
TORSDOF 6
