REMARK  Name = 439168
REMARK  7 active torsions:
REMARK  status: ('A' for Active; 'I' for Inactive)
REMARK    1  A    between atoms: O_1  and  P_2
REMARK    2  A    between atoms: O_1  and  C_8
REMARK    3  A    between atoms: P_2  and  O_4
REMARK    4  A    between atoms: P_2  and  O_6
REMARK    5  A    between atoms: C_8  and  C_9
REMARK    6  A    between atoms: C_9  and  O_10
REMARK    7  A    between atoms: C_9  and  C_13
REMARK                            x       y       z     vdW  Elec       q    Type
REMARK                         _______ _______ _______ _____ _____    ______ ____
ROOT
ATOM      1  O   UNL     1      -0.337  -0.087   0.243  0.00  0.00    -0.270 OA
ENDROOT
BRANCH   1   2
ATOM      2  P   UNL     1      -1.946  -0.207   0.135  0.00  0.00    +0.473 P 
ATOM      3  O   UNL     1      -2.582  -1.132   1.131  0.00  0.00    -0.227 OA
BRANCH   2   4
ATOM      4  O   UNL     1      -2.200  -0.581  -1.417  0.00  0.00    -0.303 OA
ATOM      5  H   UNL     1      -1.754   0.068  -1.984  0.00  0.00    +0.222 HD
ENDBRANCH   2   4
BRANCH   2   6
ATOM      6  O   UNL     1      -2.427   1.334   0.230  0.00  0.00    -0.303 OA
ATOM      7  H   UNL     1      -1.969   1.858  -0.446  0.00  0.00    +0.222 HD
ENDBRANCH   2   6
ENDBRANCH   1   2
BRANCH   1   8
ATOM      8  C   UNL     1       0.339   0.770  -0.666  0.00  0.00    +0.191 C 
BRANCH   8   9
ATOM      9  C   UNL     1       1.835   0.734  -0.392  0.00  0.00    +0.206 C 
BRANCH   9  10
ATOM     10  O   UNL     1       2.066   1.169   0.935  0.00  0.00    -0.375 OA
ATOM     11  H   UNL     1       1.729   2.072   1.043  0.00  0.00    +0.211 HD
ENDBRANCH   9  10
BRANCH   9  13
ATOM     12  O   UNL     1       2.887  -1.323   0.352  0.00  0.00    -0.286 OA
ATOM     13  C   UNL     1       2.365  -0.676  -0.550  0.00  0.00    +0.239 C 
ENDBRANCH   9  13
ENDBRANCH   8   9
ENDBRANCH   1   8
TORSDOF 7
