REMARK  Name = 446094
REMARK  7 active torsions:
REMARK  status: ('A' for Active; 'I' for Inactive)
REMARK    1  A    between atoms: C_1  and  O_2
REMARK    2  A    between atoms: C_1  and  C_4
REMARK    3  A    between atoms: C_1  and  C_10
REMARK    4  A    between atoms: C_4  and  O_5
REMARK    5  A    between atoms: C_4  and  C_7
REMARK    6  A    between atoms: C_7  and  S_8
REMARK    7  A    between atoms: C_10  and  S_11
REMARK                            x       y       z     vdW  Elec       q    Type
REMARK                         _______ _______ _______ _____ _____    ______ ____
ROOT
ATOM      1  C   UNL     1       0.801  -0.528  -0.515  0.00  0.00    +0.148 C 
ENDROOT
BRANCH   1   2
ATOM      2  O   UNL     1       1.580  -1.496   0.185  0.00  0.00    -0.381 OA
ATOM      3  H   UNL     1       1.052  -2.297   0.325  0.00  0.00    +0.210 HD
ENDBRANCH   1   2
BRANCH   1   4
ATOM      4  C   UNL     1      -0.543  -0.289   0.202  0.00  0.00    +0.148 C 
BRANCH   4   5
ATOM      5  O   UNL     1      -1.199  -1.549   0.346  0.00  0.00    -0.381 OA
ATOM      6  H   UNL     1      -0.629  -2.155   0.845  0.00  0.00    +0.210 HD
ENDBRANCH   4   5
BRANCH   4   7
ATOM      7  C   UNL     1      -1.450   0.664  -0.588  0.00  0.00    +0.085 C 
BRANCH   7   8
ATOM      8  S   UNL     1      -3.037   0.933   0.266  0.00  0.00    -0.165 S 
ATOM      9  H   UNL     1      -3.808   1.781  -0.466  0.00  0.00    +0.102 HD
ENDBRANCH   7   8
ENDBRANCH   4   7
ENDBRANCH   1   4
BRANCH   1  10
ATOM     10  C   UNL     1       1.662   0.727  -0.721  0.00  0.00    +0.085 C 
BRANCH  10  11
ATOM     11  S   UNL     1       2.186   1.538   0.824  0.00  0.00    -0.165 S 
ATOM     12  H   UNL     1       2.938   2.632   0.529  0.00  0.00    +0.102 HD
ENDBRANCH  10  11
ENDBRANCH   1  10
TORSDOF 7
