REMARK  Name = 439533
REMARK  6 active torsions:
REMARK  status: ('A' for Active; 'I' for Inactive)
REMARK    1  A    between atoms: C_3  and  C_12
REMARK    2  A    between atoms: C_4  and  O_22
REMARK    3  A    between atoms: C_8  and  O_24
REMARK    4  A    between atoms: C_11  and  O_26
REMARK    5  A    between atoms: C_15  and  O_18
REMARK    6  A    between atoms: C_17  and  O_20
REMARK                            x       y       z     vdW  Elec       q    Type
REMARK                         _______ _______ _______ _____ _____    ______ ____
ROOT
ATOM      1  O   UNL     1       0.279  -0.874   0.093  0.00  0.00    -0.471 OA
ATOM      2  O   UNL     1       2.040   2.823  -0.180  0.00  0.00    -0.288 OA
ATOM      3  C   UNL     1      -0.404   0.311   0.531  0.00  0.00    +0.222 C 
ATOM      4  C   UNL     1       0.007   1.527  -0.300  0.00  0.00    +0.217 C 
ATOM      5  C   UNL     1       1.502   1.722  -0.170  0.00  0.00    +0.209 C 
ATOM      6  C   UNL     1       2.300   0.484  -0.065  0.00  0.00    +0.105 C 
ATOM      7  C   UNL     1       1.641  -0.743   0.044  0.00  0.00    +0.148 C 
ATOM      8  C   UNL     1       3.696   0.536  -0.103  0.00  0.00    +0.142 C 
ATOM      9  C   UNL     1       2.383  -1.925   0.079  0.00  0.00    +0.074 C 
ATOM     10  C   UNL     1       4.431  -0.647  -0.049  0.00  0.00    +0.073 C 
ATOM     11  C   UNL     1       3.777  -1.876   0.037  0.00  0.00    +0.140 C 
ENDROOT
BRANCH   3  12
ATOM     12  C   UNL     1      -1.892   0.036   0.428  0.00  0.00    +0.023 C 
ATOM     13  C   UNL     1      -2.468  -0.207  -0.817  0.00  0.00    +0.039 C 
ATOM     14  C   UNL     1      -2.679   0.028   1.578  0.00  0.00    +0.003 C 
ATOM     15  C   UNL     1      -3.837  -0.460  -0.913  0.00  0.00    +0.167 C 
ATOM     16  C   UNL     1      -4.047  -0.225   1.483  0.00  0.00    +0.040 C 
ATOM     17  C   UNL     1      -4.626  -0.468   0.237  0.00  0.00    +0.167 C 
BRANCH  15  18
ATOM     18  O   UNL     1      -4.391  -0.697  -2.134  0.00  0.00    -0.503 OA
ATOM     19  H   UNL     1      -3.854  -0.689  -2.902  0.00  0.00    +0.292 HD
ENDBRANCH  15  18
BRANCH  17  20
ATOM     20  O   UNL     1      -5.963  -0.715   0.157  0.00  0.00    -0.503 OA
ATOM     21  H   UNL     1      -6.360  -0.879  -0.676  0.00  0.00    +0.292 HD
ENDBRANCH  17  20
ENDBRANCH   3  12
BRANCH   4  22
ATOM     22  O   UNL     1      -0.634   2.692   0.189  0.00  0.00    -0.374 OA
ATOM     23  H   UNL     1      -1.596   2.588   0.114  0.00  0.00    +0.211 HD
ENDBRANCH   4  22
BRANCH   8  24
ATOM     24  O   UNL     1       4.386   1.706  -0.206  0.00  0.00    -0.505 OA
ATOM     25  H   UNL     1       3.925   2.521  -0.245  0.00  0.00    +0.292 HD
ENDBRANCH   8  24
BRANCH  11  26
ATOM     26  O   UNL     1       4.499  -3.029   0.082  0.00  0.00    -0.505 OA
ATOM     27  H   UNL     1       4.060  -3.855   0.140  0.00  0.00    +0.292 HD
ENDBRANCH  11  26
TORSDOF 6
