REMARK  Name = 5287541
REMARK  3 active torsions:
REMARK  status: ('A' for Active; 'I' for Inactive)
REMARK    1  A    between atoms: C_16  and  O_17
REMARK    2  A    between atoms: O_17  and  S_18
REMARK    3  A    between atoms: S_18  and  N_21
REMARK                            x       y       z     vdW  Elec       q    Type
REMARK                         _______ _______ _______ _____ _____    ______ ____
ROOT
ATOM      1  O   UNL     1      -0.247   1.737   0.108  0.00  0.00    -0.421 OA
ATOM      2  O   UNL     1      -2.057   3.099  -0.004  0.00  0.00    -0.245 OA
ATOM      3  C   UNL     1      -3.785  -1.959  -0.561  0.00  0.00    +0.005 C 
ATOM      4  C   UNL     1      -2.904  -1.652   0.652  0.00  0.00    +0.026 C 
ATOM      5  C   UNL     1      -5.020  -1.063  -0.659  0.00  0.00    +0.001 C 
ATOM      6  C   UNL     1      -1.983  -0.471   0.420  0.00  0.00    -0.017 A 
ATOM      7  C   UNL     1      -4.734   0.431  -0.816  0.00  0.00    +0.005 C 
ATOM      8  C   UNL     1      -3.980   1.051   0.364  0.00  0.00    +0.033 C 
ATOM      9  C   UNL     1      -2.491   0.776   0.316  0.00  0.00    +0.050 A 
ATOM     10  C   UNL     1      -0.526  -0.677   0.293  0.00  0.00    +0.031 A 
ATOM     11  C   UNL     1       0.293   0.442   0.159  0.00  0.00    +0.151 A 
ATOM     12  C   UNL     1      -1.613   1.962   0.123  0.00  0.00    +0.341 A 
ATOM     13  C   UNL     1       0.110  -1.928   0.285  0.00  0.00    +0.006 C 
ATOM     14  C   UNL     1       1.684   0.354   0.047  0.00  0.00    +0.077 C 
ATOM     15  C   UNL     1       1.503  -2.036   0.172  0.00  0.00    +0.040 C 
ATOM     16  C   UNL     1       2.290  -0.895   0.057  0.00  0.00    +0.176 C 
ENDROOT
BRANCH  16  17
ATOM     17  O   UNL     1       3.641  -1.003  -0.053  0.00  0.00    -0.349 OA
BRANCH  17  18
ATOM     18  S   UNL     1       4.645   0.288  -0.192  0.00  0.00    +0.086 S 
ATOM     19  O   UNL     1       4.595   1.040   1.048  0.00  0.00    -0.046 OA
ATOM     20  O   UNL     1       4.382   0.935  -1.465  0.00  0.00    -0.046 OA
BRANCH  18  21
ATOM     21  N   UNL     1       6.199  -0.432  -0.294  0.00  0.00    -0.194 NA
ATOM     22  H   UNL     1       6.417  -0.898   0.588  0.00  0.00    +0.145 HD
ATOM     23  H   UNL     1       6.897   0.289  -0.479  0.00  0.00    +0.145 HD
ENDBRANCH  18  21
ENDBRANCH  17  18
ENDBRANCH  16  17
TORSDOF 3
