REMARK  Name = 5288101
REMARK  5 active torsions:
REMARK  status: ('A' for Active; 'I' for Inactive)
REMARK    1  A    between atoms: C_7  and  N_12
REMARK    2  A    between atoms: C_8  and  C_20
REMARK    3  A    between atoms: C_8  and  P_26
REMARK    4  A    between atoms: P_26  and  O_28
REMARK    5  A    between atoms: P_26  and  O_30
REMARK                            x       y       z     vdW  Elec       q    Type
REMARK                         _______ _______ _______ _____ _____    ______ ____
ROOT
ATOM      1  O   UNL     1       1.062  -2.326   0.751  0.00  0.00    -0.335 OA
ATOM      2  O   UNL     1      -2.079  -1.333  -0.774  0.00  0.00    -0.322 OA
ATOM      3  O   UNL     1      -2.105  -0.708   1.553  0.00  0.00    -0.320 OA
ATOM      4  C   UNL     1      -0.808  -1.935  -0.635  0.00  0.00    +0.152 C 
ATOM      5  C   UNL     1      -0.365  -2.187   0.793  0.00  0.00    +0.174 C 
ATOM      6  C   UNL     1       0.356  -1.147  -1.196  0.00  0.00    +0.084 C 
ATOM      7  C   UNL     1       1.535  -1.821  -0.510  0.00  0.00    +0.202 C 
ATOM      8  C   UNL     1      -2.437  -0.362   0.208  0.00  0.00    +0.304 C 
ATOM      9  C   UNL     1      -0.733  -1.036   1.712  0.00  0.00    +0.177 C 
ENDROOT
BRANCH   7  12
ATOM     10  O   UNL     1       3.755  -1.471  -2.260  0.00  0.00    -0.252 OA
ATOM     11  O   UNL     1       5.671   1.650   0.521  0.00  0.00    -0.270 OA
ATOM     12  N   UNL     1       2.635  -0.929  -0.284  0.00  0.00    -0.219 N 
ATOM     13  N   UNL     1       4.699   0.084  -0.864  0.00  0.00    -0.236 N 
ATOM     14  C   UNL     1       2.641  -0.165   0.875  0.00  0.00    +0.071 C 
ATOM     15  C   UNL     1       3.694  -0.824  -1.212  0.00  0.00    +0.315 C 
ATOM     16  C   UNL     1       3.605   0.704   1.206  0.00  0.00    +0.047 C 
ATOM     17  C   UNL     1       4.754   0.870   0.277  0.00  0.00    +0.250 C 
ATOM     18  C   UNL     1       3.591   1.517   2.460  0.00  0.00    +0.037 C 
ATOM     19  H   UNL     1       5.449   0.174  -1.496  0.00  0.00    +0.159 HD
ENDBRANCH   7  12
BRANCH   8  20
ATOM     20  C   UNL     1      -2.135   1.073  -0.190  0.00  0.00    +0.040 C 
ATOM     21  C   UNL     1      -2.179   2.089   0.767  0.00  0.00    +0.001 C 
ATOM     22  C   UNL     1      -1.812   1.379  -1.513  0.00  0.00    +0.001 C 
ATOM     23  C   UNL     1      -1.901   3.406   0.402  0.00  0.00    -0.000 C 
ATOM     24  C   UNL     1      -1.534   2.696  -1.878  0.00  0.00    -0.000 C 
ATOM     25  C   UNL     1      -1.579   3.709  -0.921  0.00  0.00    -0.000 C 
ENDBRANCH   8  20
BRANCH   8  26
ATOM     26  P   UNL     1      -4.259  -0.602   0.256  0.00  0.00    +0.391 P 
ATOM     27  O   UNL     1      -4.971   0.287   1.226  0.00  0.00    -0.253 OA
BRANCH  26  28
ATOM     28  O   UNL     1      -4.412  -2.186   0.521  0.00  0.00    -0.320 OA
ATOM     29  H   UNL     1      -5.352  -2.418   0.564  0.00  0.00    +0.220 HD
ENDBRANCH  26  28
BRANCH  26  30
ATOM     30  O   UNL     1      -4.690  -0.431  -1.290  0.00  0.00    -0.320 OA
ATOM     31  H   UNL     1      -5.650  -0.541  -1.372  0.00  0.00    +0.220 HD
ENDBRANCH  26  30
ENDBRANCH   8  26
TORSDOF 5
