REMARK  Name = 117765
REMARK  8 active torsions:
REMARK  status: ('A' for Active; 'I' for Inactive)
REMARK    1  A    between atoms: N_1  and  C_3
REMARK    2  A    between atoms: N_1  and  C_9
REMARK    3  A    between atoms: N_1  and  C_14
REMARK    4  A    between atoms: C_3  and  C_6
REMARK    5  A    between atoms: C_9  and  C_11
REMARK    6  A    between atoms: C_11  and  O_12
REMARK    7  A    between atoms: C_14  and  C_16
REMARK    8  A    between atoms: C_16  and  O_17
REMARK                            x       y       z     vdW  Elec       q    Type
REMARK                         _______ _______ _______ _____ _____    ______ ____
ROOT
ATOM      1  N   UNL     1      -0.002   0.010   0.005  0.00  0.00    +0.407 N 
ATOM      2  H   UNL     1       0.005   0.027   1.025  0.00  0.00    -0.077 HD
ENDROOT
BRANCH   1   3
ATOM      3  C   UNL     1      -1.391  -0.066  -0.448  0.00  0.00    +0.011 C 
BRANCH   3   6
ATOM      4  O   UNL     1      -1.833   1.684   1.155  0.00  0.00    -0.278 OA
ATOM      5  N   UNL     1      -3.173   1.540  -0.706  0.00  0.00    -0.330 N 
ATOM      6  C   UNL     1      -2.129   1.135   0.096  0.00  0.00    +0.198 C 
ATOM      7  H   UNL     1      -3.722   2.315  -0.445  0.00  0.00    +0.145 HD
ATOM      8  H   UNL     1      -3.371   1.055  -1.539  0.00  0.00    +0.145 HD
ENDBRANCH   3   6
ENDBRANCH   1   3
BRANCH   1   9
ATOM      9  C   UNL     1       0.628   1.236  -0.482  0.00  0.00    +0.036 C 
BRANCH   9  11
ATOM     10  O   UNL     1       2.365   1.270   1.189  0.00  0.00    -0.253 OA
ATOM     11  C   UNL     1       2.050   1.273   0.005  0.00  0.00    +0.293 C 
BRANCH  11  12
ATOM     12  O   UNL     1       2.954   1.353  -1.004  0.00  0.00    -0.482 OA
ATOM     13  H   UNL     1       2.663   1.352  -1.895  0.00  0.00    +0.295 HD
ENDBRANCH  11  12
ENDBRANCH   9  11
ENDBRANCH   1   9
BRANCH   1  14
ATOM     14  C   UNL     1       0.747  -1.163  -0.444  0.00  0.00    +0.036 C 
BRANCH  14  16
ATOM     15  O   UNL     1      -0.019  -2.605   1.329  0.00  0.00    -0.253 OA
ATOM     16  C   UNL     1       0.102  -2.394   0.129  0.00  0.00    +0.293 C 
BRANCH  16  17
ATOM     17  O   UNL     1      -0.299  -3.274  -0.824  0.00  0.00    -0.482 OA
ATOM     18  H   UNL     1      -0.185  -3.067  -1.730  0.00  0.00    +0.295 HD
ENDBRANCH  16  17
ENDBRANCH  14  16
ENDBRANCH   1  14
TORSDOF 8
