REMARK  Name = 17753851
REMARK  6 active torsions:
REMARK  status: ('A' for Active; 'I' for Inactive)
REMARK    1  A    between atoms: C_2  and  C_9
REMARK    2  A    between atoms: C_3  and  C_22
REMARK    3  A    between atoms: C_9  and  C_10
REMARK    4  A    between atoms: C_15  and  C_18
REMARK    5  A    between atoms: C_22  and  C_23
REMARK    6  A    between atoms: C_28  and  C_31
REMARK                            x       y       z     vdW  Elec       q    Type
REMARK                         _______ _______ _______ _____ _____    ______ ____
ROOT
ATOM      1  O   UNL     1       0.829   1.750   2.133  0.00  0.00    -0.296 OA
ATOM      2  C   UNL     1       1.772   2.479   0.037  0.00  0.00    +0.062 C 
ATOM      3  C   UNL     1      -0.709   1.674   0.308  0.00  0.00    +0.062 C 
ATOM      4  C   UNL     1       1.649   3.999  -0.096  0.00  0.00    +0.008 C 
ATOM      5  C   UNL     1      -1.034   2.482  -0.951  0.00  0.00    +0.008 C 
ATOM      6  C   UNL     1       0.585   4.453  -1.095  0.00  0.00    +0.000 C 
ATOM      7  C   UNL     1      -0.838   3.990  -0.788  0.00  0.00    +0.000 C 
ATOM      8  C   UNL     1       0.651   1.961   0.930  0.00  0.00    +0.150 C 
ENDROOT
BRANCH   2   9
ATOM      9  C   UNL     1       3.130   2.103   0.635  0.00  0.00    +0.034 C 
BRANCH   9  10
ATOM     10  C   UNL     1       3.470   0.664   0.367  0.00  0.00    -0.022 C 
ATOM     11  C   UNL     1       4.169   0.316  -0.788  0.00  0.00    -0.004 C 
ATOM     12  C   UNL     1       3.086  -0.324   1.274  0.00  0.00    -0.004 C 
ATOM     13  C   UNL     1       4.484  -1.019  -1.038  0.00  0.00    +0.002 C 
ATOM     14  C   UNL     1       3.401  -1.660   1.025  0.00  0.00    +0.002 C 
ATOM     15  C   UNL     1       4.100  -2.007  -0.131  0.00  0.00    +0.031 C 
BRANCH  15  18
ATOM     16  N   UNL     1       5.126  -3.779  -1.537  0.00  0.00    -0.343 N 
ATOM     17  N   UNL     1       4.060  -4.335   0.467  0.00  0.00    -0.285 NA
ATOM     18  C   UNL     1       4.429  -3.400  -0.391  0.00  0.00    +0.117 C 
ATOM     19  H   UNL     1       5.339  -4.727  -1.693  0.00  0.00    +0.144 HD
ATOM     20  H   UNL     1       5.407  -3.097  -2.190  0.00  0.00    +0.144 HD
ATOM     21  H   UNL     1       4.282  -5.278   0.293  0.00  0.00    +0.188 HD
ENDBRANCH  15  18
ENDBRANCH   9  10
ENDBRANCH   2   9
BRANCH   3  22
ATOM     22  C   UNL     1      -0.810   0.177   0.028  0.00  0.00    +0.034 C 
BRANCH  22  23
ATOM     23  C   UNL     1      -2.241  -0.286  -0.001  0.00  0.00    -0.022 C 
ATOM     24  C   UNL     1      -2.854  -0.727   1.172  0.00  0.00    -0.004 C 
ATOM     25  C   UNL     1      -2.954  -0.276  -1.200  0.00  0.00    -0.004 C 
ATOM     26  C   UNL     1      -4.181  -1.158   1.145  0.00  0.00    +0.002 C 
ATOM     27  C   UNL     1      -4.280  -0.706  -1.226  0.00  0.00    +0.002 C 
ATOM     28  C   UNL     1      -4.894  -1.147  -0.054  0.00  0.00    +0.031 C 
BRANCH  28  31
ATOM     29  N   UNL     1      -6.917  -2.042   1.074  0.00  0.00    -0.343 N 
ATOM     30  N   UNL     1      -6.949  -1.589  -1.218  0.00  0.00    -0.285 NA
ATOM     31  C   UNL     1      -6.277  -1.596  -0.081  0.00  0.00    +0.117 C 
ATOM     32  H   UNL     1      -7.854  -2.341   1.033  0.00  0.00    +0.144 HD
ATOM     33  H   UNL     1      -6.433  -2.058   1.931  0.00  0.00    +0.144 HD
ATOM     34  H   UNL     1      -7.886  -1.892  -1.239  0.00  0.00    +0.188 HD
ENDBRANCH  28  31
ENDBRANCH  22  23
ENDBRANCH   3  22
TORSDOF 6
