REMARK  Name = 445995
REMARK  11 active torsions:
REMARK  status: ('A' for Active; 'I' for Inactive)
REMARK    1  A    between atoms: P_1  and  O_3
REMARK    2  A    between atoms: P_1  and  O_5
REMARK    3  A    between atoms: P_1  and  O_16
REMARK    4  A    between atoms: O_5  and  C_6
REMARK    5  A    between atoms: C_6  and  C_8
REMARK    6  A    between atoms: C_7  and  C_10
REMARK    7  A    between atoms: C_10  and  C_11
REMARK    8  A    between atoms: C_11  and  C_12
REMARK    9  A    between atoms: O_16  and  P_17
REMARK   10  A    between atoms: P_17  and  O_19
REMARK   11  A    between atoms: P_17  and  O_21
REMARK                            x       y       z     vdW  Elec       q    Type
REMARK                         _______ _______ _______ _____ _____    ______ ____
ROOT
ATOM      1  P   UNL     1       2.863   0.947   0.799  0.00  0.00    +0.484 P 
ATOM      2  O   UNL     1       3.739   2.166   0.764  0.00  0.00    -0.227 OA
ENDROOT
BRANCH   1   3
ATOM      3  O   UNL     1       3.112  -0.016   2.075  0.00  0.00    -0.302 OA
ATOM      4  H   UNL     1       2.513  -0.777   2.027  0.00  0.00    +0.222 HD
ENDBRANCH   1   3
BRANCH   1   5
ATOM      5  O   UNL     1       1.278   1.257   0.828  0.00  0.00    -0.268 OA
BRANCH   5   6
ATOM      6  C   UNL     1       0.679   1.983  -0.237  0.00  0.00    +0.179 C 
BRANCH   6   8
ATOM      7  C   UNL     1      -1.817   1.714  -0.716  0.00  0.00    -0.045 C 
ATOM      8  C   UNL     1      -0.783   2.124   0.044  0.00  0.00    -0.002 C 
ATOM      9  C   UNL     1      -1.559   1.018  -2.028  0.00  0.00    +0.026 C 
BRANCH   7  10
ATOM     10  C   UNL     1      -3.278   1.924  -0.376  0.00  0.00    +0.026 C 
BRANCH  10  11
ATOM     11  C   UNL     1      -4.071   0.620  -0.219  0.00  0.00    +0.030 C 
BRANCH  11  12
ATOM     12  C   UNL     1      -3.518  -0.266   0.864  0.00  0.00    -0.034 C 
ATOM     13  C   UNL     1      -3.139  -1.554   0.771  0.00  0.00    -0.048 C 
ATOM     14  C   UNL     1      -2.613  -2.281   1.980  0.00  0.00    +0.026 C 
ATOM     15  C   UNL     1      -3.173  -2.382  -0.482  0.00  0.00    +0.026 C 
ENDBRANCH  11  12
ENDBRANCH  10  11
ENDBRANCH   7  10
ENDBRANCH   6   8
ENDBRANCH   5   6
ENDBRANCH   1   5
BRANCH   1  16
ATOM     16  O   UNL     1       3.062  -0.047  -0.460  0.00  0.00    -0.186 OA
BRANCH  16  17
ATOM     17  P   UNL     1       2.346  -1.448  -0.828  0.00  0.00    +0.481 P 
ATOM     18  O   UNL     1       0.858  -1.365  -0.995  0.00  0.00    -0.227 OA
BRANCH  17  19
ATOM     19  O   UNL     1       2.853  -2.439   0.345  0.00  0.00    -0.302 OA
ATOM     20  H   UNL     1       3.823  -2.429   0.379  0.00  0.00    +0.222 HD
ENDBRANCH  17  19
BRANCH  17  21
ATOM     21  O   UNL     1       3.161  -1.954  -2.129  0.00  0.00    -0.302 OA
ATOM     22  H   UNL     1       4.110  -1.976  -1.928  0.00  0.00    +0.222 HD
ENDBRANCH  17  21
ENDBRANCH  16  17
ENDBRANCH   1  16
TORSDOF 11
