REMARK  Name = 6971029
REMARK  6 active torsions:
REMARK  status: ('A' for Active; 'I' for Inactive)
REMARK    1  A    between atoms: C_2  and  C_3
REMARK    2  A    between atoms: C_2  and  C_12
REMARK    3  A    between atoms: C_4  and  N_9
REMARK    4  A    between atoms: C_12  and  CA_13
REMARK    5  A    between atoms: CA_13  and  N_14
REMARK    6  A    between atoms: CA_13  and  C_20
REMARK                            x       y       z     vdW  Elec       q    Type
REMARK                         _______ _______ _______ _____ _____    ______ ____
ROOT
ATOM      1  O   UNL     1      -0.421  -0.972  -1.538  0.00  0.00    -0.291 OA
ATOM      2  C   UNL     1      -0.144   0.017  -0.864  0.00  0.00    +0.173 C 
ENDROOT
BRANCH   2   3
ATOM      3  C   UNL     1       1.238   0.164  -0.323  0.00  0.00    +0.048 C 
ATOM      4  C   UNL     1       1.988  -0.954  -0.030  0.00  0.00    +0.044 C 
ATOM      5  C   UNL     1       1.714   1.444  -0.136  0.00  0.00    +0.004 C 
ATOM      6  C   UNL     1       3.278  -0.784   0.474  0.00  0.00    +0.014 C 
ATOM      7  C   UNL     1       3.003   1.614   0.369  0.00  0.00    +0.000 C 
ATOM      8  C   UNL     1       3.785   0.500   0.674  0.00  0.00    +0.001 C 
BRANCH   4   9
ATOM      9  N   UNL     1       1.493  -2.263  -0.224  0.00  0.00    -0.357 N 
ATOM     10  H   UNL     1       0.585  -2.398  -0.580  0.00  0.00    +0.142 HD
ATOM     11  H   UNL     1       2.056  -3.040  -0.004  0.00  0.00    +0.142 HD
ENDBRANCH   4   9
ENDBRANCH   2   3
BRANCH   2  12
ATOM     12  C   UNL     1      -1.172   1.097  -0.546  0.00  0.00    +0.058 C 
BRANCH  12  13
ATOM     13  CA  UNL     1      -2.597   0.545  -0.437  0.00  0.00    +0.048 C 
BRANCH  13  14
ATOM     14  N   UNL     1      -3.502   1.731  -0.293  0.00  0.00    +0.389 N 
ATOM     15  H1  UNL     1      -3.322   2.390  -1.051  0.00  0.00    -0.088 HD
ATOM     16  H2  UNL     1      -3.326   2.187   0.603  0.00  0.00    -0.088 HD
ATOM     17  H3  UNL     1      -4.474   1.425  -0.333  0.00  0.00    -0.088 HD
ENDBRANCH  13  14
BRANCH  13  20
ATOM     18  O   UNL     1      -2.540  -0.058   1.845  0.00  0.00    -0.248 OA
ATOM     19  OXT UNL     1      -3.291  -1.603   0.341  0.00  0.00    -0.248 OA
ATOM     20  C   UNL     1      -2.834  -0.479   0.689  0.00  0.00    +0.345 C 
ENDBRANCH  13  20
ENDBRANCH  12  13
ENDBRANCH   2  12
TORSDOF 6
