REMARK  Name = 6992099
REMARK  4 active torsions:
REMARK  status: ('A' for Active; 'I' for Inactive)
REMARK    1  A    between atoms: C_1  and  C_2
REMARK    2  A    between atoms: C_1  and  C_7
REMARK    3  A    between atoms: C_2  and  N_3
REMARK    4  A    between atoms: C_7  and  C_10
REMARK                            x       y       z     vdW  Elec       q    Type
REMARK                         _______ _______ _______ _____ _____    ______ ____
ROOT
ATOM      1  C   UNL     1      -0.894   0.236  -0.032  0.00  0.00    -0.012 C 
ENDROOT
BRANCH   1   2
ATOM      2  C   UNL     1      -2.182  -0.577  -0.017  0.00  0.00    -0.086 C 
BRANCH   2   3
ATOM      3  N   UNL     1      -3.337   0.350   0.058  0.00  0.00    +0.380 N 
ATOM      4  H   UNL     1      -4.204  -0.187   0.068  0.00  0.00    -0.089 HD
ATOM      5  H   UNL     1      -3.330   0.968  -0.753  0.00  0.00    -0.089 HD
ATOM      6  H   UNL     1      -3.272   0.906   0.910  0.00  0.00    -0.089 HD
ENDBRANCH   2   3
ENDBRANCH   1   2
BRANCH   1   7
ATOM      7  C   UNL     1       0.344  -0.656  -0.057  0.00  0.00    +0.112 C 
BRANCH   7  10
ATOM      8  O   UNL     1       2.694  -0.725   0.062  0.00  0.00    -0.246 OA
ATOM      9  O   UNL     1       1.674   1.317  -0.011  0.00  0.00    -0.246 OA
ATOM     10  C   UNL     1       1.701   0.055  -0.002  0.00  0.00    +0.365 C 
ENDBRANCH   7  10
ENDBRANCH   1   7
TORSDOF 4
