REMARK  Name = 5287994
REMARK  8 active torsions:
REMARK  status: ('A' for Active; 'I' for Inactive)
REMARK    1  A    between atoms: C_5  and  O_19
REMARK    2  A    between atoms: C_5  and  C_21
REMARK    3  A    between atoms: C_8  and  C_30
REMARK    4  A    between atoms: C_10  and  C_11
REMARK    5  A    between atoms: C_16  and  O_17
REMARK    6  A    between atoms: C_21  and  C_22
REMARK    7  A    between atoms: C_27  and  O_28
REMARK    8  A    between atoms: C_30  and  C_31
REMARK                            x       y       z     vdW  Elec       q    Type
REMARK                         _______ _______ _______ _____ _____    ______ ____
ROOT
ATOM      1  O   UNL     1       0.281  -3.116   1.866  0.00  0.00    -0.270 OA
ATOM      2  N   UNL     1      -0.507  -1.344   0.567  0.00  0.00    -0.232 N 
ATOM      3  N   UNL     1       1.402  -0.233   0.076  0.00  0.00    -0.222 NA
ATOM      4  N   UNL     1      -2.046   0.489  -0.810  0.00  0.00    -0.406 NA
ATOM      5  C   UNL     1       1.768  -1.429   0.895  0.00  0.00    +0.249 C 
ATOM      6  C   UNL     1       0.117  -0.312  -0.029  0.00  0.00    +0.162 C 
ATOM      7  C   UNL     1       0.431  -2.110   1.191  0.00  0.00    +0.278 C 
ATOM      8  C   UNL     1      -0.757   0.651  -0.759  0.00  0.00    +0.144 C 
ATOM      9  C   UNL     1      -1.857  -1.508   0.513  0.00  0.00    +0.159 C 
ATOM     10  C   UNL     1      -2.595  -0.609  -0.168  0.00  0.00    +0.129 C 
ENDROOT
BRANCH  10  11
ATOM     11  C   UNL     1      -4.066  -0.764  -0.228  0.00  0.00    +0.027 C 
ATOM     12  C   UNL     1      -4.871  -0.169   0.744  0.00  0.00    +0.005 C 
ATOM     13  C   UNL     1      -4.649  -1.505  -1.256  0.00  0.00    +0.005 C 
ATOM     14  C   UNL     1      -6.257  -0.316   0.688  0.00  0.00    +0.037 C 
ATOM     15  C   UNL     1      -6.035  -1.651  -1.313  0.00  0.00    +0.037 C 
ATOM     16  C   UNL     1      -6.839  -1.057  -0.341  0.00  0.00    +0.134 C 
BRANCH  16  17
ATOM     17  O   UNL     1      -8.191  -1.198  -0.396  0.00  0.00    -0.506 OA
ATOM     18  H   UNL     1      -8.732  -0.799   0.257  0.00  0.00    +0.292 HD
ENDBRANCH  16  17
ENDBRANCH  10  11
BRANCH   5  19
ATOM     19  O   UNL     1       2.395  -1.165   2.142  0.00  0.00    -0.361 OA
ATOM     20  H   UNL     1       3.249  -0.731   1.989  0.00  0.00    +0.213 HD
ENDBRANCH   5  19
BRANCH   5  21
ATOM     21  C   UNL     1       2.659  -2.335   0.054  0.00  0.00    +0.086 C 
BRANCH  21  22
ATOM     22  C   UNL     1       3.982  -1.687  -0.252  0.00  0.00    -0.017 C 
ATOM     23  C   UNL     1       4.117  -0.915  -1.398  0.00  0.00    -0.001 C 
ATOM     24  C   UNL     1       5.050  -1.868   0.617  0.00  0.00    -0.001 C 
ATOM     25  C   UNL     1       5.343  -0.313  -1.681  0.00  0.00    +0.036 C 
ATOM     26  C   UNL     1       6.276  -1.266   0.334  0.00  0.00    +0.036 C 
ATOM     27  C   UNL     1       6.422  -0.489  -0.815  0.00  0.00    +0.134 C 
BRANCH  27  28
ATOM     28  O   UNL     1       7.619   0.098  -1.092  0.00  0.00    -0.506 OA
ATOM     29  H   UNL     1       7.717   0.620  -1.864  0.00  0.00    +0.292 HD
ENDBRANCH  27  28
ENDBRANCH  21  22
ENDBRANCH   5  21
BRANCH   8  30
ATOM     30  C   UNL     1      -0.098   1.816  -1.432  0.00  0.00    +0.088 C 
BRANCH  30  31
ATOM     31  C   UNL     1       0.032   2.977  -0.491  0.00  0.00    -0.015 C 
ATOM     32  C   UNL     1      -0.990   3.917  -0.412  0.00  0.00    -0.004 C 
ATOM     33  C   UNL     1       1.172   3.102   0.295  0.00  0.00    -0.004 C 
ATOM     34  C   UNL     1      -0.869   4.996   0.464  0.00  0.00    -0.000 C 
ATOM     35  C   UNL     1       1.293   4.181   1.171  0.00  0.00    -0.000 C 
ATOM     36  C   UNL     1       0.272   5.128   1.255  0.00  0.00    -0.000 C 
ENDBRANCH  30  31
ENDBRANCH   8  30
TORSDOF 8
