REMARK  Name = 3050
REMARK  6 active torsions:
REMARK  status: ('A' for Active; 'I' for Inactive)
REMARK    1  A    between atoms: P_1  and  O_3
REMARK    2  A    between atoms: P_1  and  O_6
REMARK    3  A    between atoms: P_1  and  C_9
REMARK    4  A    between atoms: O_3  and  C_4
REMARK    5  A    between atoms: O_6  and  C_7
REMARK    6  A    between atoms: C_9  and  C_10
REMARK                            x       y       z     vdW  Elec       q    Type
REMARK                         _______ _______ _______ _____ _____    ______ ____
ROOT
ATOM      1  P   UNL     1       1.533  -0.193  -0.627  0.00  0.00    +0.348 P 
ATOM      2  O   UNL     1       1.268  -0.965  -1.888  0.00  0.00    -0.257 OA
ENDROOT
BRANCH   1   3
ATOM      3  O   UNL     1       1.292   1.401  -0.783  0.00  0.00    -0.294 OA
BRANCH   3   4
ATOM      4  C   UNL     1       1.597   2.290   0.276  0.00  0.00    +0.151 C 
ATOM      5  C   UNL     1       1.270   3.703  -0.157  0.00  0.00    +0.035 C 
ENDBRANCH   3   4
ENDBRANCH   1   3
BRANCH   1   6
ATOM      6  O   UNL     1       3.053  -0.301  -0.083  0.00  0.00    -0.294 OA
BRANCH   6   7
ATOM      7  C   UNL     1       3.536  -1.555   0.366  0.00  0.00    +0.151 C 
ATOM      8  C   UNL     1       4.971  -1.397   0.821  0.00  0.00    +0.035 C 
ENDBRANCH   6   7
ENDBRANCH   1   6
BRANCH   1   9
ATOM      9  C   UNL     1       0.513  -0.690   0.748  0.00  0.00    +0.142 C 
BRANCH   9  10
ATOM     10  C   UNL     1      -0.958  -0.525   0.494  0.00  0.00    -0.010 C 
ATOM     11  C   UNL     1      -1.680  -1.573  -0.065  0.00  0.00    -0.004 C 
ATOM     12  C   UNL     1      -1.581   0.673   0.820  0.00  0.00    -0.004 C 
ATOM     13  C   UNL     1      -3.680  -0.220   0.024  0.00  0.00    -0.022 C 
ATOM     14  C   UNL     1      -3.046  -1.419  -0.301  0.00  0.00    -0.005 C 
ATOM     15  C   UNL     1      -2.947   0.827   0.584  0.00  0.00    -0.005 C 
ATOM     16  C   UNL     1      -5.141  -0.056  -0.228  0.00  0.00    +0.031 C 
ENDBRANCH   9  10
ENDBRANCH   1   9
TORSDOF 6
