REMARK  Name = 446493
REMARK  8 active torsions:
REMARK  status: ('A' for Active; 'I' for Inactive)
REMARK    1  A    between atoms: C_2  and  O_17
REMARK    2  A    between atoms: C_3  and  O_19
REMARK    3  A    between atoms: C_4  and  N_7
REMARK    4  A    between atoms: C_5  and  C_21
REMARK    5  A    between atoms: C_21  and  O_22
REMARK    6  A    between atoms: O_22  and  P_23
REMARK    7  A    between atoms: P_23  and  O_25
REMARK    8  A    between atoms: P_23  and  O_27
REMARK                            x       y       z     vdW  Elec       q    Type
REMARK                         _______ _______ _______ _____ _____    ______ ____
ROOT
ATOM      1  O   UNL     1       1.026   0.065   0.089  0.00  0.00    -0.333 OA
ATOM      2  C   UNL     1       0.021  -2.080  -0.182  0.00  0.00    +0.187 C 
ATOM      3  C   UNL     1       1.501  -2.177  -0.498  0.00  0.00    +0.171 C 
ATOM      4  C   UNL     1      -0.190  -0.578  -0.354  0.00  0.00    +0.224 C 
ATOM      5  C   UNL     1       2.048  -0.944   0.208  0.00  0.00    +0.176 C 
ENDROOT
BRANCH   4   7
ATOM      6  O   UNL     1      -6.412   1.048  -0.774  0.00  0.00    -0.206 OA
ATOM      7  N   UNL     1      -1.346  -0.018   0.337  0.00  0.00    -0.259 N 
ATOM      8  N   UNL     1      -2.571   0.886   1.988  0.00  0.00    -0.232 NA
ATOM      9  N   UNL     1      -4.642   1.029   0.662  0.00  0.00    -0.224 N 
ATOM     10  N   UNL     1      -4.449   0.206  -1.619  0.00  0.00    -0.161 NA
ATOM     11  C   UNL     1      -2.601   0.171  -0.161  0.00  0.00    +0.104 C 
ATOM     12  C   UNL     1      -1.381   0.431   1.641  0.00  0.00    +0.223 C 
ATOM     13  C   UNL     1      -3.318   0.720   0.863  0.00  0.00    +0.153 C 
ATOM     14  C   UNL     1      -3.197  -0.085  -1.424  0.00  0.00    +0.130 C 
ATOM     15  C   UNL     1      -5.223   0.771  -0.594  0.00  0.00    +0.217 C 
ATOM     16  H   UNL     1      -5.176   1.425   1.387  0.00  0.00    +0.167 HD
ENDBRANCH   4   7
BRANCH   2  17
ATOM     17  O   UNL     1      -0.214  -2.471   1.167  0.00  0.00    -0.378 OA
ATOM     18  H   UNL     1      -0.075  -3.427   1.256  0.00  0.00    +0.211 HD
ENDBRANCH   2  17
BRANCH   3  19
ATOM     19  O   UNL     1       2.098  -3.366  -0.026  0.00  0.00    -0.379 OA
ATOM     20  H   UNL     1       1.724  -4.126  -0.499  0.00  0.00    +0.211 HD
ENDBRANCH   3  19
BRANCH   5  21
ATOM     21  C   UNL     1       3.344  -0.431  -0.395  0.00  0.00    +0.186 C 
BRANCH  21  22
ATOM     22  O   UNL     1       3.760   0.718   0.324  0.00  0.00    -0.271 OA
BRANCH  22  23
ATOM     23  P   UNL     1       5.127   1.457  -0.128  0.00  0.00    +0.473 P 
ATOM     24  O   UNL     1       5.495   2.664   0.684  0.00  0.00    -0.227 OA
BRANCH  23  25
ATOM     25  O   UNL     1       4.914   1.726  -1.708  0.00  0.00    -0.303 OA
ATOM     26  H   UNL     1       4.681   0.894  -2.150  0.00  0.00    +0.222 HD
ENDBRANCH  23  25
BRANCH  23  27
ATOM     27  O   UNL     1       6.212   0.258  -0.099  0.00  0.00    -0.303 OA
ATOM     28  H   UNL     1       5.896  -0.478  -0.647  0.00  0.00    +0.222 HD
ENDBRANCH  23  27
ENDBRANCH  22  23
ENDBRANCH  21  22
ENDBRANCH   5  21
TORSDOF 8
