REMARK  Name = 8172
REMARK  9 active torsions:
REMARK  status: ('A' for Active; 'I' for Inactive)
REMARK    1  A    between atoms: C_1  and  O_2
REMARK    2  A    between atoms: C_1  and  C_7
REMARK    3  A    between atoms: O_2  and  C_3
REMARK    4  A    between atoms: C_3  and  C_4
REMARK    5  A    between atoms: C_4  and  O_5
REMARK    6  A    between atoms: C_7  and  O_8
REMARK    7  A    between atoms: O_8  and  C_9
REMARK    8  A    between atoms: C_9  and  C_10
REMARK    9  A    between atoms: C_10  and  O_11
REMARK                            x       y       z     vdW  Elec       q    Type
REMARK                         _______ _______ _______ _____ _____    ______ ____
ROOT
ATOM      1  C   UNL     1       0.616  -0.442  -0.008  0.00  0.00    +0.174 C 
ENDROOT
BRANCH   1   2
ATOM      2  O   UNL     1       1.776   0.377  -0.019  0.00  0.00    -0.348 OA
BRANCH   2   3
ATOM      3  C   UNL     1       2.965  -0.404   0.003  0.00  0.00    +0.174 C 
BRANCH   3   4
ATOM      4  C   UNL     1       4.166   0.522  -0.009  0.00  0.00    +0.169 C 
BRANCH   4   5
ATOM      5  O   UNL     1       5.354  -0.258   0.033  0.00  0.00    -0.379 OA
ATOM      6  H   UNL     1       6.127   0.329   0.026  0.00  0.00    +0.211 HD
ENDBRANCH   4   5
ENDBRANCH   3   4
ENDBRANCH   2   3
ENDBRANCH   1   2
BRANCH   1   7
ATOM      7  C   UNL     1      -0.615   0.444  -0.008  0.00  0.00    +0.174 C 
BRANCH   7   8
ATOM      8  O   UNL     1      -1.778  -0.376  -0.019  0.00  0.00    -0.348 OA
BRANCH   8   9
ATOM      9  C   UNL     1      -2.965   0.403   0.003  0.00  0.00    +0.174 C 
BRANCH   9  10
ATOM     10  C   UNL     1      -4.166  -0.523  -0.009  0.00  0.00    +0.169 C 
BRANCH  10  11
ATOM     11  O   UNL     1      -5.354   0.257   0.033  0.00  0.00    -0.379 OA
ATOM     12  H   UNL     1      -6.127  -0.330   0.026  0.00  0.00    +0.211 HD
ENDBRANCH  10  11
ENDBRANCH   9  10
ENDBRANCH   8   9
ENDBRANCH   7   8
ENDBRANCH   1   7
TORSDOF 9
