REMARK  Name = 150238
REMARK  6 active torsions:
REMARK  status: ('A' for Active; 'I' for Inactive)
REMARK    1  A    between atoms: C_4  and  C_17
REMARK    2  A    between atoms: C_5  and  N_26
REMARK    3  A    between atoms: N_16  and  C_19
REMARK    4  A    between atoms: C_19  and  C_20
REMARK    5  A    between atoms: C_20  and  C_21
REMARK    6  A    between atoms: C_21  and  N_22
REMARK                            x       y       z     vdW  Elec       q    Type
REMARK                         _______ _______ _______ _____ _____    ______ ____
ROOT
ATOM      1  N   UNL     1      -0.466   0.306   0.305  0.00  0.00    -0.406 NA
ATOM      2  C   UNL     1      -0.785  -0.989   0.116  0.00  0.00    +0.136 C 
ATOM      3  C   UNL     1      -2.094  -1.392  -0.198  0.00  0.00    +0.043 C 
ATOM      4  C   UNL     1       0.193  -1.973   0.232  0.00  0.00    +0.083 C 
ATOM      5  C   UNL     1      -3.072  -0.400  -0.313  0.00  0.00    +0.046 C 
ATOM      6  C   UNL     1      -2.746   0.946  -0.118  0.00  0.00    +0.039 C 
ATOM      7  C   UNL     1      -1.412   1.258   0.194  0.00  0.00    +0.114 C 
ATOM      8  C   UNL     1      -2.393  -2.752  -0.389  0.00  0.00    +0.004 C 
ATOM      9  C   UNL     1      -0.101  -3.325   0.043  0.00  0.00    +0.007 C 
ATOM     10  C   UNL     1      -1.397  -3.716  -0.268  0.00  0.00    +0.000 C 
ATOM     11  C   UNL     1      -3.709   1.965  -0.226  0.00  0.00    +0.003 C 
ATOM     12  C   UNL     1      -1.081   2.597   0.389  0.00  0.00    +0.085 C 
ATOM     13  C   UNL     1      -3.352   3.295  -0.026  0.00  0.00    -0.004 C 
ATOM     14  C   UNL     1      -2.035   3.611   0.282  0.00  0.00    -0.019 C 
ENDROOT
BRANCH   4  17
ATOM     15  O   UNL     1       2.513  -2.297   0.124  0.00  0.00    -0.270 OA
ATOM     16  N   UNL     1       1.757  -0.475   1.342  0.00  0.00    -0.301 N 
ATOM     17  C   UNL     1       1.570  -1.615   0.556  0.00  0.00    +0.248 C 
ATOM     18  H   UNL     1       0.961   0.016   1.649  0.00  0.00    +0.150 HD
BRANCH  16  19
ATOM     19  C   UNL     1       3.059   0.021   1.728  0.00  0.00    +0.088 C 
BRANCH  19  20
ATOM     20  C   UNL     1       3.273   1.442   1.206  0.00  0.00    -0.002 C 
BRANCH  20  21
ATOM     21  C   UNL     1       3.144   1.579  -0.310  0.00  0.00    -0.076 C 
BRANCH  21  22
ATOM     22  N   UNL     1       4.108   0.743  -0.984  0.00  0.00    +0.384 N 
ATOM     23  C   UNL     1       5.481   1.110  -0.612  0.00  0.00    -0.101 C 
ATOM     24  C   UNL     1       3.953   0.823  -2.443  0.00  0.00    -0.101 C 
ATOM     25  H   UNL     1       3.933  -0.218  -0.687  0.00  0.00    -0.080 HD
ENDBRANCH  21  22
ENDBRANCH  20  21
ENDBRANCH  19  20
ENDBRANCH  16  19
ENDBRANCH   4  17
BRANCH   5  26
ATOM     26  N   UNL     1      -4.410  -0.762  -0.629  0.00  0.00    -0.357 N 
ATOM     27  H   UNL     1      -4.644  -1.708  -0.767  0.00  0.00    +0.142 HD
ATOM     28  H   UNL     1      -5.102  -0.066  -0.711  0.00  0.00    +0.142 HD
ENDBRANCH   5  26
TORSDOF 6
