REMARK  Name = 11915
REMARK  3 active torsions:
REMARK  status: ('A' for Active; 'I' for Inactive)
REMARK    1  A    between atoms: C_1  and  C_8
REMARK    2  A    between atoms: C_8  and  C_10
REMARK    3  A    between atoms: C_10  and  O_11
REMARK                            x       y       z     vdW  Elec       q    Type
REMARK                         _______ _______ _______ _____ _____    ______ ____
ROOT
ATOM      1  C   UNL     1      -0.314  -0.260   0.071  0.00  0.00    +0.046 C 
ATOM      2  C   UNL     1      -0.759   1.026   0.378  0.00  0.00    +0.003 C 
ATOM      3  C   UNL     1      -1.229  -1.247  -0.295  0.00  0.00    +0.003 C 
ATOM      4  C   UNL     1      -2.120   1.325   0.318  0.00  0.00    +0.000 C 
ATOM      5  C   UNL     1      -2.591  -0.948  -0.355  0.00  0.00    +0.000 C 
ATOM      6  C   UNL     1      -3.036   0.338  -0.048  0.00  0.00    +0.000 C 
ENDROOT
BRANCH   1   8
ATOM      7  O   UNL     1       1.559  -1.693   0.390  0.00  0.00    -0.280 OA
ATOM      8  C   UNL     1       1.105  -0.573   0.134  0.00  0.00    +0.270 C 
BRANCH   8  10
ATOM      9  O   UNL     1       1.866   1.626  -0.416  0.00  0.00    -0.241 OA
ATOM     10  C   UNL     1       2.152   0.479  -0.140  0.00  0.00    +0.378 C 
BRANCH  10  11
ATOM     11  O   UNL     1       3.368  -0.074  -0.036  0.00  0.00    -0.475 OA
ATOM     12  H   UNL     1       3.453  -0.980   0.185  0.00  0.00    +0.296 HD
ENDBRANCH  10  11
ENDBRANCH   8  10
ENDBRANCH   1   8
TORSDOF 3
