REMARK  Name = 12717
REMARK  4 active torsions:
REMARK  status: ('A' for Active; 'I' for Inactive)
REMARK    1  A    between atoms: N_2  and  O_4
REMARK    2  A    between atoms: N_2  and  C_6
REMARK    3  A    between atoms: C_6  and  C_8
REMARK    4  A    between atoms: C_8  and  O_9
REMARK                            x       y       z     vdW  Elec       q    Type
REMARK                         _______ _______ _______ _____ _____    ______ ____
ROOT
ATOM      1  O   UNL     1      -1.751  -1.629  -0.045  0.00  0.00    -0.263 OA
ATOM      2  N   UNL     1      -0.896   0.520  -0.197  0.00  0.00    -0.153 N 
ATOM      3  C   UNL     1      -1.814  -0.424   0.172  0.00  0.00    +0.327 C 
ENDROOT
BRANCH   2   4
ATOM      4  O   UNL     1      -1.048   1.885   0.093  0.00  0.00    -0.291 OA
ATOM      5  H   UNL     1      -0.287   2.377  -0.256  0.00  0.00    +0.242 HD
ENDBRANCH   2   4
BRANCH   2   6
ATOM      6  C   UNL     1       0.305   0.201  -0.914  0.00  0.00    +0.233 C 
BRANCH   6   8
ATOM      7  O   UNL     1       2.583  -0.399  -0.417  0.00  0.00    -0.248 OA
ATOM      8  C   UNL     1       1.466  -0.111  -0.004  0.00  0.00    +0.337 C 
BRANCH   8   9
ATOM      9  O   UNL     1       1.156  -0.043   1.311  0.00  0.00    -0.479 OA
ATOM     10  H   UNL     1       0.286   0.182   1.577  0.00  0.00    +0.295 HD
ENDBRANCH   8   9
ENDBRANCH   6   8
ENDBRANCH   2   6
TORSDOF 4
