REMARK  Name = 1950
REMARK  7 active torsions:
REMARK  status: ('A' for Active; 'I' for Inactive)
REMARK    1  A    between atoms: N_2  and  C_13
REMARK    2  A    between atoms: C_3  and  O_5
REMARK    3  A    between atoms: O_5  and  C_6
REMARK    4  A    between atoms: C_6  and  C_7
REMARK    5  A    between atoms: C_13  and  P_14
REMARK    6  A    between atoms: P_14  and  O_16
REMARK    7  A    between atoms: P_14  and  O_18
REMARK                            x       y       z     vdW  Elec       q    Type
REMARK                         _______ _______ _______ _____ _____    ______ ____
ROOT
ATOM      1  O   UNL     1       1.265  -1.548  -1.083  0.00  0.00    -0.226 OA
ATOM      2  N   UNL     1       1.869  -0.467   0.876  0.00  0.00    -0.260 N 
ATOM      3  C   UNL     1       0.982  -0.877  -0.097  0.00  0.00    +0.402 C 
ATOM      4  H   UNL     1       1.526   0.073   1.625  0.00  0.00    +0.153 HD
ENDROOT
BRANCH   3   5
ATOM      5  O   UNL     1      -0.270  -0.420   0.199  0.00  0.00    -0.430 OA
BRANCH   5   6
ATOM      6  C   UNL     1      -1.298  -0.770  -0.734  0.00  0.00    +0.237 C 
BRANCH   6   7
ATOM      7  C   UNL     1      -2.627  -0.227  -0.327  0.00  0.00    +0.021 C 
ATOM      8  C   UNL     1      -3.470  -0.984   0.487  0.00  0.00    -0.001 C 
ATOM      9  C   UNL     1      -3.026   1.037  -0.761  0.00  0.00    -0.001 C 
ATOM     10  C   UNL     1      -4.712  -0.476   0.868  0.00  0.00    -0.000 C 
ATOM     11  C   UNL     1      -4.268   1.545  -0.380  0.00  0.00    -0.000 C 
ATOM     12  C   UNL     1      -5.111   0.788   0.434  0.00  0.00    -0.000 C 
ENDBRANCH   6   7
ENDBRANCH   5   6
ENDBRANCH   3   5
BRANCH   2  13
ATOM     13  C   UNL     1       3.279  -0.789   0.854  0.00  0.00    +0.209 C 
BRANCH  13  14
ATOM     14  P   UNL     1       4.111   0.520  -0.016  0.00  0.00    +0.357 P 
ATOM     15  O   UNL     1       3.668   0.727  -1.433  0.00  0.00    -0.256 OA
BRANCH  14  16
ATOM     16  O   UNL     1       3.935   1.801   0.954  0.00  0.00    -0.322 OA
ATOM     17  H   UNL     1       4.365   2.572   0.553  0.00  0.00    +0.220 HD
ENDBRANCH  14  16
BRANCH  14  18
ATOM     18  O   UNL     1       5.673   0.139   0.159  0.00  0.00    -0.322 OA
ATOM     19  H   UNL     1       6.220   0.804  -0.287  0.00  0.00    +0.220 HD
ENDBRANCH  14  18
ENDBRANCH  13  14
ENDBRANCH   2  13
TORSDOF 7
