REMARK  Name = 445382
REMARK  6 active torsions:
REMARK  status: ('A' for Active; 'I' for Inactive)
REMARK    1  A    between atoms: C_2  and  O_12
REMARK    2  A    between atoms: C_3  and  O_14
REMARK    3  A    between atoms: C_4  and  O_16
REMARK    4  A    between atoms: C_5  and  C_18
REMARK    5  A    between atoms: C_6  and  N_8
REMARK    6  A    between atoms: C_18  and  O_19
REMARK                            x       y       z     vdW  Elec       q    Type
REMARK                         _______ _______ _______ _____ _____    ______ ____
ROOT
ATOM      1  O   UNL     1      -0.084   0.839  -0.386  0.00  0.00    -0.333 OA
ATOM      2  C   UNL     1       1.671  -1.345   0.229  0.00  0.00    +0.171 C 
ATOM      3  C   UNL     1       2.196   0.023  -0.211  0.00  0.00    +0.169 C 
ATOM      4  C   UNL     1       0.228  -1.567  -0.228  0.00  0.00    +0.186 C 
ATOM      5  C   UNL     1       1.202   1.127   0.169  0.00  0.00    +0.175 C 
ATOM      6  C   UNL     1      -0.646  -0.366   0.126  0.00  0.00    +0.221 C 
ENDROOT
BRANCH   6   8
ATOM      7  O   UNL     1      -3.115   0.794   1.121  0.00  0.00    -0.275 OA
ATOM      8  N   UNL     1      -1.967  -0.500  -0.437  0.00  0.00    -0.281 N 
ATOM      9  C   UNL     1      -3.092   0.094   0.112  0.00  0.00    +0.225 C 
ATOM     10  C   UNL     1      -4.336  -0.186  -0.688  0.00  0.00    +0.095 C 
ATOM     11  H   UNL     1      -2.074  -1.041  -1.253  0.00  0.00    +0.152 HD
ENDBRANCH   6   8
BRANCH   2  12
ATOM     12  O   UNL     1       2.501  -2.370  -0.321  0.00  0.00    -0.379 OA
ATOM     13  H   UNL     1       3.418  -2.233  -0.033  0.00  0.00    +0.211 HD
ENDBRANCH   2  12
BRANCH   3  14
ATOM     14  O   UNL     1       3.451   0.242   0.427  0.00  0.00    -0.379 OA
ATOM     15  H   UNL     1       4.068  -0.463   0.177  0.00  0.00    +0.211 HD
ENDBRANCH   3  14
BRANCH   4  16
ATOM     16  O   UNL     1      -0.291  -2.726   0.423  0.00  0.00    -0.378 OA
ATOM     17  H   UNL     1       0.259  -3.494   0.204  0.00  0.00    +0.211 HD
ENDBRANCH   4  16
BRANCH   5  18
ATOM     18  C   UNL     1       1.627   2.493  -0.361  0.00  0.00    +0.169 C 
BRANCH  18  19
ATOM     19  O   UNL     1       0.654   3.448   0.023  0.00  0.00    -0.379 OA
ATOM     20  H   UNL     1       0.912   4.322  -0.308  0.00  0.00    +0.211 HD
ENDBRANCH  18  19
ENDBRANCH   5  18
TORSDOF 6
