3973
  -OEChem-10051719593D

 40 43  0     0  0  0  0  0  0999 V2000
   -4.5201   -1.9794   -0.1790 O   0  0  0  0  0  0  0  0  0  0  0  0
   -0.2639    0.2231    0.1058 O   0  0  0  0  0  0  0  0  0  0  0  0
   -0.6127    4.2777    0.0551 O   0  0  0  0  0  0  0  0  0  0  0  0
   -2.5635   -0.0225    0.2767 N   0  0  0  0  0  0  0  0  0  0  0  0
   -2.4514   -1.3357    0.9116 C   0  0  0  0  0  0  0  0  0  0  0  0
   -3.9277    0.3703   -0.0767 C   0  0  0  0  0  0  0  0  0  0  0  0
   -3.1656   -2.3733    0.0535 C   0  0  0  0  0  0  0  0  0  0  0  0
   -4.5770   -0.7416   -0.8923 C   0  0  0  0  0  0  0  0  0  0  0  0
   -1.5086    0.8373    0.1849 C   0  0  0  0  0  0  0  0  0  0  0  0
    0.8595    1.0042    0.0101 C   0  0  0  0  0  0  0  0  0  0  0  0
    0.8142    2.3963   -0.0120 C   0  0  0  0  0  0  0  0  0  0  0  0
   -1.6666    2.1715    0.1722 C   0  0  0  0  0  0  0  0  0  0  0  0
    2.0877    0.3465   -0.0668 C   0  0  0  0  0  0  0  0  0  0  0  0
   -0.4936    3.0607    0.0707 C   0  0  0  0  0  0  0  0  0  0  0  0
    1.9915    3.1416   -0.1110 C   0  0  0  0  0  0  0  0  0  0  0  0
    2.1719   -1.1009   -0.0456 C   0  0  0  0  0  0  0  0  0  0  0  0
    3.2663    1.0865   -0.1657 C   0  0  0  0  0  0  0  0  0  0  0  0
    3.2181    2.4811   -0.1878 C   0  0  0  0  0  0  0  0  0  0  0  0
    2.2989   -1.7711    1.1694 C   0  0  0  0  0  0  0  0  0  0  0  0
    2.1247   -1.8170   -1.2399 C   0  0  0  0  0  0  0  0  0  0  0  0
    2.3796   -3.1635    1.1901 C   0  0  0  0  0  0  0  0  0  0  0  0
    2.2054   -3.2094   -1.2191 C   0  0  0  0  0  0  0  0  0  0  0  0
    2.3328   -3.8825   -0.0040 C   0  0  0  0  0  0  0  0  0  0  0  0
   -2.9272   -1.2812    1.8984 H   0  0  0  0  0  0  0  0  0  0  0  0
   -1.4136   -1.6496    1.0676 H   0  0  0  0  0  0  0  0  0  0  0  0
   -3.9727    1.2833   -0.6795 H   0  0  0  0  0  0  0  0  0  0  0  0
   -4.4949    0.5418    0.8460 H   0  0  0  0  0  0  0  0  0  0  0  0
   -2.6584   -2.5153   -0.9085 H   0  0  0  0  0  0  0  0  0  0  0  0
   -3.1811   -3.3389    0.5685 H   0  0  0  0  0  0  0  0  0  0  0  0
   -5.6307   -0.5076   -1.0739 H   0  0  0  0  0  0  0  0  0  0  0  0
   -4.0885   -0.8625   -1.8668 H   0  0  0  0  0  0  0  0  0  0  0  0
   -2.6269    2.6658    0.2594 H   0  0  0  0  0  0  0  0  0  0  0  0
    1.9728    4.2275   -0.1295 H   0  0  0  0  0  0  0  0  0  0  0  0
    4.2339    0.5933   -0.2267 H   0  0  0  0  0  0  0  0  0  0  0  0
    4.1379    3.0538   -0.2649 H   0  0  0  0  0  0  0  0  0  0  0  0
    2.3357   -1.2254    2.1091 H   0  0  0  0  0  0  0  0  0  0  0  0
    2.0247   -1.3073   -2.1953 H   0  0  0  0  0  0  0  0  0  0  0  0
    2.4782   -3.6877    2.1361 H   0  0  0  0  0  0  0  0  0  0  0  0
    2.1684   -3.7695   -2.1489 H   0  0  0  0  0  0  0  0  0  0  0  0
    2.3952   -4.9666    0.0122 H   0  0  0  0  0  0  0  0  0  0  0  0
  1  7  1  0  0  0  0
  1  8  1  0  0  0  0
  2  9  1  0  0  0  0
  2 10  1  0  0  0  0
  3 14  2  0  0  0  0
  4  5  1  0  0  0  0
  4  6  1  0  0  0  0
  4  9  1  0  0  0  0
  5  7  1  0  0  0  0
  5 24  1  0  0  0  0
  5 25  1  0  0  0  0
  6  8  1  0  0  0  0
  6 26  1  0  0  0  0
  6 27  1  0  0  0  0
  7 28  1  0  0  0  0
  7 29  1  0  0  0  0
  8 30  1  0  0  0  0
  8 31  1  0  0  0  0
  9 12  2  0  0  0  0
 10 11  2  0  0  0  0
 10 13  1  0  0  0  0
 11 14  1  0  0  0  0
 11 15  1  0  0  0  0
 12 14  1  0  0  0  0
 12 32  1  0  0  0  0
 13 16  1  0  0  0  0
 13 17  2  0  0  0  0
 15 18  2  0  0  0  0
 15 33  1  0  0  0  0
 16 19  2  0  0  0  0
 16 20  1  0  0  0  0
 17 18  1  0  0  0  0
 17 34  1  0  0  0  0
 18 35  1  0  0  0  0
 19 21  1  0  0  0  0
 19 36  1  0  0  0  0
 20 22  2  0  0  0  0
 20 37  1  0  0  0  0
 21 23  2  0  0  0  0
 21 38  1  0  0  0  0
 22 23  1  0  0  0  0
 22 39  1  0  0  0  0
 23 40  1  0  0  0  0
M  END
> <DATABASE_ID>
DB02656

> <DATABASE_NAME>
drugbank

> <ORIGINAL_SOURCE>
PUBCHEM

> <ORIGINAL_SOURCE_URL>
https://pubchem.ncbi.nlm.nih.gov/rest/pug/compound/inchikey/CZQHHVNHHHRRDU-UHFFFAOYSA-N/SDF?record_type=3d

> <SMILES>
O=C1C=C(OC2=C1C=CC=C2C1=CC=CC=C1)N1CCOCC1

> <INCHI_IDENTIFIER>
InChI=1S/C19H17NO3/c21-17-13-18(20-9-11-22-12-10-20)23-19-15(7-4-8-16(17)19)14-5-2-1-3-6-14/h1-8,13H,9-12H2

> <INCHI_KEY>
CZQHHVNHHHRRDU-UHFFFAOYSA-N

> <FORMULA>
C19H17NO3

> <MOLECULAR_WEIGHT>
307.3432

> <EXACT_MASS>
307.120843415

> <JCHEM_ACCEPTOR_COUNT>
4

> <JCHEM_AVERAGE_POLARIZABILITY>
32.75029925848623

> <JCHEM_BIOAVAILABILITY>
1

> <JCHEM_DONOR_COUNT>
0

> <JCHEM_FORMAL_CHARGE>
0

> <JCHEM_GHOSE_FILTER>
1

> <JCHEM_IUPAC>
2-(morpholin-4-yl)-8-phenyl-4H-chromen-4-one

> <ALOGPS_LOGP>
3.46

> <JCHEM_LOGP>
3.4126344570000002

> <ALOGPS_LOGS>
-3.38

> <JCHEM_MDDR_LIKE_RULE>
0

> <JCHEM_NUMBER_OF_RINGS>
4

> <JCHEM_PHYSIOLOGICAL_CHARGE>
0

> <JCHEM_PKA_STRONGEST_ACIDIC>
15.946079782442116

> <JCHEM_PKA_STRONGEST_BASIC>
3.471038022470299

> <JCHEM_POLAR_SURFACE_AREA>
38.77

> <JCHEM_REFRACTIVITY>
98.50410000000002

> <JCHEM_ROTATABLE_BOND_COUNT>
2

> <JCHEM_RULE_OF_FIVE>
1

> <ALOGPS_SOLUBILITY>
1.27e-01 g/l

> <JCHEM_TRADITIONAL_IUPAC>
2-(morpholin-4-yl)-8-phenylchromen-4-one

> <JCHEM_VEBER_RULE>
1

> <DRUGBANK_ID>
DB02656

> <SECONDARY_ACCESSION_NUMBERS>
EXPT02073

> <DRUG_GROUPS>
experimental

> <GENERIC_NAME>
LY-294002

> <SYNONYMS>
2-(4-morpholinyl)-8-phenyl-4H-1-benzopyran-4-one

> <SALTS>
LY-294002 hydrochloride

$$$$
