REMARK  Name = 7057884
REMARK  1 active torsions:
REMARK  status: ('A' for Active; 'I' for Inactive)
REMARK    1  A    between atoms: C_3  and  N_7
REMARK                            x       y       z     vdW  Elec       q    Type
REMARK                         _______ _______ _______ _____ _____    ______ ____
ROOT
ATOM      1  O   UNL     1       0.998  -1.059  -0.133  0.00  0.00    -0.450 OA
ATOM      2  O   UNL     1      -1.240  -1.555  -0.033  0.00  0.00    -0.252 OA
ATOM      3  C   UNL     1      -0.443   0.705   0.414  0.00  0.00    +0.040 C 
ATOM      4  C   UNL     1       0.841   1.265  -0.156  0.00  0.00    +0.036 C 
ATOM      5  C   UNL     1       1.796   0.117   0.055  0.00  0.00    +0.207 C 
ATOM      6  C   UNL     1      -0.326  -0.749   0.051  0.00  0.00    +0.296 C 
ENDROOT
BRANCH   3   7
ATOM      7  N   UNL     1      -1.625   1.278  -0.199  0.00  0.00    +0.389 N 
ATOM      8  H   UNL     1      -1.695   2.264   0.053  0.00  0.00    -0.088 HD
ATOM      9  H   UNL     1      -2.454   0.783   0.133  0.00  0.00    -0.088 HD
ATOM     10  H   UNL     1      -1.560   1.190  -1.213  0.00  0.00    -0.088 HD
ENDBRANCH   3   7
TORSDOF 1
