REMARK  Name = 69617
REMARK  4 active torsions:
REMARK  status: ('A' for Active; 'I' for Inactive)
REMARK    1  A    between atoms: C_1  and  C_5
REMARK    2  A    between atoms: C_1  and  C_9
REMARK    3  A    between atoms: C_1  and  O_10
REMARK    4  A    between atoms: C_1  and  O_12
REMARK                            x       y       z     vdW  Elec       q    Type
REMARK                         _______ _______ _______ _____ _____    ______ ____
ROOT
ATOM      1  C   UNL     1       0.000   0.620   0.003  0.00  0.00    +0.361 C 
ENDROOT
BRANCH   1   5
ATOM      2  F   UNL     1       1.305  -1.021  -1.098  0.00  0.00    -0.165 F 
ATOM      3  F   UNL     1       1.319  -1.032   1.082  0.00  0.00    -0.165 F 
ATOM      4  F   UNL     1       2.373   0.536  -0.007  0.00  0.00    -0.165 F 
ATOM      5  C   UNL     1       1.260  -0.229  -0.003  0.00  0.00    +0.453 C 
ENDBRANCH   1   5
BRANCH   1   9
ATOM      6  F   UNL     1      -1.315  -1.030   1.092  0.00  0.00    -0.165 F 
ATOM      7  F   UNL     1      -1.310  -1.023  -1.089  0.00  0.00    -0.165 F 
ATOM      8  F   UNL     1      -2.372   0.537   0.004  0.00  0.00    -0.165 F 
ATOM      9  C   UNL     1      -1.259  -0.230   0.005  0.00  0.00    +0.453 C 
ENDBRANCH   1   9
BRANCH   1  10
ATOM     10  O   UNL     1       0.021   1.433   1.174  0.00  0.00    -0.352 OA
ATOM     11  H   UNL     1       0.036   0.866   1.961  0.00  0.00    +0.213 HD
ENDBRANCH   1  10
BRANCH   1  12
ATOM     12  O   UNL     1      -0.021   1.439  -1.163  0.00  0.00    -0.352 OA
ATOM     13  H   UNL     1      -0.035   0.876  -1.953  0.00  0.00    +0.213 HD
ENDBRANCH   1  12
TORSDOF 4
