REMARK  Name = 3710
REMARK  10 active torsions:
REMARK  status: ('A' for Active; 'I' for Inactive)
REMARK    1  A    between atoms: N_1  and  C_19
REMARK    2  A    between atoms: C_2  and  C_26
REMARK    3  A    between atoms: C_9  and  O_11
REMARK    4  A    between atoms: O_11  and  C_12
REMARK    5  A    between atoms: C_12  and  C_13
REMARK    6  A    between atoms: C_13  and  C_14
REMARK    7  A    between atoms: C_14  and  C_16
REMARK    8  A    between atoms: C_16  and  O_17
REMARK    9  A    between atoms: C_19  and  C_20
REMARK   10  A    between atoms: C_26  and  C_29
REMARK                            x       y       z     vdW  Elec       q    Type
REMARK                         _______ _______ _______ _____ _____    ______ ____
ROOT
ATOM      1  N   UNL     1      -2.266   0.298  -0.789  0.00  0.00    -0.327 N 
ATOM      2  C   UNL     1      -0.962   1.710   0.320  0.00  0.00    +0.000 A 
ATOM      3  C   UNL     1      -1.083  -0.371  -0.570  0.00  0.00    +0.060 A 
ATOM      4  C   UNL     1      -0.242   0.498   0.129  0.00  0.00    +0.016 A 
ATOM      5  C   UNL     1      -2.202   1.557  -0.255  0.00  0.00    +0.034 A 
ATOM      6  C   UNL     1       1.047   0.055   0.484  0.00  0.00    +0.038 C 
ATOM      7  C   UNL     1      -0.696  -1.667  -0.933  0.00  0.00    +0.020 C 
ATOM      8  C   UNL     1      -3.335   2.503  -0.341  0.00  0.00    +0.050 C 
ATOM      9  C   UNL     1       1.448  -1.238   0.128  0.00  0.00    +0.139 C 
ATOM     10  C   UNL     1       0.588  -2.084  -0.570  0.00  0.00    +0.038 C 
ENDROOT
BRANCH   9  11
ATOM     11  O   UNL     1       2.694  -1.673   0.467  0.00  0.00    -0.475 OA
BRANCH  11  12
ATOM     12  C   UNL     1       3.721  -0.688   0.556  0.00  0.00    +0.206 C 
BRANCH  12  13
ATOM     13  C   UNL     1       5.069  -1.308   0.209  0.00  0.00    +0.059 C 
BRANCH  13  14
ATOM     14  C   UNL     1       6.208  -0.289   0.270  0.00  0.00    +0.113 C 
BRANCH  14  16
ATOM     15  O   UNL     1       7.732  -2.105  -0.285  0.00  0.00    -0.250 OA
ATOM     16  C   UNL     1       7.546  -0.922  -0.038  0.00  0.00    +0.314 C 
BRANCH  16  17
ATOM     17  O   UNL     1       8.548  -0.004  -0.005  0.00  0.00    -0.480 OA
ATOM     18  H   UNL     1       8.356   0.892   0.190  0.00  0.00    +0.295 HD
ENDBRANCH  16  17
ENDBRANCH  14  16
ENDBRANCH  13  14
ENDBRANCH  12  13
ENDBRANCH  11  12
ENDBRANCH   9  11
BRANCH   1  19
ATOM     19  C   UNL     1      -3.410  -0.252  -1.486  0.00  0.00    +0.132 C 
BRANCH  19  20
ATOM     20  C   UNL     1      -4.347  -0.951  -0.538  0.00  0.00    +0.000 C 
ATOM     21  C   UNL     1      -5.373  -0.234   0.063  0.00  0.00    -0.002 C 
ATOM     22  C   UNL     1      -4.173  -2.303  -0.277  0.00  0.00    -0.002 C 
ATOM     23  C   UNL     1      -6.241  -0.881   0.942  0.00  0.00    -0.000 C 
ATOM     24  C   UNL     1      -5.041  -2.951   0.602  0.00  0.00    -0.000 C 
ATOM     25  C   UNL     1      -6.075  -2.240   1.212  0.00  0.00    -0.000 C 
ENDBRANCH  19  20
ENDBRANCH   1  19
BRANCH   2  26
ATOM     26  C   UNL     1      -0.468   2.919   1.013  0.00  0.00    +0.112 C 
BRANCH  26  29
ATOM     27  O   UNL     1       0.322   3.735  -1.133  0.00  0.00    -0.275 OA
ATOM     28  N   UNL     1       0.756   4.988   0.743  0.00  0.00    -0.329 N 
ATOM     29  C   UNL     1       0.235   3.897   0.081  0.00  0.00    +0.224 C 
ATOM     30  H   UNL     1       1.234   5.687   0.241  0.00  0.00    +0.145 HD
ATOM     31  H   UNL     1       0.651   5.068   1.719  0.00  0.00    +0.145 HD
ENDBRANCH  26  29
ENDBRANCH   2  26
TORSDOF 10
