REMARK  Name = 247978
REMARK  7 active torsions:
REMARK  status: ('A' for Active; 'I' for Inactive)
REMARK    1  A    between atoms: C_1  and  C_2
REMARK    2  A    between atoms: C_1  and  O_11
REMARK    3  A    between atoms: C_1  and  CA_13
REMARK    4  A    between atoms: C_7  and  N_10
REMARK    5  A    between atoms: CA_13  and  N_15
REMARK    6  A    between atoms: CA_13  and  C_19
REMARK    7  A    between atoms: C_19  and  O_20
REMARK                            x       y       z     vdW  Elec       q    Type
REMARK                         _______ _______ _______ _____ _____    ______ ____
ROOT
ATOM      1  C   UNL     1      -0.989  -0.362   0.963  0.00  0.00    +0.153 C 
ENDROOT
BRANCH   1   2
ATOM      2  C   UNL     1       0.471  -0.184   0.614  0.00  0.00    +0.006 C 
ATOM      3  C   UNL     1       1.345  -1.242   0.800  0.00  0.00    -0.000 C 
ATOM      4  C   UNL     1       0.905   1.032   0.114  0.00  0.00    -0.000 C 
ATOM      5  C   UNL     1       2.693  -1.078   0.478  0.00  0.00    +0.024 C 
ATOM      6  C   UNL     1       2.252   1.196  -0.209  0.00  0.00    +0.024 C 
ATOM      7  C   UNL     1       3.146   0.140  -0.027  0.00  0.00    +0.143 C 
BRANCH   7  10
ATOM      8  O   UNL     1       5.304  -0.655  -0.184  0.00  0.00    -0.126 OA
ATOM      9  O   UNL     1       4.904   1.411  -0.809  0.00  0.00    -0.126 OA
ATOM     10  N   UNL     1       4.517   0.307  -0.356  0.00  0.00    +0.058 N 
ENDBRANCH   7  10
ENDBRANCH   1   2
BRANCH   1  11
ATOM     11  O   UNL     1      -1.270   0.525   2.051  0.00  0.00    -0.378 OA
ATOM     12  H   UNL     1      -2.203   0.439   2.305  0.00  0.00    +0.211 HD
ENDBRANCH   1  11
BRANCH   1  13
ATOM     13  CA  UNL     1      -1.953  -0.064  -0.205  0.00  0.00    +0.132 C 
BRANCH  13  15
ATOM     14  O   UNL     1      -4.227   1.471  -1.153  0.00  0.00    -0.275 OA
ATOM     15  N   UNL     1      -3.324  -0.138   0.265  0.00  0.00    -0.301 N 
ATOM     16  C   UNL     1      -4.339   0.640  -0.255  0.00  0.00    +0.223 C 
ATOM     17  C   UNL     1      -5.665   0.346   0.393  0.00  0.00    +0.095 C 
ATOM     18  H   UNL     1      -3.540  -0.772   0.987  0.00  0.00    +0.150 HD
ENDBRANCH  13  15
BRANCH  13  19
ATOM     19  C   UNL     1      -1.779  -0.990  -1.414  0.00  0.00    +0.159 C 
BRANCH  19  20
ATOM     20  O   UNL     1      -1.992  -2.352  -1.066  0.00  0.00    -0.380 OA
ATOM     21  H   UNL     1      -1.874  -2.909  -1.852  0.00  0.00    +0.211 HD
ENDBRANCH  19  20
ENDBRANCH  13  19
ENDBRANCH   1  13
TORSDOF 7
