REMARK  Name = 49852385
REMARK  3 active torsions:
REMARK  status: ('A' for Active; 'I' for Inactive)
REMARK    1  A    between atoms: C_1  and  N_7
REMARK    2  A    between atoms: C_2  and  O_14
REMARK    3  A    between atoms: C_3  and  C_13
REMARK                            x       y       z     vdW  Elec       q    Type
REMARK                         _______ _______ _______ _____ _____    ______ ____
ROOT
ATOM      1  C   UNL     1       0.334  -0.945   0.244  0.00  0.00    +0.066 C 
ATOM      2  C   UNL     1       1.840  -0.603   0.089  0.00  0.00    +0.145 C 
ATOM      3  C   UNL     1      -0.587   0.216  -0.027  0.00  0.00    +0.094 C 
ATOM      4  C   UNL     1       2.164   0.864   0.160  0.00  0.00    +0.038 C 
ATOM      5  C   UNL     1      -0.167   1.486  -0.101  0.00  0.00    +0.008 C 
ATOM      6  C   UNL     1       1.223   1.816   0.089  0.00  0.00    +0.003 C 
ENDROOT
BRANCH   1   7
ATOM      7  N   UNL     1       0.130  -1.481   1.630  0.00  0.00    -0.413 NA
ATOM      8  H   UNL     1       0.764  -2.264   1.788  0.00  0.00    +0.121 HD
ATOM      9  H   UNL     1      -0.834  -1.798   1.733  0.00  0.00    +0.121 HD
ATOM     10  H   UNL     1       0.321  -0.746   2.311  0.00  0.00    +0.121 HD
ENDBRANCH   1   7
BRANCH   3  13
ATOM     11  O   UNL     1      -2.834   0.549   0.565  0.00  0.00    -0.241 OA
ATOM     12  O   UNL     1      -2.338  -0.794  -1.220  0.00  0.00    -0.241 OA
ATOM     13  C   UNL     1      -2.064  -0.034  -0.249  0.00  0.00    +0.389 C 
ENDBRANCH   3  13
BRANCH   2  14
ATOM     14  O   UNL     1       2.300  -1.075  -1.179  0.00  0.00    -0.504 OA
ATOM     15  H   UNL     1       2.108  -2.022  -1.262  0.00  0.00    +0.292 HD
ENDBRANCH   2  14
TORSDOF 3
