REMARK  Name = 5289090
REMARK  6 active torsions:
REMARK  status: ('A' for Active; 'I' for Inactive)
REMARK    1  A    between atoms: C_1  and  C_6
REMARK    2  A    between atoms: C_2  and  C_13
REMARK    3  A    between atoms: C_15  and  C_16
REMARK    4  A    between atoms: C_17  and  C_18
REMARK    5  A    between atoms: C_20  and  C_21
REMARK    6  A    between atoms: C_21  and  O_22
REMARK                            x       y       z     vdW  Elec       q    Type
REMARK                         _______ _______ _______ _____ _____    ______ ____
ROOT
ATOM      1  C   UNL     1      -1.878  -0.863  -0.370  0.00  0.00    -0.005 C 
ATOM      2  C   UNL     1      -0.681  -0.294  -0.160  0.00  0.00    -0.005 C 
ENDROOT
BRANCH   1   6
ATOM      3  O   UNL     1      -4.828   2.961  -0.294  0.00  0.00    -0.292 OA
ATOM      4  C   UNL     1      -4.229  -1.094   0.538  0.00  0.00    +0.019 C 
ATOM      5  C   UNL     1      -5.306  -0.230   1.235  0.00  0.00    +0.012 C 
ATOM      6  C   UNL     1      -3.137  -0.195  -0.080  0.00  0.00    -0.024 C 
ATOM      7  C   UNL     1      -5.805   0.896   0.356  0.00  0.00    +0.069 C 
ATOM      8  C   UNL     1      -4.880  -1.951  -0.569  0.00  0.00    +0.004 C 
ATOM      9  C   UNL     1      -3.676  -2.043   1.631  0.00  0.00    +0.004 C 
ATOM     10  C   UNL     1      -3.317   1.121  -0.348  0.00  0.00    +0.009 C 
ATOM     11  C   UNL     1      -4.656   1.759  -0.090  0.00  0.00    +0.169 C 
ATOM     12  C   UNL     1      -2.309   2.069  -0.946  0.00  0.00    +0.034 C 
ENDBRANCH   1   6
BRANCH   2  13
ATOM     13  C   UNL     1       0.632  -0.893  -0.423  0.00  0.00    -0.022 C 
ATOM     14  C   UNL     1       0.650  -2.292  -0.988  0.00  0.00    +0.031 C 
ATOM     15  C   UNL     1       1.735  -0.163  -0.147  0.00  0.00    -0.004 C 
BRANCH  15  16
ATOM     16  C   UNL     1       3.123  -0.547  -0.326  0.00  0.00    -0.001 C 
ATOM     17  C   UNL     1       4.145   0.269  -0.013  0.00  0.00    -0.005 C 
BRANCH  17  18
ATOM     18  C   UNL     1       5.575  -0.023  -0.155  0.00  0.00    -0.024 C 
ATOM     19  C   UNL     1       5.959  -1.370  -0.710  0.00  0.00    +0.031 C 
ATOM     20  C   UNL     1       6.464   0.924   0.212  0.00  0.00    +0.001 C 
BRANCH  20  21
ATOM     21  C   UNL     1       7.959   0.869   0.166  0.00  0.00    +0.163 C 
BRANCH  21  22
ATOM     22  O   UNL     1       8.459   1.089   1.480  0.00  0.00    -0.377 OA
ATOM     23  H   UNL     1       9.428   1.056   1.467  0.00  0.00    +0.211 HD
ENDBRANCH  21  22
ENDBRANCH  20  21
ENDBRANCH  17  18
ENDBRANCH  15  16
ENDBRANCH   2  13
TORSDOF 6
