REMARK  Name = 5287846
REMARK  4 active torsions:
REMARK  status: ('A' for Active; 'I' for Inactive)
REMARK    1  A    between atoms: C_4  and  C_15
REMARK    2  A    between atoms: C_12  and  C_20
REMARK    3  A    between atoms: C_15  and  O_18
REMARK    4  A    between atoms: C_20  and  C_23
REMARK                            x       y       z     vdW  Elec       q    Type
REMARK                         _______ _______ _______ _____ _____    ______ ____
ROOT
ATOM      1  O   UNL     1      -3.247   1.058  -0.203  0.00  0.00    -0.477 OA
ATOM      2  O   UNL     1       1.528   1.771  -0.161  0.00  0.00    -0.421 OA
ATOM      3  O   UNL     1       3.793   2.052  -0.141  0.00  0.00    -0.245 OA
ATOM      4  C   UNL     1      -3.992  -0.145  -0.530  0.00  0.00    +0.194 C 
ATOM      5  C   UNL     1      -3.122  -1.370  -0.208  0.00  0.00    +0.075 C 
ATOM      6  C   UNL     1      -1.788  -0.729  -0.247  0.00  0.00    +0.016 C 
ATOM      7  C   UNL     1      -1.938   0.651  -0.216  0.00  0.00    +0.138 C 
ATOM      8  C   UNL     1      -0.532  -1.313  -0.246  0.00  0.00    +0.002 C 
ATOM      9  C   UNL     1       0.589  -0.475  -0.224  0.00  0.00    +0.034 C 
ATOM     10  C   UNL     1      -0.853   1.503  -0.180  0.00  0.00    +0.074 C 
ATOM     11  C   UNL     1       0.410   0.913  -0.190  0.00  0.00    +0.152 C 
ATOM     12  C   UNL     1       3.006  -0.188  -0.198  0.00  0.00    +0.057 C 
ATOM     13  C   UNL     1       1.943  -1.003  -0.225  0.00  0.00    +0.005 C 
ATOM     14  C   UNL     1       2.834   1.288  -0.165  0.00  0.00    +0.342 C 
ENDROOT
BRANCH   4  15
ATOM     15  C   UNL     1      -5.301  -0.140   0.243  0.00  0.00    +0.125 C 
ATOM     16  C   UNL     1      -6.138  -1.381  -0.079  0.00  0.00    +0.033 C 
ATOM     17  C   UNL     1      -6.101   1.131  -0.049  0.00  0.00    +0.033 C 
BRANCH  15  18
ATOM     18  O   UNL     1      -5.010  -0.147   1.644  0.00  0.00    -0.383 OA
ATOM     19  H   UNL     1      -4.501  -0.942   1.865  0.00  0.00    +0.210 HD
ENDBRANCH  15  18
ENDBRANCH   4  15
BRANCH  12  20
ATOM     20  C   UNL     1       4.412  -0.705  -0.199  0.00  0.00    +0.044 C 
ATOM     21  C   UNL     1       4.378  -2.246  -0.256  0.00  0.00    +0.009 C 
ATOM     22  C   UNL     1       5.137  -0.183  -1.455  0.00  0.00    +0.009 C 
BRANCH  20  23
ATOM     23  C   UNL     1       5.222  -0.292   1.024  0.00  0.00    -0.022 C 
ATOM     24  C   UNL     1       4.768  -0.050   2.262  0.00  0.00    -0.005 C 
ENDBRANCH  20  23
ENDBRANCH  12  20
TORSDOF 4
