REMARK  Name = 447731
REMARK  4 active torsions:
REMARK  status: ('A' for Active; 'I' for Inactive)
REMARK    1  A    between atoms: N_2  and  C_13
REMARK    2  A    between atoms: C_3  and  C_19
REMARK    3  A    between atoms: C_6  and  C_17
REMARK    4  A    between atoms: C_27  and  C_31
REMARK                            x       y       z     vdW  Elec       q    Type
REMARK                         _______ _______ _______ _____ _____    ______ ____
ROOT
ATOM      1  O   UNL     1      -0.068  -2.436   0.093  0.00  0.00    -0.270 OA
ATOM      2  N   UNL     1      -1.040  -0.295   0.138  0.00  0.00    -0.280 N 
ATOM      3  C   UNL     1       0.018  -1.213   0.133  0.00  0.00    +0.249 C 
ATOM      4  H   UNL     1      -0.787   0.656   0.173  0.00  0.00    +0.155 HD
ENDROOT
BRANCH   2  13
ATOM      5  N   UNL     1      -7.477  -0.306   0.470  0.00  0.00    +0.387 N 
ATOM      6  C   UNL     1      -5.714   1.387   0.112  0.00  0.00    +0.001 C 
ATOM      7  C   UNL     1      -4.707   0.247   0.064  0.00  0.00    -0.029 C 
ATOM      8  C   UNL     1      -7.136   0.917  -0.254  0.00  0.00    -0.077 C 
ATOM      9  C   UNL     1      -5.157  -1.089   0.051  0.00  0.00    -0.048 C 
ATOM     10  C   UNL     1      -6.630  -1.410   0.011  0.00  0.00    -0.055 C 
ATOM     11  C   UNL     1      -3.325   0.492   0.113  0.00  0.00    +0.010 C 
ATOM     12  C   UNL     1      -4.228  -2.140   0.025  0.00  0.00    -0.005 C 
ATOM     13  C   UNL     1      -2.410  -0.563   0.100  0.00  0.00    +0.050 C 
ATOM     14  C   UNL     1      -2.861  -1.877   0.050  0.00  0.00    +0.014 C 
ATOM     15  H   UNL     1      -8.456  -0.538   0.300  0.00  0.00    -0.084 HD
ATOM     16  H   UNL     1      -7.325  -0.159   1.468  0.00  0.00    -0.084 HD
BRANCH   6  17
ATOM     17  C   UNL     1      -5.345   2.572  -0.788  0.00  0.00    +0.002 C 
ATOM     18  C   UNL     1      -6.365   3.684  -0.673  0.00  0.00    +0.000 C 
ENDBRANCH   6  17
ENDBRANCH   2  13
BRANCH   3  19
ATOM     19  C   UNL     1       1.378  -0.618   0.210  0.00  0.00    +0.054 C 
ATOM     20  C   UNL     1       3.731  -0.762  -0.269  0.00  0.00    +0.000 C 
ATOM     21  C   UNL     1       3.918   0.495   0.355  0.00  0.00    +0.000 C 
ATOM     22  C   UNL     1       2.439  -1.311  -0.334  0.00  0.00    +0.005 C 
ATOM     23  C   UNL     1       1.533   0.605   0.822  0.00  0.00    +0.005 C 
ATOM     24  C   UNL     1       2.808   1.165   0.896  0.00  0.00    +0.000 C 
ATOM     25  C   UNL     1       5.209   1.044   0.421  0.00  0.00    +0.003 C 
ATOM     26  C   UNL     1       4.840  -1.432  -0.809  0.00  0.00    +0.000 C 
ATOM     27  C   UNL     1       6.300   0.364  -0.121  0.00  0.00    +0.031 C 
ATOM     28  C   UNL     1       6.115  -0.872  -0.735  0.00  0.00    +0.003 C 
BRANCH  27  31
ATOM     29  N   UNL     1       8.739   0.291  -0.577  0.00  0.00    -0.343 N 
ATOM     30  N   UNL     1       7.804   2.116   0.541  0.00  0.00    -0.285 NA
ATOM     31  C   UNL     1       7.630   0.946  -0.045  0.00  0.00    +0.117 C 
ATOM     32  H   UNL     1       9.631   0.703  -0.515  0.00  0.00    +0.144 HD
ATOM     33  H   UNL     1       8.631  -0.584  -1.016  0.00  0.00    +0.144 HD
ATOM     34  H   UNL     1       8.704   2.512   0.594  0.00  0.00    +0.188 HD
ENDBRANCH  27  31
ENDBRANCH   3  19
TORSDOF 4
