REMARK  Name = 444306
REMARK  5 active torsions:
REMARK  status: ('A' for Active; 'I' for Inactive)
REMARK    1  A    between atoms: C_1  and  C_3
REMARK    2  A    between atoms: C_1  and  C_9
REMARK    3  A    between atoms: C_9  and  S_10
REMARK    4  A    between atoms: C_9  and  C_13
REMARK    5  A    between atoms: C_13  and  O_14
REMARK                            x       y       z     vdW  Elec       q    Type
REMARK                         _______ _______ _______ _____ _____    ______ ____
ROOT
ATOM      1  C   UNL     1      -1.129  -0.959  -0.756  0.00  0.00    +0.048 C 
ENDROOT
BRANCH   1   3
ATOM      2  I   UNL     1       4.901   0.643   0.472  0.00  0.00    -0.043 I 
ATOM      3  C   UNL     1       0.285  -0.582  -0.468  0.00  0.00    -0.021 C 
ATOM      4  C   UNL     1       0.768   0.667  -0.856  0.00  0.00    -0.004 C 
ATOM      5  C   UNL     1       1.125  -1.481   0.190  0.00  0.00    -0.004 C 
ATOM      6  C   UNL     1       2.091   1.018  -0.586  0.00  0.00    +0.005 C 
ATOM      7  C   UNL     1       2.448  -1.130   0.460  0.00  0.00    +0.005 C 
ATOM      8  C   UNL     1       2.931   0.120   0.071  0.00  0.00    +0.030 C 
ENDBRANCH   1   3
BRANCH   1   9
ATOM      9  C   UNL     1      -2.108  -0.573   0.371  0.00  0.00    +0.147 C 
BRANCH   9  10
ATOM     10  S   UNL     1      -3.611  -1.613   0.290  0.00  0.00    -0.158 S 
ATOM     11  H   UNL     1      -3.262  -2.923   0.390  0.00  0.00    +0.103 HD
ENDBRANCH   9  10
BRANCH   9  13
ATOM     12  O   UNL     1      -3.456   1.301  -0.422  0.00  0.00    -0.249 OA
ATOM     13  C   UNL     1      -2.527   0.882   0.257  0.00  0.00    +0.324 C 
BRANCH  13  14
ATOM     14  O   UNL     1      -1.719   1.706   0.976  0.00  0.00    -0.480 OA
ATOM     15  H   UNL     1      -1.018   1.348   1.484  0.00  0.00    +0.295 HD
ENDBRANCH  13  14
ENDBRANCH   9  13
ENDBRANCH   1   9
TORSDOF 5
