REMARK  Name = 3340355
REMARK  0 active torsions:
REMARK  status: ('A' for Active; 'I' for Inactive)
REMARK                            x       y       z     vdW  Elec       q    Type
REMARK                         _______ _______ _______ _____ _____    ______ ____
ROOT
ATOM      1  O   UNL     1      -3.073   1.538  -0.146  0.00  0.00    -0.273 OA
ATOM      2  O   UNL     1       1.691   2.563   0.067  0.00  0.00    -0.208 OA
ATOM      3  N   UNL     1      -0.901  -1.364  -0.109  0.00  0.00    -0.316 N 
ATOM      4  N   UNL     1      -0.798   1.356  -0.031  0.00  0.00    -0.271 N 
ATOM      5  N   UNL     1       1.520  -1.405  -0.065  0.00  0.00    -0.263 N 
ATOM      6  N   UNL     1       2.821   0.564   0.029  0.00  0.00    -0.301 NA
ATOM      7  N   UNL     1       3.814  -1.569  -0.024  0.00  0.00    -0.320 N 
ATOM      8  C   UNL     1      -2.192  -0.709   0.040  0.00  0.00    +0.125 C 
ATOM      9  C   UNL     1      -2.072   0.821  -0.071  0.00  0.00    +0.242 C 
ATOM     10  C   UNL     1       0.321  -0.730  -0.060  0.00  0.00    +0.127 C 
ATOM     11  C   UNL     1      -3.129  -1.225  -1.055  0.00  0.00    +0.029 C 
ATOM     12  C   UNL     1      -2.749  -1.049   1.426  0.00  0.00    +0.029 C 
ATOM     13  C   UNL     1       0.354   0.614  -0.013  0.00  0.00    +0.174 C 
ATOM     14  C   UNL     1       1.671   1.336   0.031  0.00  0.00    +0.224 C 
ATOM     15  C   UNL     1       2.722  -0.740  -0.018  0.00  0.00    +0.248 C 
ATOM     16  H   UNL     1      -0.901  -2.338  -0.257  0.00  0.00    +0.148 HD
ATOM     17  H   UNL     1      -0.713   2.337  -0.014  0.00  0.00    +0.156 HD
ATOM     18  H   UNL     1       1.516  -2.389  -0.103  0.00  0.00    +0.157 HD
ATOM     19  H   UNL     1       3.691  -2.545  -0.061  0.00  0.00    +0.146 HD
ATOM     20  H   UNL     1       4.721  -1.188   0.008  0.00  0.00    +0.146 HD
ENDROOT
TORSDOF 0
