REMARK  Name = 1053
REMARK  8 active torsions:
REMARK  status: ('A' for Active; 'I' for Inactive)
REMARK    1  A    between atoms: C_2  and  C_18
REMARK    2  A    between atoms: C_3  and  C_10
REMARK    3  A    between atoms: C_4  and  O_8
REMARK    4  A    between atoms: C_10  and  O_11
REMARK    5  A    between atoms: O_11  and  P_12
REMARK    6  A    between atoms: P_12  and  O_14
REMARK    7  A    between atoms: P_12  and  O_16
REMARK    8  A    between atoms: C_18  and  N_19
REMARK                            x       y       z     vdW  Elec       q    Type
REMARK                         _______ _______ _______ _____ _____    ______ ____
ROOT
ATOM      1  N   UNL     1       2.156  -1.906   0.343  0.00  0.00    -0.245 NA
ATOM      2  C   UNL     1       1.100   0.653  -0.041  0.00  0.00    -0.009 C 
ATOM      3  C   UNL     1       0.287  -0.374   0.425  0.00  0.00    +0.024 C 
ATOM      4  C   UNL     1       2.440   0.403  -0.315  0.00  0.00    +0.141 C 
ATOM      5  C   UNL     1       2.915  -0.883  -0.108  0.00  0.00    +0.092 C 
ATOM      6  C   UNL     1       0.859  -1.625   0.599  0.00  0.00    +0.096 C 
ATOM      7  C   UNL     1       4.346  -1.206  -0.386  0.00  0.00    +0.055 C 
ENDROOT
BRANCH   4   8
ATOM      8  O   UNL     1       3.258   1.387  -0.771  0.00  0.00    -0.505 OA
ATOM      9  H   UNL     1       2.921   2.251  -0.906  0.00  0.00    +0.292 HD
ENDBRANCH   4   8
BRANCH   3  10
ATOM     10  C   UNL     1      -1.154  -0.163   0.734  0.00  0.00    +0.181 C 
BRANCH  10  11
ATOM     11  O   UNL     1      -1.931  -0.416  -0.431  0.00  0.00    -0.268 OA
BRANCH  11  12
ATOM     12  P   UNL     1      -3.536  -0.249  -0.333  0.00  0.00    +0.473 P 
ATOM     13  O   UNL     1      -4.283  -0.534  -1.603  0.00  0.00    -0.227 OA
BRANCH  12  14
ATOM     14  O   UNL     1      -3.732   1.240   0.266  0.00  0.00    -0.303 OA
ATOM     15  H   UNL     1      -3.215   1.331   1.082  0.00  0.00    +0.222 HD
ENDBRANCH  12  14
BRANCH  12  16
ATOM     16  O   UNL     1      -3.918  -1.205   0.914  0.00  0.00    -0.303 OA
ATOM     17  H   UNL     1      -3.391  -0.953   1.688  0.00  0.00    +0.222 HD
ENDBRANCH  12  16
ENDBRANCH  11  12
ENDBRANCH  10  11
ENDBRANCH   3  10
BRANCH   2  18
ATOM     18  C   UNL     1       0.539   2.024  -0.246  0.00  0.00    -0.056 C 
BRANCH  18  19
ATOM     19  N   UNL     1       0.653   2.854   0.953  0.00  0.00    +0.383 N 
ATOM     20  H   UNL     1       0.259   3.776   0.766  0.00  0.00    -0.089 HD
ATOM     21  H   UNL     1       1.637   2.950   1.207  0.00  0.00    -0.089 HD
ATOM     22  H   UNL     1       0.145   2.416   1.720  0.00  0.00    -0.089 HD
ENDBRANCH  18  19
ENDBRANCH   2  18
TORSDOF 8
