REMARK  Name = 675
REMARK  0 active torsions:
REMARK  status: ('A' for Active; 'I' for Inactive)
REMARK                            x       y       z     vdW  Elec       q    Type
REMARK                         _______ _______ _______ _____ _____    ______ ____
ROOT
ATOM      1  N   UNL     1       2.180   1.119   0.000  0.00  0.00    -0.315 N 
ATOM      2  N   UNL     1       2.233  -1.103   0.000  0.00  0.00    -0.315 N 
ATOM      3  C   UNL     1       0.867   0.722   0.000  0.00  0.00    +0.059 C 
ATOM      4  C   UNL     1      -1.511   0.688   0.000  0.00  0.00    -0.024 C 
ATOM      5  C   UNL     1      -1.484  -0.709   0.000  0.00  0.00    -0.024 C 
ATOM      6  C   UNL     1       0.927  -0.669   0.000  0.00  0.00    +0.059 C 
ATOM      7  C   UNL     1      -0.330   1.437   0.000  0.00  0.00    +0.011 C 
ATOM      8  C   UNL     1      -0.269  -1.406   0.000  0.00  0.00    +0.011 C 
ATOM      9  C   UNL     1      -2.815   1.421   0.000  0.00  0.00    +0.031 C 
ATOM     10  C   UNL     1      -2.755  -1.495   0.000  0.00  0.00    +0.031 C 
ATOM     11  C   UNL     1       2.957  -0.006   0.000  0.00  0.00    +0.182 C 
ATOM     12  H   UNL     1       2.505   2.049   0.000  0.00  0.00    +0.148 HD
ATOM     13  H   UNL     1       2.555  -2.033   0.000  0.00  0.00    +0.148 HD
ENDROOT
TORSDOF 0
