REMARK  Name = 17753929
REMARK  8 active torsions:
REMARK  status: ('A' for Active; 'I' for Inactive)
REMARK    1  A    between atoms: C_1  and  N_2
REMARK    2  A    between atoms: C_1  and  C_7
REMARK    3  A    between atoms: C_1  and  C_10
REMARK    4  A    between atoms: C_7  and  O_8
REMARK    5  A    between atoms: C_10  and  S_11
REMARK    6  A    between atoms: S_11  and  C_13
REMARK    7  A    between atoms: C_13  and  C_14
REMARK    8  A    between atoms: C_14  and  C_15
REMARK                            x       y       z     vdW  Elec       q    Type
REMARK                         _______ _______ _______ _____ _____    ______ ____
ROOT
ATOM      1  C   UNK     1       2.418  -0.443  -0.597  0.00  0.00    +0.047 C 
ENDROOT
BRANCH   1   2
ATOM      2  N   UNK     1       3.309  -1.599  -0.475  0.00  0.00    +0.389 N 
ATOM      3  H   UNK     1       2.936  -2.374  -1.022  0.00  0.00    -0.088 HD
ATOM      4  H   UNK     1       3.376  -1.875   0.505  0.00  0.00    -0.088 HD
ATOM      5  H   UNK     1       4.236  -1.352  -0.823  0.00  0.00    -0.088 HD
ENDBRANCH   1   2
BRANCH   1   7
ATOM      6  O   UNK     1       3.630   0.497   1.274  0.00  0.00    -0.253 OA
ATOM      7  C   UNK     1       3.013   0.681   0.231  0.00  0.00    +0.294 C 
BRANCH   7   8
ATOM      8  O   UNK     1       2.769   1.919  -0.270  0.00  0.00    -0.482 OA
ATOM      9  H   UNK     1       2.292   2.014  -1.071  0.00  0.00    +0.295 HD
ENDBRANCH   7   8
ENDBRANCH   1   7
BRANCH   1  10
ATOM     10  C   UNK     1       1.008  -0.818  -0.137  0.00  0.00    +0.054 C 
BRANCH  10  11
ATOM     11  S   UNK     1      -0.234   0.339  -0.755  0.00  0.00    -0.079 S 
BRANCH  11  13
ATOM     12  O   UNK     1      -1.669  -1.297   0.735  0.00  0.00    -0.285 OA
ATOM     13  C   UNK     1      -1.689  -0.313   0.007  0.00  0.00    +0.199 C 
BRANCH  13  14
ATOM     14  C   UNK     1      -2.941   0.472  -0.333  0.00  0.00    +0.076 C 
BRANCH  14  15
ATOM     15  C   UNK     1      -4.186  -0.126   0.320  0.00  0.00    +0.009 C 
ATOM     16  C   UNK     1      -5.429   0.688   0.000  0.00  0.00    +0.000 C 
ENDBRANCH  14  15
ENDBRANCH  13  14
ENDBRANCH  11  13
ENDBRANCH  10  11
ENDBRANCH   1  10
TORSDOF 8
