REMARK  Name = 572
REMARK  7 active torsions:
REMARK  status: ('A' for Active; 'I' for Inactive)
REMARK    1  A    between atoms: C_1  and  C_2
REMARK    2  A    between atoms: C_1  and  C_9
REMARK    3  A    between atoms: C_2  and  P_3
REMARK    4  A    between atoms: P_3  and  O_5
REMARK    5  A    between atoms: P_3  and  O_7
REMARK    6  A    between atoms: C_9  and  N_11
REMARK    7  A    between atoms: N_11  and  O_13
REMARK                            x       y       z     vdW  Elec       q    Type
REMARK                         _______ _______ _______ _____ _____    ______ ____
ROOT
ATOM      1  C   UNL     1       0.009  -0.710  -0.943  0.00  0.00    +0.037 C 
ENDROOT
BRANCH   1   2
ATOM      2  C   UNL     1       0.678   0.380  -0.113  0.00  0.00    +0.117 C 
BRANCH   2   3
ATOM      3  P   UNL     1       2.465   0.174   0.050  0.00  0.00    +0.337 P 
ATOM      4  O   UNL     1       3.189   0.183  -1.252  0.00  0.00    -0.258 OA
BRANCH   3   5
ATOM      5  O   UNL     1       2.582  -1.176   0.918  0.00  0.00    -0.324 OA
ATOM      6  H   UNL     1       3.518  -1.384   1.068  0.00  0.00    +0.220 HD
ENDBRANCH   3   5
BRANCH   3   7
ATOM      7  O   UNL     1       2.856   1.341   1.088  0.00  0.00    -0.324 OA
ATOM      8  H   UNL     1       3.812   1.322   1.251  0.00  0.00    +0.220 HD
ENDBRANCH   3   7
ENDBRANCH   2   3
ENDBRANCH   1   2
BRANCH   1   9
ATOM      9  C   UNL     1      -1.489  -0.497  -1.135  0.00  0.00    +0.125 C 
BRANCH   9  11
ATOM     10  O   UNL     1      -3.071   1.696  -0.119  0.00  0.00    -0.263 OA
ATOM     11  N   UNL     1      -2.203  -0.440   0.111  0.00  0.00    -0.165 N 
ATOM     12  C   UNL     1      -2.927   0.650   0.504  0.00  0.00    +0.327 C 
BRANCH  11  13
ATOM     13  O   UNL     1      -2.090  -1.602   0.890  0.00  0.00    -0.291 OA
ATOM     14  H   UNL     1      -1.534  -2.248   0.427  0.00  0.00    +0.242 HD
ENDBRANCH  11  13
ENDBRANCH   9  11
ENDBRANCH   1   9
TORSDOF 7
