REMARK  Name = 1855
REMARK  6 active torsions:
REMARK  status: ('A' for Active; 'I' for Inactive)
REMARK    1  A    between atoms: C_5  and  C_12
REMARK    2  A    between atoms: C_12  and  C_13
REMARK    3  A    between atoms: C_13  and  C_14
REMARK    4  A    between atoms: C_13  and  C_17
REMARK    5  A    between atoms: C_14  and  O_15
REMARK    6  A    between atoms: C_17  and  O_18
REMARK                            x       y       z     vdW  Elec       q    Type
REMARK                         _______ _______ _______ _____ _____    ______ ____
ROOT
ATOM      1  O   UNL     1      -3.354  -1.691   0.595  0.00  0.00    -0.267 OA
ATOM      2  O   UNL     1      -2.263   2.728  -0.067  0.00  0.00    -0.247 OA
ATOM      3  N   UNL     1      -0.692   1.105  -0.485  0.00  0.00    -0.311 N 
ATOM      4  N   UNL     1      -2.817   0.520   0.276  0.00  0.00    -0.275 N 
ATOM      5  C   UNL     1      -0.300  -0.216  -0.519  0.00  0.00    +0.038 A 
ATOM      6  C   UNL     1      -1.143  -1.203  -0.156  0.00  0.00    +0.046 A 
ATOM      7  C   UNL     1      -2.533  -0.835   0.273  0.00  0.00    +0.258 A 
ATOM      8  C   UNL     1      -0.828  -2.670  -0.112  0.00  0.00    +0.037 C 
ATOM      9  C   UNL     1      -1.944   1.538  -0.090  0.00  0.00    +0.327 A 
ATOM     10  H   UNL     1      -0.037   1.786  -0.761  0.00  0.00    +0.170 HD
ATOM     11  H   UNL     1      -3.720   0.788   0.563  0.00  0.00    +0.173 HD
ENDROOT
BRANCH   5  12
ATOM     12  C   UNL     1       1.110  -0.416  -1.001  0.00  0.00    +0.049 C 
BRANCH  12  13
ATOM     13  C   UNL     1       2.147  -0.406   0.134  0.00  0.00    +0.064 C 
BRANCH  13  14
ATOM     14  C   UNL     1       2.135   0.904   0.942  0.00  0.00    +0.140 C 
BRANCH  14  15
ATOM     15  O   UNL     1       2.432   2.014   0.105  0.00  0.00    -0.382 OA
ATOM     16  H   UNL     1       2.419   2.829   0.632  0.00  0.00    +0.210 HD
ENDBRANCH  14  15
ENDBRANCH  13  14
BRANCH  13  17
ATOM     17  C   UNL     1       3.536  -0.682  -0.463  0.00  0.00    +0.140 C 
BRANCH  17  18
ATOM     18  O   UNL     1       4.516  -0.691   0.568  0.00  0.00    -0.382 OA
ATOM     19  H   UNL     1       5.389  -0.866   0.183  0.00  0.00    +0.210 HD
ENDBRANCH  17  18
ENDBRANCH  13  17
ENDBRANCH  12  13
ENDBRANCH   5  12
TORSDOF 6
