REMARK  Name = 764
REMARK  0 active torsions:
REMARK  status: ('A' for Active; 'I' for Inactive)
REMARK                            x       y       z     vdW  Elec       q    Type
REMARK                         _______ _______ _______ _____ _____    ______ ____
ROOT
ATOM      1  O   UNL     1       0.282   2.636   0.000  0.00  0.00    -0.208 OA
ATOM      2  N   UNL     1       0.661  -1.431  -0.001  0.00  0.00    -0.263 N 
ATOM      3  N   UNL     1      -2.036   0.714   0.000  0.00  0.00    -0.304 N 
ATOM      4  N   UNL     1      -1.765  -1.506   0.000  0.00  0.00    -0.303 N 
ATOM      5  N   UNL     1       1.652   0.777   0.000  0.00  0.00    -0.301 NA
ATOM      6  N   UNL     1       2.948  -1.176   0.000  0.00  0.00    -0.320 N 
ATOM      7  C   UNL     1      -0.688   0.496   0.000  0.00  0.00    +0.170 C 
ATOM      8  C   UNL     1      -0.560  -0.870   0.000  0.00  0.00    +0.127 C 
ATOM      9  C   UNL     1       0.415   1.417   0.000  0.00  0.00    +0.223 C 
ATOM     10  C   UNL     1       1.731  -0.537   0.000  0.00  0.00    +0.248 C 
ATOM     11  C   UNL     1      -2.640  -0.520   0.000  0.00  0.00    +0.183 C 
ATOM     12  H   UNL     1       0.791  -2.407  -0.001  0.00  0.00    +0.157 HD
ATOM     13  H   UNL     1      -2.488   1.588   0.000  0.00  0.00    +0.149 HD
ATOM     14  H   UNL     1      -1.941  -2.475   0.000  0.00  0.00    +0.150 HD
ATOM     15  H   UNL     1       2.987  -2.159   0.000  0.00  0.00    +0.146 HD
ATOM     16  H   UNL     1       3.780  -0.649   0.001  0.00  0.00    +0.146 HD
ENDROOT
TORSDOF 0
