REMARK  Name = 65058
REMARK  4 active torsions:
REMARK  status: ('A' for Active; 'I' for Inactive)
REMARK    1  A    between atoms: N9_2  and  C1*_13
REMARK    2  A    between atoms: C3*_15  and  O3*_17
REMARK    3  A    between atoms: C4*_16  and  C5*_19
REMARK    4  A    between atoms: C5*_19  and  O5*_20
REMARK                            x       y       z     vdW  Elec       q    Type
REMARK                         _______ _______ _______ _____ _____    ______ ____
ROOT
ATOM      1  O6  I   A   1       4.462   1.395   0.304  0.00  0.00    -0.221 OA
ATOM      2  N9  I   A   1       0.132   0.127  -0.083  0.00  0.00    -0.212 NA
ATOM      3  N3  I   A   1       1.810  -1.617  -0.352  0.00  0.00    -0.259 NA
ATOM      4  N7  I   A   1       1.544   1.836   0.287  0.00  0.00    -0.242 NA
ATOM      5  N1  I   A   1       4.084  -0.853  -0.131  0.00  0.00    -0.183 NA
ATOM      6  C4  I   A   1       1.392  -0.366  -0.132  0.00  0.00    +0.172 C 
ATOM      7  C8  I   A   1       0.277   1.473   0.175  0.00  0.00    +0.205 C 
ATOM      8  C5  I   A   1       2.244   0.678   0.094  0.00  0.00    +0.167 C 
ATOM      9  C6  I   A   1       3.683   0.471   0.104  0.00  0.00    +0.168 C 
ATOM     10  C2  I   A   1       3.183  -1.776  -0.335  0.00  0.00    +0.211 C 
ATOM     11  H3  I   A   1       1.190  -2.364  -0.514  0.00  0.00    +0.127 HD
ENDROOT
BRANCH   2  13
ATOM     12  O4* I   A   1      -2.096   0.263  -0.888  0.00  0.00    -0.338 OA
ATOM     13  C1* I   A   1      -1.125  -0.592  -0.259  0.00  0.00    +0.182 C 
ATOM     14  C2* I   A   1      -1.751  -1.086   1.037  0.00  0.00    +0.079 C 
ATOM     15  C3* I   A   1      -3.212  -1.165   0.659  0.00  0.00    +0.144 C 
ATOM     16  C4* I   A   1      -3.388   0.009  -0.298  0.00  0.00    +0.173 C 
BRANCH  15  17
ATOM     17  O3* I   A   1      -3.431  -2.388  -0.040  0.00  0.00    -0.382 OA
ATOM     18  H3* I   A   1      -3.319  -3.134   0.570  0.00  0.00    +0.210 HD
ENDBRANCH  15  17
BRANCH  16  19
ATOM     19  C5* I   A   1      -3.842   1.279   0.408  0.00  0.00    +0.169 C 
BRANCH  19  20
ATOM     20  O5* I   A   1      -3.967   2.313  -0.553  0.00  0.00    -0.379 OA
ATOM     21  H5* I   A   1      -4.256   3.128  -0.114  0.00  0.00    +0.211 HD
ENDBRANCH  19  20
ENDBRANCH  16  19
ENDBRANCH   2  13
TORSDOF 4
