REMARK  Name = 955
REMARK  7 active torsions:
REMARK  status: ('A' for Active; 'I' for Inactive)
REMARK    1  A    between atoms: C_1  and  C_8
REMARK    2  A    between atoms: C_2  and  C_16
REMARK    3  A    between atoms: C_8  and  C_9
REMARK    4  A    between atoms: C_9  and  C_10
REMARK    5  A    between atoms: C_10  and  C_12
REMARK    6  A    between atoms: C_12  and  O_13
REMARK    7  A    between atoms: C_16  and  O_17
REMARK                            x       y       z     vdW  Elec       q    Type
REMARK                         _______ _______ _______ _____ _____    ______ ____
ROOT
ATOM      1  C   UNL     1      -1.145  -0.647   0.291  0.00  0.00    +0.041 C 
ATOM      2  C   UNL     1      -1.731   0.548  -0.059  0.00  0.00    +0.078 C 
ATOM      3  C   UNL     1      -1.783  -1.859   0.136  0.00  0.00    +0.003 C 
ATOM      4  C   UNL     1      -3.020   0.533  -0.590  0.00  0.00    +0.007 C 
ATOM      5  C   UNL     1      -3.072  -1.874  -0.395  0.00  0.00    +0.000 C 
ATOM      6  C   UNL     1      -3.691  -0.678  -0.758  0.00  0.00    +0.000 C 
ENDROOT
BRANCH   1   8
ATOM      7  O   UNL     1       0.381  -0.585   2.079  0.00  0.00    -0.291 OA
ATOM      8  C   UNL     1       0.234  -0.665   0.862  0.00  0.00    +0.174 C 
BRANCH   8   9
ATOM      9  C   UNL     1       1.417  -0.783  -0.087  0.00  0.00    +0.081 C 
BRANCH   9  10
ATOM     10  C   UNL     1       2.654  -0.068   0.443  0.00  0.00    +0.117 C 
BRANCH  10  12
ATOM     11  O   UNL     1       3.736  -0.778  -1.596  0.00  0.00    -0.250 OA
ATOM     12  C   UNL     1       3.805  -0.197  -0.520  0.00  0.00    +0.314 C 
BRANCH  12  13
ATOM     13  O   UNL     1       4.938   0.391  -0.060  0.00  0.00    -0.480 OA
ATOM     14  H   UNL     1       4.936   0.823   0.772  0.00  0.00    +0.295 HD
ENDBRANCH  12  13
ENDBRANCH  10  12
ENDBRANCH   9  10
ENDBRANCH   8   9
ENDBRANCH   1   8
BRANCH   2  16
ATOM     15  O   UNL     1      -0.220   2.090   0.973  0.00  0.00    -0.245 OA
ATOM     16  C   UNL     1      -1.056   1.830   0.104  0.00  0.00    +0.338 C 
BRANCH  16  17
ATOM     17  O   UNL     1      -1.448   2.743  -0.824  0.00  0.00    -0.477 OA
ATOM     18  H   UNL     1      -2.086   2.510  -1.470  0.00  0.00    +0.295 HD
ENDBRANCH  16  17
ENDBRANCH   2  16
TORSDOF 7
