REMARK  Name = 9584
REMARK  1 active torsions:
REMARK  status: ('A' for Active; 'I' for Inactive)
REMARK    1  A    between atoms: C_2  and  N_8
REMARK                            x       y       z     vdW  Elec       q    Type
REMARK                         _______ _______ _______ _____ _____    ______ ____
ROOT
ATOM      1  F   UNL     1       1.723  -1.432   0.000  0.00  0.00    -0.203 F 
ATOM      2  C   UNL     1       0.629   0.676   0.000  0.00  0.00    +0.069 C 
ATOM      3  C   UNL     1       0.588  -0.718   0.000  0.00  0.00    +0.153 C 
ATOM      4  C   UNL     1      -0.558   1.408   0.000  0.00  0.00    +0.016 C 
ATOM      5  C   UNL     1      -0.640  -1.380   0.000  0.00  0.00    +0.031 C 
ATOM      6  C   UNL     1      -1.786   0.747   0.000  0.00  0.00    +0.001 C 
ATOM      7  C   UNL     1      -1.827  -0.647   0.000  0.00  0.00    +0.002 C 
ENDROOT
BRANCH   2   8
ATOM      8  N   UNL     1       1.869   1.347   0.000  0.00  0.00    -0.355 N 
ATOM      9  H   UNL     1       2.708   0.832   0.000  0.00  0.00    +0.142 HD
ATOM     10  H   UNL     1       1.896   2.331   0.000  0.00  0.00    +0.142 HD
ENDBRANCH   2   8
TORSDOF 1
