REMARK  Name = 445032
REMARK  6 active torsions:
REMARK  status: ('A' for Active; 'I' for Inactive)
REMARK    1  A    between atoms: C_1  and  C_2
REMARK    2  A    between atoms: C_1  and  C_13
REMARK    3  A    between atoms: C_2  and  C_3
REMARK    4  A    between atoms: C_3  and  N_4
REMARK    5  A    between atoms: C_13  and  C_16
REMARK    6  A    between atoms: C_13  and  N_19
REMARK                            x       y       z     vdW  Elec       q    Type
REMARK                         _______ _______ _______ _____ _____    ______ ____
ROOT
ATOM      1  C   UNL     1      -0.704   0.530   0.201  0.00  0.00    -0.011 C 
ENDROOT
BRANCH   1   2
ATOM      2  C   UNL     1      -0.104  -0.719  -0.460  0.00  0.00    +0.022 C 
BRANCH   2   3
ATOM      3  C   UNL     1       1.325  -0.984   0.003  0.00  0.00    +0.100 C 
BRANCH   3   4
ATOM      4  N   UNL     1       2.222   0.119  -0.333  0.00  0.00    -0.347 N 
ATOM      5  N   UNL     1       4.418   1.166  -0.332  0.00  0.00    -0.372 N 
ATOM      6  N   UNL     1       4.104  -0.991   0.670  0.00  0.00    -0.372 N 
ATOM      7  C   UNL     1       3.578   0.107  -0.003  0.00  0.00    +0.167 C 
ATOM      8  H   UNL     1       1.857   0.900  -0.810  0.00  0.00    +0.163 HD
ATOM      9  H   UNL     1       4.059   1.949  -0.808  0.00  0.00    +0.159 HD
ATOM     10  H   UNL     1       5.371   1.133  -0.087  0.00  0.00    +0.159 HD
ATOM     11  H   UNL     1       3.520  -1.747   0.908  0.00  0.00    +0.159 HD
ATOM     12  H   UNL     1       5.059  -1.011   0.908  0.00  0.00    +0.159 HD
ENDBRANCH   3   4
ENDBRANCH   2   3
ENDBRANCH   1   2
BRANCH   1  13
ATOM     13  C   UNL     1      -2.135   0.804  -0.282  0.00  0.00    +0.013 C 
BRANCH  13  16
ATOM     14  O   UNL     1      -3.272  -0.777   1.167  0.00  0.00    -0.278 OA
ATOM     15  N   UNL     1      -3.679  -0.877  -1.092  0.00  0.00    -0.330 N 
ATOM     16  C   UNL     1      -3.081  -0.347   0.032  0.00  0.00    +0.199 C 
ATOM     17  H   UNL     1      -4.311  -1.627  -1.006  0.00  0.00    +0.145 HD
ATOM     18  H   UNL     1      -3.475  -0.505  -1.980  0.00  0.00    +0.145 HD
ENDBRANCH  13  16
BRANCH  13  19
ATOM     19  N   UNL     1      -2.671   1.966   0.429  0.00  0.00    +0.387 N 
ATOM     20  H   UNL     1      -2.075   2.775   0.256  0.00  0.00    -0.089 HD
ATOM     21  H   UNL     1      -2.696   1.770   1.430  0.00  0.00    -0.089 HD
ATOM     22  H   UNL     1      -3.615   2.162   0.098  0.00  0.00    -0.089 HD
ENDBRANCH  13  19
ENDBRANCH   1  13
TORSDOF 6
