REMARK  Name = 449094
REMARK  2 active torsions:
REMARK  status: ('A' for Active; 'I' for Inactive)
REMARK    1  A    between atoms: CA_9  and  CB_13
REMARK    2  A    between atoms: CB_13  and  CG_16
REMARK                            x       y       z     vdW  Elec       q    Type
REMARK                         _______ _______ _______ _____ _____    ______ ____
ROOT
ATOM      1  O   HIS A   2       0.409  -1.558   0.893  0.00  0.00    -0.273 OA
ATOM      2  O   PRO A   1      -2.989   2.419   0.043  0.00  0.00    -0.273 OA
ATOM      3  N   PRO A   1      -1.637  -0.810   0.108  0.00  0.00    -0.272 N 
ATOM      4  N   HIS A   2      -0.843   1.681   0.470  0.00  0.00    -0.297 N 
ATOM      5  CA  PRO A   1      -2.371   0.189  -0.656  0.00  0.00    +0.152 C 
ATOM      6  CB  PRO A   1      -3.810  -0.310  -0.623  0.00  0.00    +0.031 C 
ATOM      7  CD  PRO A   1      -2.422  -2.012   0.327  0.00  0.00    +0.094 C 
ATOM      8  CG  PRO A   1      -3.642  -1.827  -0.565  0.00  0.00    +0.024 C 
ATOM      9  CA  HIS A   2       0.216   0.737   0.125  0.00  0.00    +0.155 C 
ATOM     10  C   HIS A   2      -0.306  -0.659   0.459  0.00  0.00    +0.244 C 
ATOM     11  C   PRO A   1      -2.146   1.527   0.016  0.00  0.00    +0.241 C 
ATOM     12  H   HIS A   2      -0.626   2.452   1.043  0.00  0.00    +0.150 HD
ENDROOT
BRANCH   9  13
ATOM     13  CB  HIS A   2       1.502   1.056   0.870  0.00  0.00    +0.071 C 
BRANCH  13  16
ATOM     14  ND1 HIS A   2       3.479  -0.456   0.799  0.00  0.00    -0.319 N 
ATOM     15  NE2 HIS A   2       4.276  -0.194  -1.258  0.00  0.00    -0.315 N 
ATOM     16  CG  HIS A   2       2.678   0.437   0.177  0.00  0.00    +0.040 C 
ATOM     17  CD2 HIS A   2       3.168   0.594  -1.077  0.00  0.00    +0.069 C 
ATOM     18  CE1 HIS A   2       4.437  -0.813  -0.109  0.00  0.00    +0.182 C 
ATOM     19  HD1 HIS A   2       3.391  -0.784   1.723  0.00  0.00    +0.148 HD
ATOM     20  HE2 HIS A   2       4.829  -0.278  -2.068  0.00  0.00    +0.148 HD
ENDBRANCH  13  16
ENDBRANCH   9  13
TORSDOF 2
