3776
  -OEChem-10051719533D

 12 11  0     0  0  0  0  0  0999 V2000
   -0.0004    1.3572   -0.1242 O   0  0  0  0  0  0  0  0  0  0  0  0
    0.0000    0.0177    0.3601 C   0  0  0  0  0  0  0  0  0  0  0  0
   -1.2599   -0.6878   -0.1179 C   0  0  0  0  0  0  0  0  0  0  0  0
    1.2603   -0.6871   -0.1179 C   0  0  0  0  0  0  0  0  0  0  0  0
   -0.0001    0.0646    1.4540 H   0  0  0  0  0  0  0  0  0  0  0  0
   -1.3079   -1.7139    0.2590 H   0  0  0  0  0  0  0  0  0  0  0  0
   -2.1507   -0.1484    0.2213 H   0  0  0  0  0  0  0  0  0  0  0  0
   -1.3061   -0.7138   -1.2122 H   0  0  0  0  0  0  0  0  0  0  0  0
    1.3089   -1.7132    0.2590 H   0  0  0  0  0  0  0  0  0  0  0  0
    2.1508   -0.1471    0.2213 H   0  0  0  0  0  0  0  0  0  0  0  0
    1.3066   -0.7131   -1.2122 H   0  0  0  0  0  0  0  0  0  0  0  0
   -0.0006    1.3242   -1.0961 H   0  0  0  0  0  0  0  0  0  0  0  0
  1  2  1  0  0  0  0
  1 12  1  0  0  0  0
  2  3  1  0  0  0  0
  2  4  1  0  0  0  0
  2  5  1  0  0  0  0
  3  6  1  0  0  0  0
  3  7  1  0  0  0  0
  3  8  1  0  0  0  0
  4  9  1  0  0  0  0
  4 10  1  0  0  0  0
  4 11  1  0  0  0  0
M  END
> <DATABASE_ID>
DB02325

> <DATABASE_NAME>
drugbank

> <ORIGINAL_SOURCE>
PUBCHEM

> <ORIGINAL_SOURCE_URL>
https://pubchem.ncbi.nlm.nih.gov/rest/pug/compound/inchikey/KFZMGEQAYNKOFK-UHFFFAOYSA-N/SDF?record_type=3d

> <SMILES>
CC(C)O

> <INCHI_IDENTIFIER>
InChI=1S/C3H8O/c1-3(2)4/h3-4H,1-2H3

> <INCHI_KEY>
KFZMGEQAYNKOFK-UHFFFAOYSA-N

> <FORMULA>
C3H8O

> <MOLECULAR_WEIGHT>
60.095

> <EXACT_MASS>
60.057514878

> <JCHEM_ACCEPTOR_COUNT>
1

> <JCHEM_AVERAGE_POLARIZABILITY>
7.137381657235111

> <JCHEM_BIOAVAILABILITY>
1

> <JCHEM_DONOR_COUNT>
1

> <JCHEM_FORMAL_CHARGE>
0

> <JCHEM_GHOSE_FILTER>
0

> <JCHEM_IUPAC>
propan-2-ol

> <ALOGPS_LOGP>
0.04

> <JCHEM_LOGP>
0.2548059106666668

> <ALOGPS_LOGS>
0.80

> <JCHEM_MDDR_LIKE_RULE>
0

> <JCHEM_NUMBER_OF_RINGS>
0

> <JCHEM_PHYSIOLOGICAL_CHARGE>
0

> <JCHEM_PKA_STRONGEST_ACIDIC>
17.262586277858762

> <JCHEM_PKA_STRONGEST_BASIC>
-1.8091447620645766

> <JCHEM_POLAR_SURFACE_AREA>
20.23

> <JCHEM_REFRACTIVITY>
17.4287

> <JCHEM_ROTATABLE_BOND_COUNT>
0

> <JCHEM_RULE_OF_FIVE>
1

> <ALOGPS_SOLUBILITY>
3.78e+02 g/l

> <JCHEM_TRADITIONAL_IUPAC>
isopropyl alcohol

> <JCHEM_VEBER_RULE>
1

> <DRUGBANK_ID>
DB02325

> <SECONDARY_ACCESSION_NUMBERS>
EXPT01912; DB04402

> <DRUG_GROUPS>
approved; investigational

> <GENERIC_NAME>
Isopropyl alcohol

> <SYNONYMS>
2-Propanol; Alcohol isopropÃ­lico; Isopropanol; Isopropyl alcohol

> <PRODUCTS>
25 Person ANSI; 3M DuraPrep Surgical; 3M SoluPrep; 3m Soluprep Sponge; 4047 Fist Aid Kit; 4048 Fist Aid Kit; 4051 First Aid Kit; 4052 First Aid Kit; 4072First Aid Kit; 4078 First Aid Kit; 4079 First Aid Kit; 4125 First Aid Kit; 4129 First Aid Kit; 4133 First Aid Kit; 4137 First Aid Kit; 4138 First Aid Kit; 4141 First Aid Kit; 4146 First Aid Kit; 4149 First Aid Kit; 4150 First Aid Kit; 4166 First Aid Kit; 4169 First Aid Kit; 4183 First Aid Kit; 4187 First Aid Kit; 4189 First Aid Kit; 4190 First Aid Kit; 4193 First Aid Kit; 4194 First Aid Kit; 4196 First Aid Kit; 4203 First Aid Kit; 4204 First Aid Kit; 4205 First Aid Kit; 4206 First Aid Kit; 4207 First Aid Kit; 4210 First Aid Kit; 4213 First Aid Kit; 4220 First Aid Kit; 4221 First Aid Kit; 4225 First Aid Kit; 4226 First Aid Kit; 4227 First Aid Kit; 4228 First Aid Kit; 4229 First Aid Kit; 4232 First Aid Kit; 4235 First Aid Kit; 4237 First Aid Kit; 4238 First Aid Kit; 4239 First Aid Kit; 4240 First Aid Kit; 4241 First Aid Kit; 4242 First Aid Kit; 4244 First Aid Kit; 4246 First Aid Kit; 4248 First Aid Kit; 4250 First Aid Kit; 4251 First Aid Kit; 4256 First Aid Kit; 4257 First Aid Kit; 4258 First Aid Kit; 4259 First Aid Kit; 4260 First Aid Kit; 4264 First Aid Kit; 4265 First Aid Kit; 4266 First Aid Kit; 4267 First Aid Kit; 4271 First Aid Kit; 4277 First Aid Kit; 4287 First Aid Kit; 4289 First Aid Kit; 4290 First Aid Kit; 4291 First Aid Kit; 4292 First Aid Kit; 4293 First Aid Kit; 4301 First Aid Kit; 4305 First Aid Kit; 4310 First Aid Kit; 4311 First Aid Kit; 4312 First Aid Kit; 4316 First Aid Kit; 4317 First Aid Kit; 4324 First Aid Kit; 4325 First Aid Kit; 4329 First Aid Kit; 4331 First Aid Kit; 4332 First Aid Kit; 4333 First Aid Kit; 4334 First Aid Kit; 4335 First Aid Kit; 4338 First Aid Kit; 4339 First Aid Kit; 4340 First Aid Kit; 4342 First Aid Kit; 4354 First Aid Kit; 4355 First Aid Kit; 4356 First Aid Kit; 4357 First Aid Kit; 4360 First Aid Kit; 4362 First Aid Kit; 4363 First Aid Kit; 4365 First Aid Kit; 4366 First Aid Kit; 4368 First Aid Kit; 4369 First Aid Kit; 4376 First Aid Kit; 4379 First Aid Kit; 4381 First Aid Kit; 4382 First Aid Kit; 4383 First Aid Kit; 4384 First Aid Kit; 4385 First Aid Kit; 4386 First Aid Kit; 4387 First Aid Kit; 4388 First Aid Kit; 4390 First Aid Kit; 4391 First Aid Kit; 4392 First Aid Kit; 4393 First Aid Kit; 4395 First Aid Kit; 4398 First Aid Kit; 4399 First Aid Kit; 4400 First Aid Kit; 50 Person ANSI; 50 percent Isopropyl alcohol; 50% Isopropyl Alcohol; 50% Isopropyl Rubbing Alcohol; 50% Isopropyl Rubbing Alcohol with Wintergreen; 50% Rubbing; 70%; 70% Isopropyl Alcohol; 70% Isopropyl Alcohol Well at Walgreens; 70% Isopropyl Rubbing Alcohol; 70% Isopropyl Rubbing Alcohol with Wintergreen; 70% Rubbing; 91 Percent Isopropyl alcohol; A 50% ISOPROPYL Rubbing Alcohol; ACME FIRST AID Contains 404 PIECES; AMSure Alcohol Prep; ARC 42 Essential First Aid Items; ARC Emergency Preparedness FIRST AID Contains 202 PIECES; ARC FIRST AID Contains 1000 PIECES; ARC FIRST AID Contains 101 PIECES; ARC FIRST AID Contains 101 PIECES Hardcase; ARC FIRST AID Contains 303 PIECES; ARC FIRST AID Contains 303 PIECES HARDCASE; ARC FIRST AID Contains 404 PIECES; ARC FIRST AID Emergency Preparedness Contains 167 PIECES; Acetone Alcohol Prep Pads Medium; Acetone Alcohol Swabsticks Singles; Acetone Isopropyl Alcohol; Acme Home/Office/Auto Kit; Acnomel Skin Tone Cream; Acunistat-30; Acunistat-60; Acunivive 90; Adventure First Aid .5 Tin; Adventure First Aid Water Resistant; Adyphren Amp II Kit; Adyphren Amp Kit; Adyphren II Kit; Adyphren Kit; Aerowipe; Agropharma Isopropyl Alcohol; Aid and First Sting Relief Prep Pad; Alcogel; Alcohol; Alcohol Cleansing; Alcohol Cleansing Pad; Alcohol Cotton Ball; Alcohol Extra-Thick; Alcohol Hand Problend; Alcohol Hand Sanitizer Problend; Alcohol Pad; Alcohol Prep; Alcohol Prep F400 70% Liq; Alcohol Prep Pad; Alcohol Prep Pad - Large; Alcohol Prep Pad - Medium; Alcohol Prep Pad Medium; Alcohol Prep Pad Medium Bulk; Alcohol Prep Pad with Benzocaine; Alcohol Prep Pad-Large; Alcohol Prep Pads; Alcohol Prep Pads - Non Sterile; Alcohol Prep Pads - Sterile; Alcohol Prep Pads Bulk; Alcohol Prep Pads Lightweight Non-Sterile; Alcohol Prep Pads Non Sterile Medium; Alcohol Prep Pads with Pain Relief; Alcohol Prep Swab with Pain Relief; Alcohol Prep pad; Alcohol Rub; Alcohol Swab; Alcohol Swab Sticks; Alcohol Swab with Benzocaine; Alcohol Swabs with Benzocaine; Alcohol Swabstick; Alcohol Swabsticks Singles; Alcohol Wipe; Alcohol sterile; Alcohol swab; Alcojel; Alcojel Gel 70%; Alcool Isopropylique A Friction; Alcool Isopropylique A Friction Rouge 70%usp; Alko Isol; Allure Isopropyl Rubbing Alcohol; Allure Isopropyl Rubbing Alcohol With Wintergreen; Alpet E-3; Alpet E3 Hand Sanitizer; Alpet E3 Hand Sanitizer Spray; American Red Cross First Aid Kit; Amg-50; Anesthesia S/I-40; Anesthesia S/I-50; Anesthesia S/I-60; Antiseptic; Antiseptic Swab; Aplicare ExCel AP; Aplicare Isopropyl Alcohol; Aqua-ear Dps; Assured; Assured Alcohol Cleansing Pad; Athletic Liniment; Auro Dri; Avonex; B-12 Compliance; B-12 Kit; BLUE ACME SLEEVE FIRST AID Contains 1000 PIECES; Baxedin 2% - 70%; Bay Rum Constanza; BeneFIX; Betalido Kit; Bioprep Liq; Biopropyl Liq 70%; Bl; Blood Culture Prep Kit; Bt; Bus and Classroom Yellow; CURAD Isopropyl Alcohol; CVS Alcohol Prep; CVS All Purpose First Aid Kit; CVS Ear Drops for Swimmers; CVS Health Alcohol Swabsticks; CVS Health All Purpose Kit; CVS Health Healing on the Go Kit; CVS Health Home Kit; CVS Health Isopropyl Rubbing Alcohol; CVS Health Medication and Topical Refill Pouch; CVS Health Sports Kit; CVS Pharmacy Toothache reliever; Cal Stat; Cal Stat Plus Antiseptic Handrub with Enhanced Emollients; CardinalHealth alcohol prep pads LARGE; CardinalHealth alcohol prep pads MEDIUM; Care Bus and Classroom Yellow; CareFine Alcohol Swabs 100 ct; CareFine Alcohol Swabs 200 Ct; CareTouch Alcohol Prep Pad; Caring Alcohol Non-Sterile, Medium; Certus Alcohol Prep; Chg; Chlora-cleanze; ChloraPrep One-Step; Chloraprep; Chloraprep Liq 0.5%; Chlorhexidine 0.5% Liq; Chlorhexidine and Isopropyl Alcohol Prep Pads; Chlorhexidine and Isopropyl Alcohol Swabsticks; Cida-stat Foam; Cida-stat Liq; Coachs First Aid Contains 102 Pieces; Code Brown; Coghlans Survival In A Can; Comfort; Coralite ALCOHOL PADS; Cortaren Corticosteroid/Anti-Inflammatory System; Curad Alcohol Non-Sterile, Extra Thick; Curad Alcohol Non-Sterile, Large; Curad Alcohol Non-Sterile, Medium; Curad Alcohol Prep Pads Medium; Curad Alcohol Sterile, Large; Curad Alcohol Sterile, Thick; Cut Care Alcohol Prep Pad; Cut Care Insect Bite Antiseptic and Pain Relieving Wipe; D-Care 100X; DAYMARK FAK-35 First Aid; DDM Ear Drops for Swimmers; DOP Isopropyl Rubbing Alcohol 70%; DUKAL Alcohol Prep Pad; Debrox Swimmers Ear; Derma Sciences; Dermorapid: Colourless and Coloured; Dexidin 0.5 Solution; Dexlido Kit; Dexlido-M Kit; Diclo Gel 1% Pak; Dignity Health Hand Sanitizer Cal Stat Plus Antiseptic Handrub with Enhanced Emollients; Diodine; Divas; Divas Wintergreen; Donor Prep Kit; DoubleDex Kit; Dri-Ear Drops; Dukal Alcohol Prep Pad; Dukal Sterile Alcohol Prep Pad; Dukal Sterile Alcohol Swabstick; Dukal Sting Relief Pad; Dupont Relyon Antiseptic Hand Wipes; Dyural 40 Kit; Dyural 80 Kit; Dyural L Kit; Dyural LM Kit; ECOLAB Isopropyl Alcohol; ENT Essentials All Dry Ear Drying Drops; EPY II Kit; EPY Kit; Ear Drops for Swimmers; Ear Dry Drops Well At Walgreens; Ear Dry Leader; Ear Drying; Ear Drying Agent; Easy Care First Aid Skin Cleansing Alcohol Wipe; Easy to break-off cleaning and disinfecting swabstick DFB-I; Easy to break-off cleaning and disinfecting swabstick YBC-I; EasyTouch Alcohol Prep Pads Nonsterile; EasyTouch Alcohol Prep Pads Sterile; EcoCare 350 Hand Sanitizer with Skin Conditioner; Epinephrine Professional; Epinephrine Professional EMS; EpinephrineSnap-EMS; EpinephrineSnap-V; Equate Swimmers Instant Ear Dry; Ethyl Rubbing Alcohol; FAK Care4 Bus and School Yellow ORM D; FAK Large Office First Aid kit; FIRST AID Contains 1000 PIECES; FIRST AID Contains 101 PIECES; FIRST AID Contains 101 PIECES HARDCASE; FIRST AID Contains 202 PIECES; FIRST AID Contains 303 PIECES; FIRST AID Contains 303 PIECES HARDCASE; FIRST AID Contains 404 PIECES; Family Wellness Sterile Alcohol; First Aid Only Alcohol Antiseptic Pad; First Aid Only Alcohol Antiseptic Wipe; First Aid Only Isopropyl Alcohol; First Aid Only Sting Relief Pad; First Aid Pocket Pack - 40 Pieces; First Aid Value Pack - 77 Pieces; Foam Care Chg Surgical Hand Scrub; Fossaoprin SPG2; Fossaoprin SPG4; Freeman Packing Hand Sanitizer 004; Fresh Foam Disinfectant; Freshnails The Undernail Sanitizer; Friction Rub; Full Care Alcohol Prep Pad; Full Care Alcohol Swabsticks; GAUKE Alcohol Prep Pad; GAUKE Sting Relief Pad; GENUINE FIRST AID Emergency Preparedness Contains 167 PIECES HARDCASE; GENUINE FIRST AID Emergency Preparedness Contains 167 Pieces; GFA 42 Essential First Aid Items; GFA First Aid 75 Person Metal Case; GFA First Aid Kit Essentials - 33 Pieces; GNP Isopropyl Alcohol 50 Percent; GNP Isopropyl Alcohol 50 Percent With Wintergreen Oil; GNP Isopropyl Alcohol 70 Percent With Wintergreen Oil; GNP Isopropyl Alcohol 91 Percent; GNP Isopropyl Rubbing Alcohol 70 Percent; GOOD NEIGHBOR PHARMACY FIRST AID Contains 202 PIECES; GOOD NEIGHBOR PHARMACY Isopropyl Alcohol Wipes; GOODSENSE Alcohol; Genuine First Aid - Auto First Aid; Genuine First Aid - Home First Aid; Germi-stat 0.5% Antiseptic Prep Gel; Germi-stat Prep Gel; Germstaroriginal; Global EASY PREP alcohol prep pads; Good Care Alcohol Pad; Good Care Isopropyl Alcohol; Good Neighbor Pharmacy Alcohol Antiseptic Skin Cleanser; Good Neighbor Pharmacy Emergency Preparedness and First Aid Contains 167 Pieces; GoodSense Alcohol Swabs; Green Guard Sterile Alcohol Pads; Green Guard Sterile Alcohol Wipes; H-Paxin; HEB Water Drying Aid; HUMCO 1 Percent Iodine; HUMCO Ear Drops for Swimmers; HUMCO Isopropyl Rubbing Alcohol 70%; HUMCO Isopropyl Rubbing Alcohol 70% Professional Pack; Hand Sanitizer; Handy Solutions Rubbing Alcohol; Health Mart Alcohol Isopropyl Rubbing 70 Percent; Health Mart Isopropyl Alcohol 91 Percent; HealthCare Plus; Hibistat; Hibistat Germicidal Hand Rinse; Hs-E3; Humira; HyVee Alcohol Prep Pads; I.V. Prep Antiseptic Wipe; Iba-cide Liquid; Ic-gel; Insect Sting Relief Wipes; Instant Ear Dry Equate; Iris; Iso Blu 50 percent; Iso-Blu Alcohol; Isopro First Aid; Isopropanol 99%; Isopropyl; Isopropyl Alcohol; Isopropyl Alcohol 50%; Isopropyl Alcohol 70 Percent; Isopropyl Alcohol 70 Percent Wintergreen; Isopropyl Alcohol 70 Percent With Wintergreen Oil; Isopropyl Alcohol 70 percent; Isopropyl Alcohol 70% 3x3; Isopropyl Alcohol 70% 4x4; Isopropyl Alcohol 91 Percent; Isopropyl Alcohol 91 percent; Isopropyl Alcohol 99%; Isopropyl Alcohol 99% USP; Isopropyl Alcohol Antiseptic; Isopropyl Alcohol Antiseptic Germicide; Isopropyl Alcohol Liq 99%; Isopropyl Alcohol Prep Pad; Isopropyl Alcohol Prep Pad Sterile; Isopropyl Alcohol Prep Swab; Isopropyl Alcohol Sepp; Isopropyl Alcohol Surgical Scrub; Isopropyl Alcohol Swab; Isopropyl Alcohol Swabs; Isopropyl Alcohol Swabsticks; Isopropyl Alcohol Towelette; Isopropyl Alcohol Wintergreen 70 percent Wintergreen; Isopropyl Alcohol with Benzocaine; Isopropyl Alcohol with Wintergreen; Isopropyl Alcohol with Wintergreen 50%; Isopropyl Alcohol with Wintergreen 70%; Isopropyl Rubbing Alcohol; Isopropyl Rubbing Alcohol 50 percent; Isopropyl Rubbing Alcohol 50 percent Wintergreen; Isopropyl Rubbing Alcohol 50%; Isopropyl Rubbing Alcohol 50% With Wintergreen; Isopropyl Rubbing Alcohol 50% with Wintergreen; Isopropyl Rubbing Alcohol 50% with Wintergreen and Glycerin; Isopropyl Rubbing Alcohol 70; Isopropyl Rubbing Alcohol 70 Percent; Isopropyl Rubbing Alcohol 70 Percent Wintergreen; Isopropyl Rubbing Alcohol 70 percent; Isopropyl Rubbing Alcohol 70 percent Wintergreen; Isopropyl Rubbing Alcohol 70%; Isopropyl Rubbing Alcohol 70% V/v; Isopropyl Rubbing Alcohol 70% With Wintergreen; Isopropyl Rubbing Alcohol 70% with Wintergreen; Isopropyl Rubbing Alcohol 90; Isopropyl Rubbing Alcohol 91 percent; Isopropyl Rubbing Alcohol 99%; Isopropyl Rubbing Alcohol Lil Drug Store Products; Isopropyl Rubbing Alcohol Liq 70%; Isopropyl Rubbing Alcohol With Wintergreen; Isopropyl Rubbing Alcohol With Wintergreen Oil; Isopropyl Rubbing Alcohol with Wintergreen Oil; Isopropyl Rubbing Compound 70%; Isopropyl Rubbing Nf 70%v/v; Isopropyl Winter Green Rubbing Alcohol; Isopropyl alcohol; Isopropyl alcohol 50 percent; Isopropyl alcohol 50 percent ReadyInCase; Isopropyl alcohol 50 percent Wintergreen ReadyInCase; Isopropyl alcohol 70 percent; Isopropyl alcohol 70 percent ReadyInCase; Isopropyl alcohol 70 percent Wintergreen; Isopropyl alcohol 70 percent Wintergreen ReadyInCase; Isopropyl alcohol 91 percent; Isopropyl alcohol 91 percent ReadyInCase; Isopropyl alcohol Prep Pad; Isopropyl alcohol Swabstick Sterile; Isopropyl alcohol Swabsticks; Isopropyl alcohol Wintergreen 70 percent Wintergreen; Isopropyl alcohol swab; Isopropyl rubbing alcohol 91 percent; Jianze Alcohol; Jianze Alcohol Prep Pad Large; Jianze Alcohol Prep Pad Medium; K-Mart SmartSense First Aid Contains 101 Pieces; K-Mart SmartSense First Aid Contains 303 Pieces; Ketorocaine L Kit; Ketorocaine LM Kit; Kit Breakroom Office First Aid; Kit Large Office First Aid; LEADER Ear Drops for Swimmers; LEADER ISOPROPYL Alcohol Wipes; Labsco Sterile Alcohol Prep Pad; Large ANSI First Aid Kit; Leader Alcohol 70 Isopropyl Alcohol; Lens Cleaner; Leuprolide Acetate; Lights Isopropyl Alcohol Prep Pads; Liquivida Hydration; Loris - I.V.; Loris 10% Povidone-Iodine and 70% Isopropyl Alcohol Solution; Loris 7.5% Povidone-Iodine and 74% Isopropyl Alcohol Solution; Loris I.V. Pro - Prefilled Applicator With Solution; Loris I.V. Pro - Sponge; Loris I.V. Pro - Swabstick; Lorvatus PharmaPak; Lt; Lupaneta Pack; Lupron Depot; MED-PRIDE ISOPROPYL RUBBING ALCOHOL 70 PERCENT with Wintergreen; MK Alcohol Prep Pads Large; MK Alcohol Prep Pads Medium; MK Alcohol Swabstick Sterile; MK Sting Relief Pads; Marbeta 25 Kit; Marbeta L Kit; Mardex 25 Kit; Marlido 25 Kit; Mas Care-pak Dexamethasone; McKesson Alcohol Prep Pad; McKesson Medi-Pak Non-Sterile Alcohol Prep Pad; MedPRIDE; MedPRIDE with Wintergreen Oil; MedPride; MedPride 99% Rubbing Alcohol; MedPride Sterile Prep Pads; Medi-First Alcohol Wipes; Medi-First Plus Alcohol Wipes; Medi-First Sterile Alcohol Pads; Medi-First Sting Relief; Medi-first Plus Sterile Alcohol Pads; MediChoice Alcohol Prep Pads; MediChoice Alcohol Swabstick; MediChoice Antiseptic Isopropyl Alcohol Prep Pads; MediChoice Isopropyl Rubbing Alcohol; MediFirst Isopropyl Alcohol; Medical Provider Single Use EZ Flu Shot 2013-2014; Medical Provider Single Use EZ Flu Shot 2018-2019; Medical Provider Single Use EZ Flu Shot Afluria 2016-2017; Medical Provider Single Use EZ Flu Shot Flucelvax 2014-2015 Kit; Medical Provider Single Use EZ Flu Shot Flucelvax 2015-2016; Medical Provider Single Use EZ Flu Shot Fluvirin 2014-2015; Medical Provider Single Use EZ Flu Shot Fluvirin 2015-2016; Medical Provider Single Use EZ Flu Shot Fluvirin 2016-2017; Medical Provider Single Use EZ Flu Shot Fluzone 2016-2017; Medical Provider Single Use EZ Flu Shot Kit; Medimaxx; Medline Alcohol Prep Medium; Medline Alcohol Prep Non-Sterile, Extra Large; Medline Alcohol Prep Non-Sterile, Large; Medline Alcohol Prep Non-Sterile, Medium; Medline Alcohol Prep Non-Sterile, Thick/Medium; Medline Alcohol Prep Sterile, Large; Medline Alcohol Prep Sterile, Medium; Medline Alcohol Swabstick Triples; Medt Pad; Moist SURE; Moore Brand Alcohol Prep Pads; More Savings 50 Percent Isopropyl Rubbing Alcohol With Wintergreen; More Savings Rubbing Alcohol 50 Percent; Multi-Specialty Kit; N.A.S.99 Nail Antiseptic Spray; Neuromaquel Neuroma/Anti-Inflammatory System; Nitrotan; North Alcohol Wipe; Novita 50% Isopropyl Rubbing Alcohol W/ Wintergreen; Novita 70% Isopropyl Rubbing Alcohol Wintergreen; Novita Isopropyl Alcohol 50%; Novita Isopropyl Rubbing Alcohol; OMNIS HEALTH Alcohol Prep Pads; Oido Sana; Omnitrenidol; One Time Swab Sticks 70% F468; Optimal Alcohol Prep Pad; OtoVita Professional Hand Gel; P-Care 100MX; P-Care D40; P-Care D40G; P-Care D40MX; P-Care D80; P-Care D80G; P-Care D80MX; P-Care K40; P-Care K40G; P-Care K40MX; P-Care K80; P-Care K80G; P-Care K80MX; P-Care M; P-Care MG; P-Care X; PARAID Alcohol; PROTECTOR Alcohol Prep Pad; PSP GO Isopropryl Rubbing; PSP Isopropyl Rubbing; Pain Relief Alcohol Swabs; Paraid Sterile Alcohol Prep Pads; Pharma C Wipes 70 Isopropyl Alcohol; Pharmacist Choice Alcohol Prep Pad; Pharmacist Choice Alcohol Prep Pads; Pharmacist Choice Alcohol Sterile Prep Pad; Pharmacys Prescription; Physicians Care Sting Relief Pad; Physicians EZ Use B-12 Compliance; Physicians EZ Use Flu Kit; Point Of Care L2; Point Of Care L5; Point Of Care LM 2.2; Point Of Care LM 2.5; Point Of Care LM DEP 2; Preferred Plus Pharmacy 70% Isopropyl Alcohol Wipes; Prelidopine Pre-Operative System; Prevail-FX One Step; Prevantics Maxi Swabstick; Prevantics Swab; Prevantics swabstick; Procutane Gel; Protection; Prove Alcohol Prep Pads; Publix Alcohol; Purehold Antiseptic Instant Hand Sanitizer; RUBBING ALCOHOL 50 PERCENT with Wintergreen; RUBBING ALCOHOL 70 PERCENT with Wintergreen; RUBBING ALCOHOL 99 PERCENT with Wintergreen; Ready America First Aid Outdoor- 107 Pieces; Ready America First Aid Pocket - 33 Pieces; Refill 4; Relistor; Rescue Breather Kit; Rexall Alcohol Prep; Royal Alcohol Cleansing; Royal Alcohol Cleansing Pads; Rubbing Alcohol; Rubbing Alcohol 50 Percent; Rubbing Alcohol 50 Percent With Wintergreen; Rubbing Alcohol 70 Percent; Rubbing Alcohol 70 Percent Isopropyl; Rubbing Alcohol 70 Percent With Wintergreen; Rubbing Alcohol 70 percent Isopropyl; Rubbing Alcohol 70%; Rubbing Alcohol 91 percent Isopropyl; Rubbing Alcohol 91 percent isopropyl; Rubbing Alcohol 99 Percent; Rubbing Compound 70%; Run Kang Alcohol Pads - MEDIUM; Sanitizer - Assainissant; School Health Sterile Alcohol Prep Pad; Scrub Care; Scrub-stat IV 4%; Seatex Hand Sanitizer; Shopko Alcohol Swabs; Skyrizi; Smart Sense 70% Isopropyl Rubbing Alcohol First Aid Antiseptic; Smart Sense Isopropyl Alcohol Wipes; Soluprep; Soluprep 10% Povidone Iodine + 70% Isopropyl Alcohol; Soluprep Applicator; Soluprep Qd Solution; Soluprep Qd Swab; Soluprep Qd Wipe; Soluprep Swab; Soluprep Wipe; Sooth-a-Sting; Standard ANSI First Aid; Stanhexidine 2% With Isopropyl Alcohol 4%; Stanhexidine 4% With Isopropyl Alcohol 4%; Stanhexidine Aqueous 2% With 4% Isopropyl Alcohol; StarCap Medical Private Limited; Steri-stat Liq 4.0%; Steri-stat Tincture (tinted) Antis Prep Gel; Sterile Alcohol; Sterile Alcohol Prep Pad; Sterile Alcohol Prep Pads; Sterile Alcohol Wipe; Sting Relief; Sting Relief Pad; Sunmark Isopropyl Alcohol 70 Percent With Wintergreen Oil; Sunmark Isopropyl Alcohol 91 Percent; Sunmark Isopropyl Rubbing Alcohol 70 Percent; Super Rub 70%; Sure Comfort Alcohol Prep Pads; Suture Syringe Medic; Swabs; Swim-EAR; TNKase; TOUCHLAND Refeel KUB cartridge; TOUCHLAND kub2go Hand Sanitizer Aloe Vera; TOUCHLAND kub2go Hand Sanitizer Citrus; TOUCHLAND kub2go Hand Sanitizer Lavender; TOUCHLAND kub2go Hand Sanitizer Mint; TOUCHLAND kub2go Hand Sanitizer Neutral; TOUCHLAND kub2go Hand Sanitizer Strawberry; TOUCHLAND kub2go Hand Sanitizer Vanilla; Tempo Alcohol Prep Pad; Tempo Sting Relief Pad; Testone CIK; The Green Scissor 99 Percent; The New Parent First Aid; Tiger Alcohol Pad; Tinted Isopropyl Alcohol; Tintura de Arnica; TopiDex; UEC Medical Insect Sting Relief; UEC Medical Sterile Alcohol Wipes; Ultra-Care Alcohol Prep pad; Umbiliclean; Up and Up alcohol; Venipuncture Px1; Vida Mia Ear Drops for Swimmers; Viraguard! With Virahol (gel); Vitamin Deficiency Injectable System - B12; Vopac MDS - Anti-Inflammatory Management Kit with Metered Dose Bottle; WESTERN FAMILY Alcohol Swabs; WISE SHOPPER RUBBING ALCOHOL 50 PERCENT with Wintergreen; Walgreen Alcohol; Wearable Dispenser Cartridge SCS; Wintergreen Isopropyl Alcohol; Wise Shopper 50% Isopropyl Rubbing Alcohol W/ Wintergreen; Wise Shopper Isopropyl Alcohol 50%; Wise Shopper Rubbing Alcohol 50 Percent; Xryliderm; Xyntha; Zep Alpet E-3 Sanitizer; Zeyocaine; Zolgensma; Zonsen Alcohol Prep Pad; Zonsen Sting Relief Pad; germstar Original unscented; inControl alcohol; maxim 50% ISOPROPYL RUBBING ALCOHOL; maxim 50% ISOPROPYL RUBBING ALCOHOL With Wintergreen; maxim 70% ISOPROPYL RUBBING ALCOHOL; maxim 70% ISOPROPYL RUBBING ALCOHOL With Wintergreen; pip Alcohol Prep Pads; sunmark Isopropyl Rubbing Alcohol

> <INTERNATIONAL_BRANDS>
Isopro

$$$$
