REMARK  Name = 159772
REMARK  4 active torsions:
REMARK  status: ('A' for Active; 'I' for Inactive)
REMARK    1  A    between atoms: C_1  and  N_7
REMARK    2  A    between atoms: C_2  and  C_16
REMARK    3  A    between atoms: N_7  and  C_10
REMARK    4  A    between atoms: C_16  and  O_17
REMARK                            x       y       z     vdW  Elec       q    Type
REMARK                         _______ _______ _______ _____ _____    ______ ____
ROOT
ATOM      1  C   UNL     1       0.997   0.015   0.551  0.00  0.00    +0.084 C 
ATOM      2  C   UNL     1      -1.749   0.036   0.056  0.00  0.00    +0.076 C 
ATOM      3  C   UNL     1       0.321   1.228   0.416  0.00  0.00    +0.019 C 
ATOM      4  C   UNL     1       0.299  -1.188   0.438  0.00  0.00    +0.019 C 
ATOM      5  C   UNL     1      -1.051   1.238   0.169  0.00  0.00    +0.008 C 
ATOM      6  C   UNL     1      -1.073  -1.177   0.190  0.00  0.00    +0.008 C 
ENDROOT
BRANCH   2   8
ATOM      7  O   UNL     1      -3.875   1.058  -0.340  0.00  0.00    -0.245 OA
ATOM      8  C   UNL     1      -3.180   0.046  -0.203  0.00  0.00    +0.338 C 
BRANCH   8   9
ATOM      9  O   UNL     1      -3.703  -1.208  -0.286  0.00  0.00    -0.477 OA
ATOM     10  H   UNL     1      -3.148  -1.955  -0.177  0.00  0.00    +0.295 HD
ENDBRANCH   8   9
ENDBRANCH   2   8
BRANCH   1  11
ATOM     11  N   UNL     1       2.373   0.005   0.800  0.00  0.00    -0.214 NA
BRANCH  11  14
ATOM     12  N   UNL     1       4.561  -0.022  -0.016  0.00  0.00    -0.370 N 
ATOM     13  N   UNL     1       2.878  -0.019  -1.557  0.00  0.00    -0.370 N 
ATOM     14  C   UNL     1       3.201  -0.011  -0.217  0.00  0.00    +0.193 C 
ATOM     15  H   UNL     1       4.923  -0.018   0.899  0.00  0.00    +0.159 HD
ATOM     16  H   UNL     1       5.173  -0.034  -0.788  0.00  0.00    +0.159 HD
ATOM     17  H   UNL     1       1.934  -0.013  -1.836  0.00  0.00    +0.159 HD
ATOM     18  H   UNL     1       3.592  -0.031  -2.236  0.00  0.00    +0.159 HD
ENDBRANCH  11  14
ENDBRANCH   1  11
TORSDOF 4
