REMARK  Name = 76935
REMARK  6 active torsions:
REMARK  status: ('A' for Active; 'I' for Inactive)
REMARK    1  A    between atoms: C_2  and  O_7
REMARK    2  A    between atoms: C_3  and  O_9
REMARK    3  A    between atoms: C_4  and  C_15
REMARK    4  A    between atoms: C_5  and  O_11
REMARK    5  A    between atoms: C_6  and  O_13
REMARK    6  A    between atoms: C_15  and  O_16
REMARK                            x       y       z     vdW  Elec       q    Type
REMARK                         _______ _______ _______ _____ _____    ______ ____
ROOT
ATOM      1  O   UNL     1      -0.889   0.429   0.755  0.00  0.00    -0.326 OA
ATOM      2  C   UNL     1       0.041  -1.470  -0.472  0.00  0.00    +0.169 C 
ATOM      3  C   UNL     1       1.375  -0.728  -0.595  0.00  0.00    +0.172 C 
ATOM      4  C   UNL     1      -1.115  -0.468  -0.343  0.00  0.00    +0.176 C 
ATOM      5  C   UNL     1       1.531   0.271   0.552  0.00  0.00    +0.196 C 
ATOM      6  C   UNL     1       0.313   1.195   0.633  0.00  0.00    +0.266 C 
ENDROOT
BRANCH   2   7
ATOM      7  O   UNL     1       0.062  -2.303   0.690  0.00  0.00    -0.379 OA
ATOM      8  H   UNL     1       0.790  -2.940   0.617  0.00  0.00    +0.211 HD
ENDBRANCH   2   7
BRANCH   3   9
ATOM      9  O   UNL     1       2.455  -1.657  -0.559  0.00  0.00    -0.379 OA
ATOM     10  H   UNL     1       2.359  -2.292  -1.285  0.00  0.00    +0.211 HD
ENDBRANCH   3   9
BRANCH   5  11
ATOM     11  O   UNL     1       2.705   1.055   0.368  0.00  0.00    -0.378 OA
ATOM     12  H   UNL     1       3.478   0.472   0.317  0.00  0.00    +0.211 HD
ENDBRANCH   5  11
BRANCH   6  13
ATOM     13  O   UNL     1       0.277   2.061  -0.501  0.00  0.00    -0.326 OA
ATOM     14  C   UNL     1      -0.844   2.930  -0.451  0.00  0.00    +0.177 C 
ENDBRANCH   6  13
BRANCH   4  15
ATOM     15  C   UNL     1      -2.454  -1.155  -0.098  0.00  0.00    +0.169 C 
BRANCH  15  16
ATOM     16  O   UNL     1      -3.456  -0.161   0.019  0.00  0.00    -0.379 OA
ATOM     17  H   UNL     1      -4.315  -0.584   0.176  0.00  0.00    +0.211 HD
ENDBRANCH  15  16
ENDBRANCH   4  15
TORSDOF 6
