REMARK  Name = 439162
REMARK  8 active torsions:
REMARK  status: ('A' for Active; 'I' for Inactive)
REMARK    1  A    between atoms: O_1  and  P_2
REMARK    2  A    between atoms: O_1  and  C_8
REMARK    3  A    between atoms: P_2  and  O_4
REMARK    4  A    between atoms: P_2  and  O_6
REMARK    5  A    between atoms: C_8  and  C_9
REMARK    6  A    between atoms: C_9  and  O_10
REMARK    7  A    between atoms: C_9  and  C_12
REMARK    8  A    between atoms: C_12  and  O_13
REMARK                            x       y       z     vdW  Elec       q    Type
REMARK                         _______ _______ _______ _____ _____    ______ ____
ROOT
ATOM      1  O   UNL     1      -0.700  -0.411  -0.399  0.00  0.00    -0.271 OA
ENDROOT
BRANCH   1   2
ATOM      2  P   UNL     1      -2.233  -0.031  -0.059  0.00  0.00    +0.473 P 
ATOM      3  O   UNL     1      -3.262  -0.953  -0.645  0.00  0.00    -0.227 OA
BRANCH   2   4
ATOM      4  O   UNL     1      -2.356   1.517  -0.509  0.00  0.00    -0.303 OA
ATOM      5  H   UNL     1      -1.654   2.034  -0.083  0.00  0.00    +0.222 HD
ENDBRANCH   2   4
BRANCH   2   6
ATOM      6  O   UNL     1      -2.230   0.050   1.556  0.00  0.00    -0.303 OA
ATOM      7  H   UNL     1      -1.538   0.665   1.848  0.00  0.00    +0.222 HD
ENDBRANCH   2   6
ENDBRANCH   1   2
BRANCH   1   8
ATOM      8  C   UNL     1       0.332   0.419   0.123  0.00  0.00    +0.185 C 
BRANCH   8   9
ATOM      9  C   UNL     1       1.693  -0.112  -0.313  0.00  0.00    +0.170 C 
BRANCH   9  10
ATOM     10  O   UNL     1       1.861  -1.431   0.212  0.00  0.00    -0.379 OA
ATOM     11  H   UNL     1       1.149  -2.002  -0.116  0.00  0.00    +0.211 HD
ENDBRANCH   9  10
BRANCH   9  12
ATOM     12  C   UNL     1       2.826   0.754   0.223  0.00  0.00    +0.169 C 
BRANCH  12  13
ATOM     13  O   UNL     1       4.069   0.197  -0.191  0.00  0.00    -0.379 OA
ATOM     14  H   UNL     1       4.797   0.743   0.146  0.00  0.00    +0.211 HD
ENDBRANCH  12  13
ENDBRANCH   9  12
ENDBRANCH   8   9
ENDBRANCH   1   8
TORSDOF 8
