REMARK  Name = 6993635
REMARK  4 active torsions:
REMARK  status: ('A' for Active; 'I' for Inactive)
REMARK    1  A    between atoms: C_1  and  C_2
REMARK    2  A    between atoms: C_1  and  CA_9
REMARK    3  A    between atoms: CA_9  and  N_10
REMARK    4  A    between atoms: CA_9  and  C_16
REMARK                            x       y       z     vdW  Elec       q    Type
REMARK                         _______ _______ _______ _____ _____    ______ ____
ROOT
ATOM      1  C   UNL     1      -1.034  -1.006  -0.914  0.00  0.00    +0.015 C 
ENDROOT
BRANCH   1   2
ATOM      2  C   UNL     1       0.371  -0.743  -0.425  0.00  0.00    -0.024 C 
ATOM      3  C   UNL     1       0.952   0.492  -0.662  0.00  0.00    -0.009 C 
ATOM      4  C   UNL     1       1.052  -1.742   0.252  0.00  0.00    -0.004 C 
ATOM      5  C   UNL     1       2.249   0.736  -0.211  0.00  0.00    -0.022 C 
ATOM      6  C   UNL     1       2.349  -1.499   0.704  0.00  0.00    -0.001 C 
ATOM      7  C   UNL     1       2.947  -0.260   0.472  0.00  0.00    -0.004 C 
ATOM      8  C   UNL     1       2.889   2.060  -0.458  0.00  0.00    +0.031 C 
ENDBRANCH   1   2
BRANCH   1   9
ATOM      9  CA  UNL     1      -2.099  -0.631   0.122  0.00  0.00    +0.045 C 
BRANCH   9  10
ATOM     10  N   UNL     1      -3.420  -1.076  -0.426  0.00  0.00    +0.389 N 
ATOM     11  H1  UNL     1      -3.385  -2.076  -0.625  0.00  0.00    -0.088 HD
ATOM     12  H2  UNL     1      -3.621  -0.565  -1.286  0.00  0.00    -0.088 HD
ATOM     13  H3  UNL     1      -4.152  -0.890   0.259  0.00  0.00    -0.088 HD
ENDBRANCH   9  10
BRANCH   9  16
ATOM     14  O   UNL     1      -2.245   1.627  -0.557  0.00  0.00    -0.248 OA
ATOM     15  OXT UNL     1      -1.925   1.170   1.660  0.00  0.00    -0.248 OA
ATOM     16  C   UNL     1      -2.085   0.871   0.443  0.00  0.00    +0.345 C 
ENDBRANCH   9  16
ENDBRANCH   1   9
TORSDOF 4
