REMARK  Name = 5287989
REMARK  3 active torsions:
REMARK  status: ('A' for Active; 'I' for Inactive)
REMARK    1  A    between atoms: N_1  and  C_7
REMARK    2  A    between atoms: N_1  and  C_14
REMARK    3  A    between atoms: C_13  and  S_19
REMARK                            x       y       z     vdW  Elec       q    Type
REMARK                         _______ _______ _______ _____ _____    ______ ____
ROOT
ATOM      1  N   UNL     1       0.666  -0.946  -0.574  0.00  0.00    -0.300 N 
ATOM      2  H   UNL     1       0.870  -1.851  -0.904  0.00  0.00    +0.153 HD
ENDROOT
BRANCH   1   7
ATOM      3 CL   UNL     1       3.021   3.643  -0.326  0.00  0.00    -0.048 Cl
ATOM      4  N   UNL     1       2.952  -0.747   0.018  0.00  0.00    -0.152 N 
ATOM      5  N   UNL     1       3.194  -2.077   0.193  0.00  0.00    -0.173 NA
ATOM      6  N   UNL     1       4.110   1.362   0.151  0.00  0.00    -0.378 NA
ATOM      7  C   UNL     1       1.743  -0.135  -0.354  0.00  0.00    +0.130 C 
ATOM      8  C   UNL     1       4.104   0.006   0.261  0.00  0.00    +0.191 C 
ATOM      9  C   UNL     1       1.712   1.202  -0.472  0.00  0.00    +0.076 C 
ATOM     10  C   UNL     1       5.094  -0.889   0.595  0.00  0.00    +0.125 C 
ATOM     11  C   UNL     1       2.988   1.918  -0.192  0.00  0.00    +0.193 C 
ATOM     12  C   UNL     1       4.479  -2.145   0.537  0.00  0.00    +0.101 C 
ENDBRANCH   1   7
BRANCH   1  14
ATOM     13  C   UNL     1      -3.405  -0.075  -0.022  0.00  0.00    +0.106 C 
ATOM     14  C   UNL     1      -0.690  -0.656  -0.390  0.00  0.00    +0.049 C 
ATOM     15  C   UNL     1      -3.014  -0.982  -1.006  0.00  0.00    +0.020 C 
ATOM     16  C   UNL     1      -2.445   0.543   0.779  0.00  0.00    +0.020 C 
ATOM     17  C   UNL     1      -1.661  -1.271  -1.190  0.00  0.00    +0.016 C 
ATOM     18  C   UNL     1      -1.093   0.254   0.596  0.00  0.00    +0.016 C 
BRANCH  13  19
ATOM     19  S   UNL     1      -5.098   0.288   0.207  0.00  0.00    +0.010 S 
ATOM     20  O   UNL     1      -5.195   1.607   0.816  0.00  0.00    -0.169 OA
ATOM     21  O   UNL     1      -5.812   0.009  -1.031  0.00  0.00    -0.169 OA
ATOM     22  C   UNL     1      -5.648  -0.908   1.403  0.00  0.00    +0.182 C 
ENDBRANCH  13  19
ENDBRANCH   1  14
TORSDOF 3
