REMARK  Name = 448006
REMARK  4 active torsions:
REMARK  status: ('A' for Active; 'I' for Inactive)
REMARK    1  A    between atoms: C_1  and  C_13
REMARK    2  A    between atoms: C_2  and  C_7
REMARK    3  A    between atoms: C_13  and  C_16
REMARK    4  A    between atoms: C_16  and  O_17
REMARK                            x       y       z     vdW  Elec       q    Type
REMARK                         _______ _______ _______ _____ _____    ______ ____
ROOT
ATOM      1  C   UNL     1       1.819  -0.420  -0.222  0.00  0.00    -0.012 C 
ATOM      2  C   UNL     1      -0.954  -0.147  -0.083  0.00  0.00    -0.000 C 
ATOM      3  C   UNL     1       1.040  -0.619  -1.362  0.00  0.00    -0.004 C 
ATOM      4  C   UNL     1       1.211  -0.085   0.988  0.00  0.00    -0.004 C 
ATOM      5  C   UNL     1      -0.346  -0.482  -1.292  0.00  0.00    -0.000 C 
ATOM      6  C   UNL     1      -0.175   0.052   1.058  0.00  0.00    -0.000 C 
ENDROOT
BRANCH   2   7
ATOM      7  C   UNL     1      -2.392  -0.005  -0.010  0.00  0.00    -0.000 C 
ATOM      8  C   UNL     1      -2.984   1.235  -0.249  0.00  0.00    -0.000 C 
ATOM      9  C   UNL     1      -3.187  -1.109   0.299  0.00  0.00    -0.000 C 
ATOM     10  C   UNL     1      -4.370   1.371  -0.179  0.00  0.00    +0.000 C 
ATOM     11  C   UNL     1      -4.573  -0.973   0.369  0.00  0.00    +0.000 C 
ATOM     12  C   UNL     1      -5.165   0.267   0.130  0.00  0.00    +0.000 C 
ENDBRANCH   2   7
BRANCH   1  13
ATOM     13  C   UNL     1       3.301  -0.566  -0.296  0.00  0.00    +0.121 C 
ATOM     14  C   UNL     1       3.861  -1.684   0.607  0.00  0.00    +0.016 C 
BRANCH  13  16
ATOM     15  O   UNL     1       3.485   1.792   0.316  0.00  0.00    -0.250 OA
ATOM     16  C   UNL     1       4.038   0.742   0.014  0.00  0.00    +0.317 C 
BRANCH  16  17
ATOM     17  O   UNL     1       5.389   0.631  -0.087  0.00  0.00    -0.480 OA
ATOM     18  H   UNL     1       5.775  -0.190  -0.321  0.00  0.00    +0.295 HD
ENDBRANCH  16  17
ENDBRANCH  13  16
ENDBRANCH   1  13
TORSDOF 4
