REMARK  Name = 447733
REMARK  5 active torsions:
REMARK  status: ('A' for Active; 'I' for Inactive)
REMARK    1  A    between atoms: C_3  and  C_19
REMARK    2  A    between atoms: C_9  and  C_13
REMARK    3  A    between atoms: N_18  and  C_21
REMARK    4  A    between atoms: C_22  and  C_27
REMARK    5  A    between atoms: C_27  and  N_28
REMARK                            x       y       z     vdW  Elec       q    Type
REMARK                         _______ _______ _______ _____ _____    ______ ____
ROOT
ATOM      1  C   UNL     1      -2.621  -0.769   0.042  0.00  0.00    +0.000 C 
ATOM      2  C   UNL     1      -2.985   0.583  -0.166  0.00  0.00    +0.000 C 
ATOM      3  C   UNL     1      -0.285  -0.180  -0.291  0.00  0.00    +0.054 C 
ATOM      4  C   UNL     1      -1.267  -1.135  -0.025  0.00  0.00    +0.005 C 
ATOM      5  C   UNL     1      -1.982   1.530  -0.432  0.00  0.00    +0.000 C 
ATOM      6  C   UNL     1      -4.339   0.948  -0.099  0.00  0.00    +0.003 C 
ATOM      7  C   UNL     1      -3.623  -1.716   0.309  0.00  0.00    +0.000 C 
ATOM      8  C   UNL     1      -0.642   1.149  -0.495  0.00  0.00    +0.005 C 
ATOM      9  C   UNL     1      -5.322  -0.006   0.167  0.00  0.00    +0.031 C 
ATOM     10  C   UNL     1      -4.964  -1.336   0.371  0.00  0.00    +0.003 C 
ENDROOT
BRANCH   9  13
ATOM     11  N   UNL     1      -7.724  -0.541   0.497  0.00  0.00    -0.343 N 
ATOM     12  N   UNL     1      -7.057   1.650   0.035  0.00  0.00    -0.285 NA
ATOM     13  C   UNL     1      -6.720   0.388   0.233  0.00  0.00    +0.117 C 
ATOM     14  H   UNL     1      -8.664  -0.252   0.536  0.00  0.00    +0.144 HD
ATOM     15  H   UNL     1      -7.493  -1.487   0.644  0.00  0.00    +0.144 HD
ATOM     16  H   UNL     1      -8.003   1.919   0.079  0.00  0.00    +0.188 HD
ENDBRANCH   9  13
BRANCH   3  19
ATOM     17  O   UNL     1       1.398  -1.734  -0.699  0.00  0.00    -0.270 OA
ATOM     18  N   UNL     1       2.046   0.423  -0.042  0.00  0.00    -0.280 N 
ATOM     19  C   UNL     1       1.113  -0.575  -0.357  0.00  0.00    +0.249 C 
ATOM     20  H   UNL     1       1.669   1.296   0.213  0.00  0.00    +0.155 HD
BRANCH  18  21
ATOM     21  C   UNL     1       3.461   0.340  -0.042  0.00  0.00    +0.051 C 
ATOM     22  C   UNL     1       6.224   0.179  -0.043  0.00  0.00    -0.044 C 
ATOM     23  C   UNL     1       4.203   1.456   0.304  0.00  0.00    +0.014 C 
ATOM     24  C   UNL     1       4.068  -0.855  -0.390  0.00  0.00    +0.014 C 
ATOM     25  C   UNL     1       5.596   1.375   0.304  0.00  0.00    -0.005 C 
ATOM     26  C   UNL     1       5.460  -0.936  -0.390  0.00  0.00    -0.005 C 
BRANCH  22  27
ATOM     27  C   UNL     1       7.713   0.092  -0.043  0.00  0.00    -0.059 C 
BRANCH  27  28
ATOM     28  N   UNL     1       8.247  -0.329   1.253  0.00  0.00    +0.383 N 
ATOM     29  H   UNL     1       9.265  -0.374   1.203  0.00  0.00    -0.089 HD
ATOM     30  H   UNL     1       7.878  -1.250   1.490  0.00  0.00    -0.089 HD
ATOM     31  H   UNL     1       7.971   0.343   1.969  0.00  0.00    -0.089 HD
ENDBRANCH  27  28
ENDBRANCH  22  27
ENDBRANCH  18  21
ENDBRANCH   3  19
TORSDOF 5
