REMARK  Name = 60817
REMARK  2 active torsions:
REMARK  status: ('A' for Active; 'I' for Inactive)
REMARK    1  A    between atoms: C_6  and  C_16
REMARK    2  A    between atoms: C_16  and  C_18
REMARK                            x       y       z     vdW  Elec       q    Type
REMARK                         _______ _______ _______ _____ _____    ______ ____
ROOT
ATOM      1  O   UNL     1      -3.928  -1.192   1.290  0.00  0.00    -0.208 OA
ATOM      2  N   UNL     1      -1.355  -2.210   0.183  0.00  0.00    -0.301 N 
ATOM      3  N   UNL     1      -1.241   1.159  -0.684  0.00  0.00    -0.274 N 
ATOM      4  N   UNL     1      -3.341   0.886   0.483  0.00  0.00    -0.301 NA
ATOM      5  N   UNL     1      -2.648   2.952  -0.378  0.00  0.00    -0.320 N 
ATOM      6  C   UNL     1       0.121  -0.925  -0.900  0.00  0.00    +0.012 C 
ATOM      7  C   UNL     1      -0.982  -0.148  -0.507  0.00  0.00    +0.075 C 
ATOM      8  C   UNL     1      -1.882  -0.945   0.157  0.00  0.00    +0.158 C 
ATOM      9  C   UNL     1      -0.137  -2.207  -0.457  0.00  0.00    +0.060 C 
ATOM     10  C   UNL     1      -3.131  -0.473   0.700  0.00  0.00    +0.222 C 
ATOM     11  C   UNL     1      -2.449   1.610  -0.159  0.00  0.00    +0.248 C 
ATOM     12  H   UNL     1      -1.781  -2.996   0.596  0.00  0.00    +0.153 HD
ATOM     13  H   UNL     1      -0.617   1.757  -1.155  0.00  0.00    +0.156 HD
ATOM     14  H   UNL     1      -1.970   3.478  -0.861  0.00  0.00    +0.146 HD
ATOM     15  H   UNL     1      -3.469   3.387  -0.053  0.00  0.00    +0.146 HD
ENDROOT
BRANCH   6  16
ATOM     16  C   UNL     1       1.319  -0.478  -1.636  0.00  0.00    +0.057 C 
BRANCH  16  18
ATOM     17  N   UNL     1       4.179  -0.620   0.813  0.00  0.00    -0.243 NA
ATOM     18  C   UNL     1       2.343  -0.040  -0.609  0.00  0.00    +0.001 C 
ATOM     19  C   UNL     1       2.372   1.268  -0.180  0.00  0.00    -0.001 C 
ATOM     20  C   UNL     1       3.242  -0.945  -0.105  0.00  0.00    +0.095 C 
ATOM     21  C   UNL     1       3.323   1.641   0.764  0.00  0.00    +0.020 C 
ATOM     22  C   UNL     1       4.196   0.668   1.225  0.00  0.00    +0.099 C 
ENDBRANCH  16  18
ENDBRANCH   6  16
TORSDOF 2
