REMARK  Name = 444182
REMARK  13 active torsions:
REMARK  status: ('A' for Active; 'I' for Inactive)
REMARK    1  A    between atoms: P_1  and  O_3
REMARK    2  A    between atoms: P_1  and  O_5
REMARK    3  A    between atoms: P_1  and  O_13
REMARK    4  A    between atoms: O_5  and  C_6
REMARK    5  A    between atoms: C_6  and  C_7
REMARK    6  A    between atoms: C_7  and  O_8
REMARK    7  A    between atoms: C_7  and  C_10
REMARK    8  A    between atoms: C_10  and  O_11
REMARK    9  A    between atoms: O_13  and  C_14
REMARK   10  A    between atoms: C_14  and  C_15
REMARK   11  A    between atoms: C_15  and  N_16
REMARK   12  A    between atoms: C_15  and  C_21
REMARK   13  A    between atoms: C_21  and  O_22
REMARK                            x       y       z     vdW  Elec       q    Type
REMARK                         _______ _______ _______ _____ _____    ______ ____
ROOT
ATOM      1  P   UNK     1      -0.044  -2.119   0.238  0.00  0.00    +0.476 P 
ATOM      2  O   UNK     1       0.275  -2.806   1.535  0.00  0.00    -0.227 OA
ENDROOT
BRANCH   1   3
ATOM      3  O   UNK     1      -0.382  -3.130  -0.979  0.00  0.00    -0.302 OA
ATOM      4  H   UNK     1      -0.577  -2.619  -1.780  0.00  0.00    +0.222 HD
ENDBRANCH   1   3
BRANCH   1   5
ATOM      5  O   UNK     1       1.160  -1.216  -0.360  0.00  0.00    -0.271 OA
BRANCH   5   6
ATOM      6  C   UNK     1       1.649  -0.139   0.422  0.00  0.00    +0.185 C 
BRANCH   6   7
ATOM      7  C   UNK     1       2.772   0.573  -0.324  0.00  0.00    +0.170 C 
BRANCH   7   8
ATOM      8  O   UNK     1       3.839  -0.353  -0.539  0.00  0.00    -0.379 OA
ATOM      9  H   UNK     1       3.512  -1.109  -1.052  0.00  0.00    +0.211 HD
ENDBRANCH   7   8
BRANCH   7  10
ATOM     10  C   UNK     1       3.321   1.743   0.483  0.00  0.00    +0.169 C 
BRANCH  10  11
ATOM     11  O   UNK     1       4.382   2.350  -0.247  0.00  0.00    -0.379 OA
ATOM     12  H   UNK     1       4.737   3.097   0.259  0.00  0.00    +0.211 HD
ENDBRANCH  10  11
ENDBRANCH   7  10
ENDBRANCH   6   7
ENDBRANCH   5   6
ENDBRANCH   1   5
BRANCH   1  13
ATOM     13  O   UNK     1      -1.319  -1.128   0.300  0.00  0.00    -0.275 OA
BRANCH  13  14
ATOM     14  C   UNK     1      -1.722  -0.418  -0.866  0.00  0.00    +0.143 C 
BRANCH  14  15
ATOM     15  C   UNK     1      -2.941   0.441  -0.541  0.00  0.00    +0.066 C 
BRANCH  15  16
ATOM     16  N   UNK     1      -3.366   1.170  -1.734  0.00  0.00    +0.390 N 
ATOM     17  H   UNK     1      -3.602   0.507  -2.472  0.00  0.00    -0.088 HD
ATOM     18  H   UNK     1      -2.608   1.775  -2.050  0.00  0.00    -0.088 HD
ATOM     19  H   UNK     1      -4.184   1.738  -1.512  0.00  0.00    -0.088 HD
ENDBRANCH  15  16
BRANCH  15  21
ATOM     20  O   UNK     1      -2.138   2.583   0.330  0.00  0.00    -0.253 OA
ATOM     21  C   UNK     1      -2.603   1.468   0.523  0.00  0.00    +0.295 C 
BRANCH  21  22
ATOM     22  O   UNK     1      -2.881   0.981   1.760  0.00  0.00    -0.482 OA
ATOM     23  H   UNK     1      -3.238   0.119   1.855  0.00  0.00    +0.295 HD
ENDBRANCH  21  22
ENDBRANCH  15  21
ENDBRANCH  14  15
ENDBRANCH  13  14
ENDBRANCH   1  13
TORSDOF 13
