REMARK  Name = 9578243
REMARK  6 active torsions:
REMARK  status: ('A' for Active; 'I' for Inactive)
REMARK    1  A    between atoms: C_1  and  O_18
REMARK    2  A    between atoms: C_2  and  O_16
REMARK    3  A    between atoms: C_4  and  C_8
REMARK    4  A    between atoms: N_7  and  O_10
REMARK    5  A    between atoms: O_10  and  C_13
REMARK    6  A    between atoms: O_18  and  C_19
REMARK                            x       y       z     vdW  Elec       q    Type
REMARK                         _______ _______ _______ _____ _____    ______ ____
ROOT
ATOM      1  C   UNL     1      -1.425  -0.417   0.213  0.00  0.00    +0.172 C 
ATOM      2  C   UNL     1      -1.355  -1.797   0.062  0.00  0.00    +0.172 C 
ATOM      3  C   UNL     1      -0.282   0.367   0.093  0.00  0.00    +0.041 C 
ATOM      4  C   UNL     1       0.945  -0.236  -0.182  0.00  0.00    +0.020 C 
ATOM      5  C   UNL     1      -0.128  -2.401  -0.213  0.00  0.00    +0.040 C 
ATOM      6  C   UNL     1       1.022  -1.621  -0.336  0.00  0.00    +0.005 C 
ENDROOT
BRANCH   4   8
ATOM      7  N   UNL     1       3.313   0.076   0.030  0.00  0.00    -0.076 NA
ATOM      8  C   UNL     1       2.143   0.577  -0.308  0.00  0.00    +0.098 C 
ATOM      9  C   UNL     1       2.025   2.015  -0.823  0.00  0.00    +0.056 C 
BRANCH   7  10
ATOM     10  O   UNL     1       4.360   0.994  -0.124  0.00  0.00    -0.299 OA
BRANCH  10  13
ATOM     11  O   UNL     1       5.647  -0.761   0.648  0.00  0.00    -0.224 OA
ATOM     12  N   UNL     1       6.578   1.269   0.108  0.00  0.00    -0.293 N 
ATOM     13  C   UNL     1       5.529   0.393   0.247  0.00  0.00    +0.423 C 
ATOM     14  H   UNL     1       6.415   2.183  -0.220  0.00  0.00    +0.148 HD
ATOM     15  H   UNL     1       7.492   0.983   0.336  0.00  0.00    +0.148 HD
ENDBRANCH  10  13
ENDBRANCH   7  10
ENDBRANCH   4   8
BRANCH   2  16
ATOM     16  O   UNL     1      -2.471  -2.570   0.177  0.00  0.00    -0.468 OA
ATOM     17  C   UNL     1      -2.306  -3.976   0.006  0.00  0.00    +0.253 C 
ENDBRANCH   2  16
BRANCH   1  18
ATOM     18  O   UNL     1      -2.625   0.188   0.484  0.00  0.00    -0.476 OA
BRANCH  18  19
ATOM     19  C   UNL     1      -3.087   1.146  -0.460  0.00  0.00    +0.166 C 
ATOM     20  C   UNL     1      -3.323   2.474   0.243  0.00  0.00    +0.044 C 
ATOM     21  C   UNL     1      -4.473   0.771  -0.960  0.00  0.00    +0.044 C 
ATOM     22  C   UNL     1      -4.681   2.312   0.924  0.00  0.00    +0.004 C 
ATOM     23  C   UNL     1      -5.407   1.197   0.171  0.00  0.00    +0.004 C 
ENDBRANCH  18  19
ENDBRANCH   1  18
TORSDOF 6
