REMARK  Name = 7452
REMARK  2 active torsions:
REMARK  status: ('A' for Active; 'I' for Inactive)
REMARK    1  A    between atoms: C_1  and  N_9
REMARK    2  A    between atoms: C_2  and  N_12
REMARK                            x       y       z     vdW  Elec       q    Type
REMARK                         _______ _______ _______ _____ _____    ______ ____
ROOT
ATOM      1  C   UNL     1      -1.208   0.107   0.000  0.00  0.00    +0.145 C 
ATOM      2  C   UNL     1       1.208   0.107   0.001  0.00  0.00    +0.145 C 
ATOM      3  C   UNL     1       0.000  -0.590   0.001  0.00  0.00    +0.048 C 
ATOM      4  C   UNL     1      -1.208   1.502   0.000  0.00  0.00    +0.024 C 
ATOM      5  C   UNL     1       1.208   1.502   0.000  0.00  0.00    +0.024 C 
ATOM      6  C   UNL     1       0.000   2.200   0.000  0.00  0.00    +0.003 C 
ENDROOT
BRANCH   1   9
ATOM      7  O   UNL     1      -3.513   0.045   0.000  0.00  0.00    -0.126 OA
ATOM      8  O   UNL     1      -2.416  -1.857   0.000  0.00  0.00    -0.126 OA
ATOM      9  N   UNL     1      -2.438  -0.602   0.000  0.00  0.00    +0.058 N 
ENDBRANCH   1   9
BRANCH   2  12
ATOM     10  O   UNL     1       3.513   0.045  -0.001  0.00  0.00    -0.126 OA
ATOM     11  O   UNL     1       2.417  -1.857   0.001  0.00  0.00    -0.126 OA
ATOM     12  N   UNL     1       2.438  -0.602   0.000  0.00  0.00    +0.058 N 
ENDBRANCH   2  12
TORSDOF 2
