REMARK  Name = 45266695
REMARK  5 active torsions:
REMARK  status: ('A' for Active; 'I' for Inactive)
REMARK    1  A    between atoms: C_1  and  N_2
REMARK    2  A    between atoms: C_1  and  C_8
REMARK    3  A    between atoms: C_1  and  C_9
REMARK    4  A    between atoms: C_9  and  S_10
REMARK    5  A    between atoms: S_10  and  S_11
REMARK                            x       y       z     vdW  Elec       q    Type
REMARK                         _______ _______ _______ _____ _____    ______ ____
ROOT
ATOM      1  C   UNK     1       0.607  -0.621  -0.595  0.00  0.00    +0.052 C 
ENDROOT
BRANCH   1   2
ATOM      2  N   UNK     1       0.717  -1.907   0.166  0.00  0.00    +0.389 N 
ATOM      3  H   UNK     1       0.125  -2.613  -0.272  0.00  0.00    -0.088 HD
ATOM      4  H   UNK     1       0.413  -1.760   1.128  0.00  0.00    -0.088 HD
ATOM      5  H   UNK     1       1.686  -2.225   0.160  0.00  0.00    -0.088 HD
ENDBRANCH   1   2
BRANCH   1   8
ATOM      6  O   UNK     1       2.450   0.173   0.668  0.00  0.00    -0.248 OA
ATOM      7  O   UNK     1       1.056   1.696  -0.304  0.00  0.00    -0.248 OA
ATOM      8  C   UNK     1       1.458   0.530  -0.030  0.00  0.00    +0.346 C 
ENDBRANCH   1   8
BRANCH   1   9
ATOM      9  C   UNK     1      -0.886  -0.335  -0.779  0.00  0.00    +0.058 C 
BRANCH   9  10
ATOM     10  S   UNK     1      -1.744   0.081   0.774  0.00  0.00    -0.088 S 
BRANCH  10  11
ATOM     11  S   UNK     1      -3.657   0.383   0.101  0.00  0.00    -0.110 S 
ATOM     12  H   UNK     1      -4.460   0.710   1.148  0.00  0.00    +0.114 HD
ENDBRANCH  10  11
ENDBRANCH   9  10
ENDBRANCH   1   9
TORSDOF 5
