REMARK  Name = 17754158
REMARK  11 active torsions:
REMARK  status: ('A' for Active; 'I' for Inactive)
REMARK    1  A    between atoms: P_1  and  O_3
REMARK    2  A    between atoms: P_1  and  O_5
REMARK    3  A    between atoms: P_1  and  O_14
REMARK    4  A    between atoms: O_5  and  C_6
REMARK    5  A    between atoms: C_6  and  C_7
REMARK    6  A    between atoms: C_7  and  C_8
REMARK    7  A    between atoms: C_8  and  C_11
REMARK    8  A    between atoms: C_8  and  O_12
REMARK    9  A    between atoms: O_14  and  P_15
REMARK   10  A    between atoms: P_15  and  O_17
REMARK   11  A    between atoms: P_15  and  O_19
REMARK                            x       y       z     vdW  Elec       q    Type
REMARK                         _______ _______ _______ _____ _____    ______ ____
ROOT
ATOM      1  P   UNL     1      -1.647   1.539   0.097  0.00  0.00    +0.484 P 
ATOM      2  O   UNL     1      -2.605   2.190   1.052  0.00  0.00    -0.227 OA
ENDROOT
BRANCH   1   3
ATOM      3  O   UNL     1      -1.154   2.498  -1.109  0.00  0.00    -0.302 OA
ATOM      4  H   UNL     1      -0.541   2.009  -1.681  0.00  0.00    +0.222 HD
ENDBRANCH   1   3
BRANCH   1   5
ATOM      5  O   UNL     1      -0.281   1.006   0.775  0.00  0.00    -0.273 OA
BRANCH   5   6
ATOM      6  C   UNL     1       0.707   0.370  -0.029  0.00  0.00    +0.156 C 
BRANCH   6   7
ATOM      7  C   UNL     1       1.889  -0.036   0.844  0.00  0.00    +0.060 C 
BRANCH   7   8
ATOM      8  C   UNL     1       3.033  -0.771   0.114  0.00  0.00    +0.101 C 
ATOM      9  C   UNL     1       2.551  -2.126  -0.425  0.00  0.00    +0.030 C 
BRANCH   8  11
ATOM     10 BR   UNL     1       4.253   1.800  -0.508  0.00  0.00    -0.078 Br
ATOM     11  C   UNL     1       3.683   0.009  -1.034  0.00  0.00    +0.094 C 
ENDBRANCH   8  11
BRANCH   8  12
ATOM     12  O   UNL     1       4.059  -1.056   1.076  0.00  0.00    -0.386 OA
ATOM     13  H   UNL     1       4.396  -0.225   1.445  0.00  0.00    +0.210 HD
ENDBRANCH   8  12
ENDBRANCH   7   8
ENDBRANCH   6   7
ENDBRANCH   5   6
ENDBRANCH   1   5
BRANCH   1  14
ATOM     14  O   UNL     1      -2.250   0.253  -0.674  0.00  0.00    -0.186 OA
BRANCH  14  15
ATOM     15  P   UNL     1      -2.828  -1.147  -0.110  0.00  0.00    +0.481 P 
ATOM     16  O   UNL     1      -1.846  -1.954   0.685  0.00  0.00    -0.227 OA
BRANCH  15  17
ATOM     17  O   UNL     1      -3.399  -1.869  -1.439  0.00  0.00    -0.302 OA
ATOM     18  H   UNL     1      -4.023  -1.276  -1.886  0.00  0.00    +0.222 HD
ENDBRANCH  15  17
BRANCH  15  19
ATOM     19  O   UNL     1      -4.165  -0.705   0.684  0.00  0.00    -0.302 OA
ATOM     20  H   UNL     1      -4.737  -0.190   0.094  0.00  0.00    +0.222 HD
ENDBRANCH  15  19
ENDBRANCH  14  15
ENDBRANCH   1  14
TORSDOF 11
