REMARK  Name = 11073745
REMARK  6 active torsions:
REMARK  status: ('A' for Active; 'I' for Inactive)
REMARK    1  A    between atoms: CA_2  and  C_12
REMARK    2  A    between atoms: CA_3  and  C_15
REMARK    3  A    between atoms: C_4  and  O_8
REMARK    4  A    between atoms: C_5  and  O_10
REMARK    5  A    between atoms: C_12  and  O_13
REMARK    6  A    between atoms: C_15  and  O_16
REMARK                            x       y       z     vdW  Elec       q    Type
REMARK                         _______ _______ _______ _____ _____    ______ ____
ROOT
ATOM      1  N   UNL     1       0.397  -1.099  -0.476  0.00  0.00    +0.393 N 
ATOM      2  CA  UNL     1      -1.001  -0.640  -0.455  0.00  0.00    -0.002 C 
ATOM      3  CA  UNL     1       1.208  -0.100   0.224  0.00  0.00    -0.002 C 
ATOM      4  C   UNL     1      -0.963   0.813   0.026  0.00  0.00    +0.118 C 
ATOM      5  C   UNL     1       0.501   1.206  -0.103  0.00  0.00    +0.118 C 
ATOM      6  H1  UNL     1       0.716  -1.192  -1.440  0.00  0.00    -0.084 HD
ATOM      7  H2  UNL     1       0.480  -2.008  -0.020  0.00  0.00    -0.084 HD
ENDROOT
BRANCH   4   8
ATOM      8  O   UNL     1      -1.773   1.634  -0.801  0.00  0.00    -0.384 OA
ATOM      9  H   UNL     1      -2.702   1.371  -0.707  0.00  0.00    +0.210 HD
ENDBRANCH   4   8
BRANCH   5  10
ATOM     10  O   UNL     1       0.812   2.221   0.835  0.00  0.00    -0.384 OA
ATOM     11  H   UNL     1       1.747   2.467   0.748  0.00  0.00    +0.210 HD
ENDBRANCH   5  10
BRANCH   2  12
ATOM     12  C   UNL     1      -1.868  -1.517   0.443  0.00  0.00    +0.118 C 
BRANCH  12  13
ATOM     13  O   UNL     1      -3.185  -0.997   0.446  0.00  0.00    -0.384 OA
ATOM     14  H   UNL     1      -3.748  -1.545   1.014  0.00  0.00    +0.210 HD
ENDBRANCH  12  13
ENDBRANCH   2  12
BRANCH   3  15
ATOM     15  C   UNL     1       2.652  -0.137  -0.251  0.00  0.00    +0.118 C 
BRANCH  15  16
ATOM     16  O   UNL     1       3.220  -1.385   0.111  0.00  0.00    -0.384 OA
ATOM     17  H   UNL     1       4.142  -1.419  -0.187  0.00  0.00    +0.210 HD
ENDBRANCH  15  16
ENDBRANCH   3  15
TORSDOF 6
