REMARK  Name = 445967
REMARK  3 active torsions:
REMARK  status: ('A' for Active; 'I' for Inactive)
REMARK    1  A    between atoms: C_5  and  O_15
REMARK    2  A    between atoms: O_15  and  C_16
REMARK    3  A    between atoms: C_16  and  C_17
REMARK                            x       y       z     vdW  Elec       q    Type
REMARK                         _______ _______ _______ _____ _____    ______ ____
ROOT
ATOM      1  N   UNL     1      -1.253  -1.442   0.043  0.00  0.00    -0.356 NA
ATOM      2  N   UNL     1      -4.103   1.476   0.000  0.00  0.00    -0.318 N 
ATOM      3  N   UNL     1      -2.007   2.173  -0.248  0.00  0.00    -0.311 N 
ATOM      4  N   UNL     1      -2.800  -3.225   0.351  0.00  0.00    -0.336 N 
ATOM      5  C   UNL     1      -0.987  -0.122  -0.110  0.00  0.00    +0.293 C 
ATOM      6  C   UNL     1      -2.029   0.805  -0.111  0.00  0.00    +0.122 C 
ATOM      7  C   UNL     1      -3.332   0.344   0.046  0.00  0.00    +0.050 C 
ATOM      8  C   UNL     1      -3.647  -0.999   0.205  0.00  0.00    +0.117 C 
ATOM      9  C   UNL     1      -2.542  -1.838   0.193  0.00  0.00    +0.163 C 
ATOM     10  C   UNL     1      -3.266   2.543  -0.177  0.00  0.00    +0.182 C 
ATOM     11  H   UNL     1      -5.084   1.515   0.081  0.00  0.00    +0.148 HD
ATOM     12  H   UNL     1      -1.219   2.750  -0.372  0.00  0.00    +0.149 HD
ATOM     13  H   UNL     1      -2.055  -3.868   0.350  0.00  0.00    +0.144 HD
ATOM     14  H   UNL     1      -3.725  -3.544   0.461  0.00  0.00    +0.144 HD
ENDROOT
BRANCH   5  15
ATOM     15  O   UNL     1       0.324   0.258  -0.260  0.00  0.00    -0.451 OA
BRANCH  15  16
ATOM     16  C   UNL     1       1.297  -0.770  -0.243  0.00  0.00    +0.208 C 
BRANCH  16  17
ATOM     17  C   UNL     1       2.675  -0.135  -0.419  0.00  0.00    +0.044 C 
ATOM     18  C   UNL     1       2.959   0.867   0.709  0.00  0.00    +0.004 C 
ATOM     19  C   UNL     1       3.765  -1.213  -0.478  0.00  0.00    +0.004 C 
ATOM     20  C   UNL     1       4.354   1.476   0.584  0.00  0.00    +0.000 C 
ATOM     21  C   UNL     1       5.159  -0.601  -0.601  0.00  0.00    +0.000 C 
ATOM     22  C   UNL     1       5.434   0.401   0.516  0.00  0.00    +0.000 C 
ENDBRANCH  16  17
ENDBRANCH  15  16
ENDBRANCH   5  15
TORSDOF 3
