REMARK  Name = 80654
REMARK  2 active torsions:
REMARK  status: ('A' for Active; 'I' for Inactive)
REMARK    1  A    between atoms: C_1  and  C_7
REMARK    2  A    between atoms: C_7  and  N_9
REMARK                            x       y       z     vdW  Elec       q    Type
REMARK                         _______ _______ _______ _____ _____    ______ ____
ROOT
ATOM      1  C   UNL     1      -0.239  -0.390   0.410  0.00  0.00    -0.003 C 
ATOM      2  C   UNL     1      -0.517   0.976   0.472  0.00  0.00    -0.003 C 
ATOM      3  C   UNL     1      -1.214  -1.280  -0.039  0.00  0.00    -0.003 C 
ATOM      4  C   UNL     1      -1.770   1.450   0.085  0.00  0.00    -0.000 C 
ATOM      5  C   UNL     1      -2.467  -0.805  -0.427  0.00  0.00    -0.000 C 
ATOM      6  C   UNL     1      -2.745   0.560  -0.365  0.00  0.00    -0.000 C 
ENDROOT
BRANCH   1   7
ATOM      7  C   UNL     1       1.101  -0.897   0.824  0.00  0.00    +0.117 C 
BRANCH   7   9
ATOM      8  O   UNL     1       2.940   1.209  -0.063  0.00  0.00    -0.265 OA
ATOM      9  N   UNL     1       2.050  -0.938  -0.290  0.00  0.00    -0.293 N 
ATOM     10  C   UNL     1       2.860   0.116  -0.607  0.00  0.00    +0.300 C 
ATOM     11  H   UNL     1       2.108  -1.758  -0.832  0.00  0.00    +0.150 HD
ENDBRANCH   7   9
ENDBRANCH   1   7
TORSDOF 2
