REMARK  Name = 5288991
REMARK  9 active torsions:
REMARK  status: ('A' for Active; 'I' for Inactive)
REMARK    1  A    between atoms: C_2  and  O_16
REMARK    2  A    between atoms: C_3  and  O_18
REMARK    3  A    between atoms: C_4  and  C_20
REMARK    4  A    between atoms: C_5  and  N_6
REMARK    5  A    between atoms: C_9  and  C_13
REMARK    6  A    between atoms: C_13  and  O_14
REMARK    7  A    between atoms: C_20  and  O_21
REMARK    8  A    between atoms: O_21  and  P_22
REMARK    9  A    between atoms: P_22  and  O_25
REMARK                            x       y       z     vdW  Elec       q    Type
REMARK                         _______ _______ _______ _____ _____    ______ ____
ROOT
ATOM      1  O   UNL     1       0.488  -1.250   1.110  0.00  0.00    -0.333 OA
ATOM      2  C   UNL     1       1.075  -2.870  -0.530  0.00  0.00    +0.171 C 
ATOM      3  C   UNL     1      -0.333  -2.381  -0.802  0.00  0.00    +0.187 C 
ATOM      4  C   UNL     1       1.623  -1.787   0.394  0.00  0.00    +0.176 C 
ATOM      5  C   UNL     1      -0.717  -1.801   0.547  0.00  0.00    +0.223 C 
ENDROOT
BRANCH   5   6
ATOM      6  N   UNL     1      -1.783  -0.779   0.391  0.00  0.00    -0.279 N 
ATOM      7  C   UNL     1      -1.438   0.498   0.143  0.00  0.00    +0.126 C 
ATOM      8  C   UNL     1      -3.071  -1.151   0.499  0.00  0.00    +0.063 C 
ATOM      9  C   UNL     1      -2.413   1.474  -0.009  0.00  0.00    +0.073 C 
ATOM     10  C   UNL     1      -4.088  -0.218   0.357  0.00  0.00    +0.016 C 
ATOM     11  C   UNL     1      -3.751   1.107   0.100  0.00  0.00    +0.005 C 
BRANCH   9  13
ATOM     12  O   UNL     1      -2.830   3.792  -0.427  0.00  0.00    -0.245 OA
ATOM     13  C   UNL     1      -2.041   2.853  -0.277  0.00  0.00    +0.336 C 
BRANCH  13  14
ATOM     14  O   UNL     1      -0.692   3.025  -0.349  0.00  0.00    -0.477 OA
ATOM     15  H   UNL     1      -0.119   2.293  -0.230  0.00  0.00    +0.295 HD
ENDBRANCH  13  14
ENDBRANCH   9  13
ENDBRANCH   5   6
BRANCH   2  16
ATOM     16  O   UNL     1       1.021  -4.103   0.189  0.00  0.00    -0.379 OA
ATOM     17  H   UNL     1       0.673  -4.799  -0.390  0.00  0.00    +0.211 HD
ENDBRANCH   2  16
BRANCH   3  18
ATOM     18  O   UNL     1      -1.210  -3.414  -1.202  0.00  0.00    -0.378 OA
ATOM     19  H   UNL     1      -0.932  -3.758  -2.065  0.00  0.00    +0.211 HD
ENDBRANCH   3  18
BRANCH   4  20
ATOM     20  C   UNL     1       2.298  -0.649  -0.360  0.00  0.00    +0.186 C 
BRANCH  20  21
ATOM     21  O   UNL     1       2.761   0.305   0.578  0.00  0.00    -0.269 OA
BRANCH  21  22
ATOM     22  P   UNL     1       3.532   1.646   0.047  0.00  0.00    +0.503 P 
ATOM     23  O   UNL     1       3.914   2.485   1.247  0.00  0.00    -0.116 OA
ATOM     24  O   UNL     1       2.761   2.259  -1.102  0.00  0.00    -0.225 OA
BRANCH  22  25
ATOM     25  O   UNL     1       4.892   0.960  -0.546  0.00  0.00    -0.301 OA
ATOM     26  H   UNL     1       5.397   0.563   0.181  0.00  0.00    +0.222 HD
ENDBRANCH  22  25
ENDBRANCH  21  22
ENDBRANCH  20  21
ENDBRANCH   4  20
TORSDOF 9
