REMARK  Name = 5221296
REMARK  5 active torsions:
REMARK  status: ('A' for Active; 'I' for Inactive)
REMARK    1  A    between atoms: C_1  and  N_2
REMARK    2  A    between atoms: C_1  and  C_7
REMARK    3  A    between atoms: N_2  and  C_5
REMARK    4  A    between atoms: C_7  and  C_8
REMARK    5  A    between atoms: C_8  and  S_9
REMARK                            x       y       z     vdW  Elec       q    Type
REMARK                         _______ _______ _______ _____ _____    ______ ____
ROOT
ATOM      1  C   UNL     1      -0.909   1.006  -0.513  0.00  0.00    -0.071 C 
ENDROOT
BRANCH   1   2
ATOM      2  N   UNL     1      -2.198   0.391   0.013  0.00  0.00    +0.387 N 
ATOM      3  C   UNL     1      -2.146   0.326   1.533  0.00  0.00    -0.096 C 
ATOM      4  C   UNL     1      -3.381   1.245  -0.418  0.00  0.00    -0.096 C 
BRANCH   2   5
ATOM      5  C   UNL     1      -2.356  -1.015  -0.549  0.00  0.00    -0.073 C 
ATOM      6  C   UNL     1      -3.638  -1.621  -0.023  0.00  0.00    -0.024 C 
ENDBRANCH   2   5
ENDBRANCH   1   2
BRANCH   1   7
ATOM      7  C   UNL     1       0.298   0.205  -0.044  0.00  0.00    +0.004 C 
BRANCH   7   8
ATOM      8  C   UNL     1       1.623   0.762  -0.546  0.00  0.00    +0.156 C 
BRANCH   8   9
ATOM      9  S   UNL     1       2.985  -0.190   0.052  0.00  0.00    +0.022 S 
ATOM     10  O   UNL     1       2.719  -1.525  -0.483  0.00  0.00    -0.069 OA
ATOM     11  O   UNL     1       4.144   0.487  -0.527  0.00  0.00    -0.069 OA
ATOM     12  O   UNL     1       2.861  -0.071   1.504  0.00  0.00    -0.069 OA
ENDBRANCH   8   9
ENDBRANCH   7   8
ENDBRANCH   1   7
TORSDOF 5
