REMARK  Name = 3973
REMARK  2 active torsions:
REMARK  status: ('A' for Active; 'I' for Inactive)
REMARK    1  A    between atoms: C_3  and  N_13
REMARK    2  A    between atoms: C_7  and  C_18
REMARK                            x       y       z     vdW  Elec       q    Type
REMARK                         _______ _______ _______ _____ _____    ______ ____
ROOT
ATOM      1  O   UNL     1      -0.264   0.223   0.106  0.00  0.00    -0.440 OA
ATOM      2  O   UNL     1      -0.613   4.278   0.055  0.00  0.00    -0.286 OA
ATOM      3  C   UNL     1      -1.509   0.837   0.185  0.00  0.00    +0.202 C 
ATOM      4  C   UNL     1       0.860   1.004   0.010  0.00  0.00    +0.150 C 
ATOM      5  C   UNL     1       0.814   2.396  -0.012  0.00  0.00    +0.074 C 
ATOM      6  C   UNL     1      -1.667   2.171   0.172  0.00  0.00    +0.096 C 
ATOM      7  C   UNL     1       2.088   0.346  -0.067  0.00  0.00    +0.035 C 
ATOM      8  C   UNL     1      -0.494   3.061   0.071  0.00  0.00    +0.203 C 
ATOM      9  C   UNL     1       1.992   3.142  -0.111  0.00  0.00    +0.006 C 
ATOM     10  C   UNL     1       3.266   1.087  -0.166  0.00  0.00    +0.003 C 
ATOM     11  C   UNL     1       3.218   2.481  -0.188  0.00  0.00    +0.000 C 
ENDROOT
BRANCH   3  13
ATOM     12  O   UNL     1      -4.520  -1.979  -0.179  0.00  0.00    -0.350 OA
ATOM     13  N   UNL     1      -2.563  -0.022   0.277  0.00  0.00    -0.274 N 
ATOM     14  C   UNL     1      -2.451  -1.336   0.912  0.00  0.00    +0.126 C 
ATOM     15  C   UNL     1      -3.928   0.370  -0.077  0.00  0.00    +0.126 C 
ATOM     16  C   UNL     1      -3.166  -2.373   0.053  0.00  0.00    +0.164 C 
ATOM     17  C   UNL     1      -4.577  -0.742  -0.892  0.00  0.00    +0.164 C 
ENDBRANCH   3  13
BRANCH   7  18
ATOM     18  C   UNL     1       2.172  -1.101  -0.046  0.00  0.00    +0.003 C 
ATOM     19  C   UNL     1       2.299  -1.771   1.169  0.00  0.00    +0.000 C 
ATOM     20  C   UNL     1       2.125  -1.817  -1.240  0.00  0.00    +0.000 C 
ATOM     21  C   UNL     1       2.380  -3.163   1.190  0.00  0.00    +0.000 C 
ATOM     22  C   UNL     1       2.205  -3.209  -1.219  0.00  0.00    +0.000 C 
ATOM     23  C   UNL     1       2.333  -3.882  -0.004  0.00  0.00    +0.000 C 
ENDBRANCH   7  18
TORSDOF 2
