REMARK  Name = 81831
REMARK  10 active torsions:
REMARK  status: ('A' for Active; 'I' for Inactive)
REMARK    1  A    between atoms: C_1  and  N_2
REMARK    2  A    between atoms: C_1  and  C_11
REMARK    3  A    between atoms: C_1  and  C_14
REMARK    4  A    between atoms: C_1  and  C_17
REMARK    5  A    between atoms: N_2  and  C_5
REMARK    6  A    between atoms: C_5  and  C_6
REMARK    7  A    between atoms: C_6  and  S_7
REMARK    8  A    between atoms: C_11  and  O_12
REMARK    9  A    between atoms: C_14  and  O_15
REMARK   10  A    between atoms: C_17  and  O_18
REMARK                            x       y       z     vdW  Elec       q    Type
REMARK                         _______ _______ _______ _____ _____    ______ ____
ROOT
ATOM      1  C   UNL     1      -1.823   0.002   0.012  0.00  0.00    +0.037 C 
ENDROOT
BRANCH   1   2
ATOM      2  N   UNL     1      -0.617   0.005  -0.833  0.00  0.00    +0.392 N 
ATOM      3  H   UNL     1      -0.619   0.841  -1.417  0.00  0.00    -0.084 HD
ATOM      4  H   UNL     1      -0.620  -0.831  -1.417  0.00  0.00    -0.084 HD
BRANCH   2   5
ATOM      5  C   UNL     1       0.577   0.000  -0.009  0.00  0.00    -0.055 C 
BRANCH   5   6
ATOM      6  C   UNL     1       1.831  -0.007  -0.868  0.00  0.00    +0.135 C 
BRANCH   6   7
ATOM      7  S   UNL     1       3.289   0.013   0.127  0.00  0.00    +0.020 S 
ATOM      8  O   UNL     1       4.369  -0.203  -1.075  0.00  0.00    -0.070 OA
ATOM      9  O   UNL     1       3.295  -1.164   0.977  0.00  0.00    -0.070 OA
ATOM     10  O   UNL     1       3.461   1.346   0.676  0.00  0.00    -0.070 OA
ENDBRANCH   6   7
ENDBRANCH   5   6
ENDBRANCH   2   5
ENDBRANCH   1   2
BRANCH   1  11
ATOM     11  C   UNL     1      -3.044   0.008  -0.930  0.00  0.00    +0.123 C 
BRANCH  11  12
ATOM     12  O   UNL     1      -4.251  -0.006  -0.176  0.00  0.00    -0.384 OA
ATOM     13  H   UNL     1      -5.010  -0.003  -0.781  0.00  0.00    +0.210 HD
ENDBRANCH  11  12
ENDBRANCH   1  11
BRANCH   1  14
ATOM     14  C   UNL     1      -1.802  -1.252   0.913  0.00  0.00    +0.123 C 
BRANCH  14  15
ATOM     15  O   UNL     1      -1.753  -2.441   0.134  0.00  0.00    -0.384 OA
ATOM     16  H   UNL     1      -1.741  -3.212   0.722  0.00  0.00    +0.210 HD
ENDBRANCH  14  15
ENDBRANCH   1  14
BRANCH   1  17
ATOM     17  C   UNL     1      -1.792   1.254   0.914  0.00  0.00    +0.123 C 
BRANCH  17  18
ATOM     18  O   UNL     1      -1.740   2.445   0.138  0.00  0.00    -0.384 OA
ATOM     19  H   UNL     1      -1.721   3.215   0.727  0.00  0.00    +0.210 HD
ENDBRANCH  17  18
ENDBRANCH   1  17
TORSDOF 10
