REMARK  Name = 13712
REMARK  4 active torsions:
REMARK  status: ('A' for Active; 'I' for Inactive)
REMARK    1  A    between atoms: C3*_2  and  O3*_15
REMARK    2  A    between atoms: C1*_4  and  N1_8
REMARK    3  A    between atoms: C4*_5  and  C5*_17
REMARK    4  A    between atoms: C5*_17  and  O5*_18
REMARK                            x       y       z     vdW  Elec       q    Type
REMARK                         _______ _______ _______ _____ _____    ______ ____
ROOT
ATOM      1  O4* U   A   1       1.472  -0.225  -0.978  0.00  0.00    -0.335 OA
ATOM      2  C3* U   A   1       2.823   0.761   0.702  0.00  0.00    +0.144 C 
ATOM      3  C2* U   A   1       1.383   1.126   0.981  0.00  0.00    +0.083 C 
ATOM      4  C1* U   A   1       0.701   0.803  -0.339  0.00  0.00    +0.202 C 
ATOM      5  C4* U   A   1       2.701  -0.418  -0.253  0.00  0.00    +0.173 C 
ENDROOT
BRANCH   4   8
ATOM      6  O2  U   A   1      -1.566   2.479  -0.443  0.00  0.00    -0.252 OA
ATOM      7  O4  U   A   1      -4.430  -1.050   0.323  0.00  0.00    -0.270 OA
ATOM      8  N1  U   A   1      -0.648   0.348  -0.171  0.00  0.00    -0.219 N 
ATOM      9  N3  U   A   1      -2.991   0.721  -0.061  0.00  0.00    -0.236 N 
ATOM     10  C2  U   A   1      -1.715   1.273  -0.240  0.00  0.00    +0.315 C 
ATOM     11  C6  U   A   1      -0.900  -0.998   0.059  0.00  0.00    +0.076 C 
ATOM     12  C5  U   A   1      -2.122  -1.509   0.228  0.00  0.00    +0.074 C 
ATOM     13  C4  U   A   1      -3.294  -0.612   0.171  0.00  0.00    +0.254 C 
ATOM     14  H3  U   A   1      -3.751   1.345  -0.104  0.00  0.00    +0.159 HD
ENDBRANCH   4   8
BRANCH   2  15
ATOM     15  O3* U   A   1       3.477   1.847   0.051  0.00  0.00    -0.382 OA
ATOM     16  H3* U   A   1       3.551   2.595   0.664  0.00  0.00    +0.210 HD
ENDBRANCH   2  15
BRANCH   5  17
ATOM     17  C5* U   A   1       2.614  -1.758   0.467  0.00  0.00    +0.169 C 
BRANCH  17  18
ATOM     18  O5* U   A   1       2.493  -2.790  -0.498  0.00  0.00    -0.379 OA
ATOM     19  H5* U   A   1       2.436  -3.648  -0.049  0.00  0.00    +0.211 HD
ENDBRANCH  17  18
ENDBRANCH   5  17
TORSDOF 4
