REMARK  Name = 107
REMARK  4 active torsions:
REMARK  status: ('A' for Active; 'I' for Inactive)
REMARK    1  A    between atoms: C_1  and  C_2
REMARK    2  A    between atoms: C_1  and  C_8
REMARK    3  A    between atoms: C_8  and  C_10
REMARK    4  A    between atoms: C_10  and  O_11
REMARK                            x       y       z     vdW  Elec       q    Type
REMARK                         _______ _______ _______ _____ _____    ______ ____
ROOT
ATOM      1  C   UNL     1       0.678  -0.012   0.699  0.00  0.00    +0.038 C 
ENDROOT
BRANCH   1   2
ATOM      2  C   UNL     1      -0.768  -0.007   0.336  0.00  0.00    -0.022 C 
ATOM      3  C   UNL     1      -1.451   1.203   0.209  0.00  0.00    -0.004 C 
ATOM      4  C   UNL     1      -1.439  -1.211   0.122  0.00  0.00    -0.004 C 
ATOM      5  C   UNL     1      -2.804   1.209  -0.131  0.00  0.00    -0.000 C 
ATOM      6  C   UNL     1      -2.792  -1.206  -0.217  0.00  0.00    -0.000 C 
ATOM      7  C   UNL     1      -3.474   0.004  -0.344  0.00  0.00    -0.000 C 
ENDBRANCH   1   2
BRANCH   1   8
ATOM      8  C   UNL     1       1.618   0.036  -0.511  0.00  0.00    +0.114 C 
BRANCH   8  10
ATOM      9  O   UNL     1       3.439  -0.085   1.072  0.00  0.00    -0.250 OA
ATOM     10  C   UNL     1       3.068  -0.008  -0.093  0.00  0.00    +0.314 C 
BRANCH  10  11
ATOM     11  O   UNL     1       3.923   0.076  -1.142  0.00  0.00    -0.480 OA
ATOM     12  H   UNL     1       3.588   0.133  -2.015  0.00  0.00    +0.295 HD
ENDBRANCH  10  11
ENDBRANCH   8  10
ENDBRANCH   1   8
TORSDOF 4
