REMARK  Name = 445478
REMARK  9 active torsions:
REMARK  status: ('A' for Active; 'I' for Inactive)
REMARK    1  A    between atoms: C_1  and  C_2
REMARK    2  A    between atoms: C_1  and  CA_10
REMARK    3  A    between atoms: C_2  and  C_3
REMARK    4  A    between atoms: C_3  and  C_4
REMARK    5  A    between atoms: C_4  and  C_7
REMARK    6  A    between atoms: C_7  and  O_8
REMARK    7  A    between atoms: CA_10  and  N_11
REMARK    8  A    between atoms: CA_10  and  C_16
REMARK    9  A    between atoms: C_16  and  O_17
REMARK                            x       y       z     vdW  Elec       q    Type
REMARK                         _______ _______ _______ _____ _____    ______ ____
ROOT
ATOM      1  C   UNL     1       1.365   0.778   1.075  0.00  0.00    -0.011 C 
ENDROOT
BRANCH   1   2
ATOM      2  C   UNL     1       0.142   0.632   0.156  0.00  0.00    +0.003 C 
BRANCH   2   3
ATOM      3  C   UNL     1      -1.190   0.842   0.892  0.00  0.00    +0.033 C 
BRANCH   3   4
ATOM      4  C   UNL     1      -2.411   0.629   0.035  0.00  0.00    +0.053 C 
ATOM      5  C   UNL     1      -3.010   1.633  -0.623  0.00  0.00    +0.002 C 
BRANCH   4   7
ATOM      6  O   UNL     1      -4.027  -0.973  -0.755  0.00  0.00    -0.245 OA
ATOM      7  C   UNL     1      -3.029  -0.715  -0.100  0.00  0.00    +0.334 C 
BRANCH   7   8
ATOM      8  O   UNL     1      -2.338  -1.635   0.612  0.00  0.00    -0.477 OA
ATOM      9  H   UNL     1      -1.578  -1.379   1.096  0.00  0.00    +0.295 HD
ENDBRANCH   7   8
ENDBRANCH   4   7
ENDBRANCH   3   4
ENDBRANCH   2   3
ENDBRANCH   1   2
BRANCH   1  10
ATOM     10  CA  UNL     1       2.724   0.631   0.371  0.00  0.00    +0.036 C 
BRANCH  10  11
ATOM     11  N   UNL     1       2.927   1.628  -0.680  0.00  0.00    +0.389 N 
ATOM     12  H1  UNL     1       2.809   2.563  -0.289  0.00  0.00    -0.088 HD
ATOM     13  H2  UNL     1       2.245   1.482  -1.424  0.00  0.00    -0.088 HD
ATOM     14  H3  UNL     1       3.870   1.535  -1.059  0.00  0.00    -0.088 HD
ENDBRANCH  10  11
BRANCH  10  16
ATOM     15  OXT UNL     1       3.090  -0.975  -1.431  0.00  0.00    -0.253 OA
ATOM     16  C   UNL     1       2.907  -0.746  -0.243  0.00  0.00    +0.293 C 
BRANCH  16  17
ATOM     17  O   UNL     1       2.850  -1.731   0.692  0.00  0.00    -0.482 OA
ATOM     18  H   UNL     1       2.707  -1.514   1.593  0.00  0.00    +0.295 HD
ENDBRANCH  16  17
ENDBRANCH  10  16
ENDBRANCH   1  10
TORSDOF 9
