REMARK  Name = 97576
REMARK  7 active torsions:
REMARK  status: ('A' for Active; 'I' for Inactive)
REMARK    1  A    between atoms: C_2  and  O_18
REMARK    2  A    between atoms: C_3  and  O_20
REMARK    3  A    between atoms: C_4  and  N_6
REMARK    4  A    between atoms: C_5  and  C_22
REMARK    5  A    between atoms: C_22  and  O_23
REMARK    6  A    between atoms: O_23  and  S_24
REMARK    7  A    between atoms: S_24  and  N_27
REMARK                            x       y       z     vdW  Elec       q    Type
REMARK                         _______ _______ _______ _____ _____    ______ ____
ROOT
ATOM      1  O   UNL     1       1.026  -0.757   1.004  0.00  0.00    -0.333 OA
ATOM      2  C   UNL     1       0.178  -1.987  -0.834  0.00  0.00    +0.187 C 
ATOM      3  C   UNL     1       1.485  -2.622  -0.403  0.00  0.00    +0.171 C 
ATOM      4  C   UNL     1      -0.209  -1.212   0.416  0.00  0.00    +0.225 C 
ATOM      5  C   UNL     1       2.118  -1.521   0.442  0.00  0.00    +0.178 C 
ENDROOT
BRANCH   4   6
ATOM      6  N   UNL     1      -1.083  -0.069   0.162  0.00  0.00    -0.247 N 
ATOM      7  N   UNL     1      -1.699   2.014  -0.347  0.00  0.00    -0.242 NA
ATOM      8  N   UNL     1      -3.268  -1.070   0.521  0.00  0.00    -0.228 NA
ATOM      9  N   UNL     1      -5.056   0.555   0.183  0.00  0.00    -0.229 NA
ATOM     10  C   UNL     1      -2.449  -0.051   0.220  0.00  0.00    +0.152 C 
ATOM     11  C   UNL     1      -0.681   1.196  -0.182  0.00  0.00    +0.223 C 
ATOM     12  C   UNL     1      -2.810   1.248  -0.099  0.00  0.00    +0.140 C 
ATOM     13  C   UNL     1      -4.171   1.538  -0.111  0.00  0.00    +0.143 C 
ATOM     14  C   UNL     1      -4.557  -0.670   0.477  0.00  0.00    +0.253 C 
ATOM     15  N   UNL     1      -4.627   2.830  -0.426  0.00  0.00    -0.342 N 
ATOM     16  H   UNL     1      -5.592   3.023  -0.431  0.00  0.00    +0.144 HD
ATOM     17  H   UNL     1      -3.981   3.541  -0.640  0.00  0.00    +0.144 HD
ENDBRANCH   4   6
BRANCH   2  18
ATOM     18  O   UNL     1      -0.807  -2.935  -1.192  0.00  0.00    -0.378 OA
ATOM     19  H   UNL     1      -0.525  -3.408  -1.991  0.00  0.00    +0.211 HD
ENDBRANCH   2  18
BRANCH   3  20
ATOM     20  O   UNL     1       1.215  -3.747   0.433  0.00  0.00    -0.379 OA
ATOM     21  H   UNL     1       0.812  -4.453  -0.096  0.00  0.00    +0.211 HD
ENDBRANCH   3  20
BRANCH   5  22
ATOM     22  C   UNL     1       2.995  -0.579  -0.370  0.00  0.00    +0.206 C 
BRANCH  22  23
ATOM     23  O   UNL     1       3.525   0.409   0.497  0.00  0.00    -0.227 OA
BRANCH  23  24
ATOM     24  S   UNL     1       4.514   1.571  -0.097  0.00  0.00    +0.045 S 
ATOM     25  O   UNL     1       5.732   0.940  -0.572  0.00  0.00    -0.056 OA
ATOM     26  O   UNL     1       3.725   2.394  -0.995  0.00  0.00    -0.056 OA
BRANCH  24  27
ATOM     27  N   UNL     1       4.905   2.524   1.274  0.00  0.00    -0.204 NA
ATOM     28  H   UNL     1       5.462   1.971   1.925  0.00  0.00    +0.144 HD
ATOM     29  H   UNL     1       4.047   2.829   1.733  0.00  0.00    +0.144 HD
ENDBRANCH  24  27
ENDBRANCH  23  24
ENDBRANCH  22  23
ENDBRANCH   5  22
TORSDOF 7
