REMARK  Name = 90334
REMARK  3 active torsions:
REMARK  status: ('A' for Active; 'I' for Inactive)
REMARK    1  A    between atoms: C_2  and  O_10
REMARK    2  A    between atoms: O_10  and  C_11
REMARK    3  A    between atoms: C_11  and  C_12
REMARK                            x       y       z     vdW  Elec       q    Type
REMARK                         _______ _______ _______ _____ _____    ______ ____
ROOT
ATOM      1  N   UNL     1       3.258  -0.145  -0.910  0.00  0.00    -0.226 NA
ATOM      2  C   UNL     1       1.401  -0.048   0.618  0.00  0.00    +0.170 C 
ATOM      3  C   UNL     1       2.301  -0.741  -0.164  0.00  0.00    +0.160 C 
ATOM      4  C   UNL     1       1.470   1.334   0.648  0.00  0.00    +0.041 C 
ATOM      5  C   UNL     1       2.442   1.983  -0.106  0.00  0.00    +0.024 C 
ATOM      6  C   UNL     1       3.304   1.205  -0.861  0.00  0.00    +0.101 C 
ATOM      7  N   UNL     1       2.222  -2.156  -0.188  0.00  0.00    -0.340 N 
ATOM      8  H   UNL     1       2.853  -2.675  -0.738  0.00  0.00    +0.144 HD
ATOM      9  H   UNL     1       1.536  -2.620   0.345  0.00  0.00    +0.144 HD
ENDROOT
BRANCH   2  10
ATOM     10  O   UNL     1       0.445  -0.690   1.361  0.00  0.00    -0.468 OA
BRANCH  10  11
ATOM     11  C   UNL     1      -0.485  -1.497   0.649  0.00  0.00    +0.232 C 
BRANCH  11  12
ATOM     12  C   UNL     1      -1.643  -0.658   0.223  0.00  0.00    +0.021 C 
ATOM     13  C   UNL     1      -2.341  -0.973  -0.943  0.00  0.00    -0.001 C 
ATOM     14  C   UNL     1      -2.029   0.440   0.992  0.00  0.00    -0.001 C 
ATOM     15  C   UNL     1      -3.423  -0.188  -1.341  0.00  0.00    -0.000 C 
ATOM     16  C   UNL     1      -3.112   1.224   0.594  0.00  0.00    -0.000 C 
ATOM     17  C   UNL     1      -3.809   0.910  -0.573  0.00  0.00    -0.000 C 
ENDBRANCH  11  12
ENDBRANCH  10  11
ENDBRANCH   2  10
TORSDOF 3
