REMARK  Name = 175468
REMARK  11 active torsions:
REMARK  status: ('A' for Active; 'I' for Inactive)
REMARK    1  A    between atoms: C_1  and  C_2
REMARK    2  A    between atoms: C_1  and  C_9
REMARK    3  A    between atoms: C_2  and  C_3
REMARK    4  A    between atoms: C_3  and  C_4
REMARK    5  A    between atoms: C_4  and  C_5
REMARK    6  A    between atoms: C_5  and  C_6
REMARK    7  A    between atoms: C_6  and  C_8
REMARK    8  A    between atoms: C_10  and  C_11
REMARK    9  A    between atoms: C_11  and  C_12
REMARK   10  A    between atoms: C_12  and  C_14
REMARK   11  A    between atoms: C_14  and  O_15
REMARK                            x       y       z     vdW  Elec       q    Type
REMARK                         _______ _______ _______ _____ _____    ______ ____
ROOT
ATOM      1  C   UNL     1      -0.164  -0.568  -0.062  0.00  0.00    +0.026 C 
ENDROOT
BRANCH   1   2
ATOM      2  C   UNL     1      -1.463   0.239  -0.150  0.00  0.00    -0.031 C 
ATOM      3  C   UNL     1      -2.758  -0.577  -0.080  0.00  0.00    -0.030 C 
BRANCH   3   4
ATOM      4  C   UNL     1      -4.056   0.235  -0.112  0.00  0.00    +0.037 C 
BRANCH   4   5
ATOM      5  C   UNL     1      -5.313  -0.625   0.009  0.00  0.00    +0.114 C 
BRANCH   5   7
ATOM      6  O   UNL     1      -6.606   1.438   0.040  0.00  0.00    -0.250 OA
ATOM      7  C   UNL     1      -6.568   0.216   0.069  0.00  0.00    +0.314 C 
BRANCH   7   8
ATOM      8  O   UNL     1      -7.681  -0.559   0.154  0.00  0.00    -0.480 OA
ATOM      9  H   UNL     1      -7.601  -1.493   0.173  0.00  0.00    +0.295 HD
ENDBRANCH   7   8
ENDBRANCH   5   7
ENDBRANCH   4   5
ENDBRANCH   3   4
ENDBRANCH   1   2
BRANCH   1  10
ATOM     10  C   UNL     1       1.093   0.305  -0.051  0.00  0.00    +0.005 C 
BRANCH  10  11
ATOM     11  C   UNL     1       2.361  -0.551   0.007  0.00  0.00    +0.000 C 
BRANCH  11  12
ATOM     12  C   UNL     1       3.617   0.322   0.051  0.00  0.00    +0.000 C 
BRANCH  12  13
ATOM     13  C   UNL     1       4.920  -0.482   0.037  0.00  0.00    +0.001 C 
BRANCH  13  14
ATOM     14  C   UNL     1       6.176   0.391   0.006  0.00  0.00    +0.012 C 
BRANCH  14  16
ATOM     15 BR   UNL     1       9.008   0.680   0.049  0.00  0.00    -0.081 Br
ATOM     16  C   UNL     1       7.432  -0.464   0.033  0.00  0.00    +0.068 C 
ENDBRANCH  14  16
ENDBRANCH  13  14
ENDBRANCH  12  13
ENDBRANCH  11  12
ENDBRANCH  10  11
ENDBRANCH   1  10
TORSDOF 11
