REMARK  Name = 7058174
REMARK  4 active torsions:
REMARK  status: ('A' for Active; 'I' for Inactive)
REMARK    1  A    between atoms: C_1  and  N_2
REMARK    2  A    between atoms: C_1  and  C_8
REMARK    3  A    between atoms: C_1  and  C_9
REMARK    4  A    between atoms: C_9  and  S_10
REMARK                            x       y       z     vdW  Elec       q    Type
REMARK                         _______ _______ _______ _____ _____    ______ ____
ROOT
ATOM      1  C   UNK     1       0.559  -0.621  -0.598  0.00  0.00    +0.051 C 
ENDROOT
BRANCH   1   2
ATOM      2  N   UNK     1       0.632  -1.911   0.161  0.00  0.00    +0.389 N 
ATOM      3  H   UNK     1       0.021  -2.599  -0.279  0.00  0.00    -0.088 HD
ATOM      4  H   UNK     1       0.333  -1.757   1.124  0.00  0.00    -0.088 HD
ATOM      5  H   UNK     1       1.592  -2.256   0.154  0.00  0.00    -0.088 HD
ENDBRANCH   1   2
BRANCH   1   8
ATOM      6  O   UNK     1       2.424   0.119   0.666  0.00  0.00    -0.248 OA
ATOM      7  O   UNK     1       1.073   1.682  -0.302  0.00  0.00    -0.248 OA
ATOM      8  C   UNK     1       1.442   0.505  -0.030  0.00  0.00    +0.346 C 
ENDBRANCH   1   8
BRANCH   1   9
ATOM      9  C   UNK     1      -0.925  -0.291  -0.780  0.00  0.00    +0.047 C 
BRANCH   9  10
ATOM     10  S   UNK     1      -1.771   0.146   0.775  0.00  0.00    -0.141 S 
ATOM     11  C   UNK     1      -3.433   0.372   0.107  0.00  0.00    +0.069 C 
ENDBRANCH   9  10
ENDBRANCH   1   9
TORSDOF 4
