REMARK  Name = 44288441
REMARK  5 active torsions:
REMARK  status: ('A' for Active; 'I' for Inactive)
REMARK    1  A    between atoms: C_1  and  N_2
REMARK    2  A    between atoms: C_1  and  P_6
REMARK    3  A    between atoms: C_1  and  C_11
REMARK    4  A    between atoms: P_6  and  O_9
REMARK    5  A    between atoms: C_11  and  C_12
REMARK                            x       y       z     vdW  Elec       q    Type
REMARK                         _______ _______ _______ _____ _____    ______ ____
ROOT
ATOM      1  C   UNL     1       0.249  -0.516  -0.135  0.00  0.00    +0.044 C 
ENDROOT
BRANCH   1   2
ATOM      2  N   UNL     1       0.140  -1.752   0.701  0.00  0.00    +0.389 N 
ATOM      3  H   UNL     1       0.888  -2.398   0.451  0.00  0.00    -0.088 HD
ATOM      4  H   UNL     1      -0.763  -2.196   0.534  0.00  0.00    -0.088 HD
ATOM      5  H   UNL     1       0.219  -1.503   1.687  0.00  0.00    -0.088 HD
ENDBRANCH   1   2
BRANCH   1   6
ATOM      6  P   UNL     1       1.890   0.351  -0.070  0.00  0.00    +0.347 P 
ATOM      7  O   UNL     1       2.092   0.846   1.344  0.00  0.00    -0.142 OA
ATOM      8  O   UNL     1       1.968   1.274  -1.264  0.00  0.00    -0.258 OA
BRANCH   6   9
ATOM      9  O   UNL     1       2.850  -0.944  -0.326  0.00  0.00    -0.323 OA
ATOM     10  H   UNL     1       3.778  -0.664  -0.324  0.00  0.00    +0.220 HD
ENDBRANCH   6   9
ENDBRANCH   1   6
BRANCH   1  11
ATOM     11  C   UNL     1      -0.884   0.452   0.249  0.00  0.00    -0.010 C 
BRANCH  11  12
ATOM     12  C   UNL     1      -2.321  -0.098   0.162  0.00  0.00    -0.001 C 
ATOM     13  C   UNL     1      -2.618  -0.535  -1.276  0.00  0.00    -0.000 C 
ATOM     14  C   UNL     1      -3.365   0.922   0.616  0.00  0.00    -0.000 C 
ENDBRANCH  11  12
ENDBRANCH   1  11
TORSDOF 5
