REMARK  Name = 5287571
REMARK  5 active torsions:
REMARK  status: ('A' for Active; 'I' for Inactive)
REMARK    1  A    between atoms: N_1  and  C_16
REMARK    2  A    between atoms: C_16  and  C_17
REMARK    3  A    between atoms: C_17  and  O_19
REMARK    4  A    between atoms: O_19  and  C_20
REMARK    5  A    between atoms: C_20  and  P_21
REMARK                            x       y       z     vdW  Elec       q    Type
REMARK                         _______ _______ _______ _____ _____    ______ ____
ROOT
ATOM      1  N   UNL     1       0.840  -1.749  -0.242  0.00  0.00    -0.258 N 
ATOM      2  N   UNL     1       2.557  -1.596   1.173  0.00  0.00    -0.240 NA
ATOM      3  N   UNL     1       0.900   0.477  -1.213  0.00  0.00    -0.311 NA
ATOM      4  N   UNL     1       2.710   1.810  -0.262  0.00  0.00    -0.312 NA
ATOM      5  N   UNL     1       1.281   2.680  -1.901  0.00  0.00    -0.283 N 
ATOM      6  C   UNL     1       1.341  -0.487  -0.390  0.00  0.00    +0.220 C 
ATOM      7  C   UNL     1       2.404  -0.412   0.495  0.00  0.00    +0.167 C 
ATOM      8  C   UNL     1       1.603  -2.376   0.708  0.00  0.00    +0.222 C 
ATOM      9  C   UNL     1       3.100   0.792   0.542  0.00  0.00    +0.212 C 
ATOM     10  C   UNL     1       1.650   1.592  -1.078  0.00  0.00    +0.199 C 
ATOM     11  H   UNL     1       0.519   2.594  -2.519  0.00  0.00    +0.156 HD
ATOM     12  H   UNL     1       1.785   3.525  -1.856  0.00  0.00    +0.156 HD
ATOM     13  N   UNL     1       4.193   0.956   1.411  0.00  0.00    -0.331 N 
ATOM     14  H   UNL     1       4.678   1.813   1.435  0.00  0.00    +0.145 HD
ATOM     15  H   UNL     1       4.474   0.215   1.994  0.00  0.00    +0.145 HD
ENDROOT
BRANCH   1  16
ATOM     16  C   UNL     1      -0.281  -2.322  -0.946  0.00  0.00    +0.124 C 
BRANCH  16  17
ATOM     17  C   UNL     1      -1.613  -2.091  -0.225  0.00  0.00    +0.136 C 
ATOM     18  C   UNL     1      -2.763  -2.723  -0.996  0.00  0.00    +0.034 C 
BRANCH  17  19
ATOM     19  O   UNL     1      -1.879  -0.694  -0.133  0.00  0.00    -0.343 OA
BRANCH  19  20
ATOM     20  C   UNL     1      -3.100  -0.449   0.545  0.00  0.00    +0.262 C 
BRANCH  20  21
ATOM     21  P   UNL     1      -3.218   1.400   0.617  0.00  0.00    +0.425 P 
ATOM     22  O   UNL     1      -4.525   1.609   1.372  0.00  0.00    -0.136 OA
ATOM     23  O   UNL     1      -3.244   1.794  -0.855  0.00  0.00    -0.251 OA
ATOM     24  O   UNL     1      -1.956   1.788   1.379  0.00  0.00    -0.136 OA
ENDBRANCH  20  21
ENDBRANCH  19  20
ENDBRANCH  17  19
ENDBRANCH  16  17
ENDBRANCH   1  16
TORSDOF 5
