REMARK  Name = 12219
REMARK  1 active torsions:
REMARK  status: ('A' for Active; 'I' for Inactive)
REMARK    1  A    between atoms: N_1  and  C_5
REMARK                            x       y       z     vdW  Elec       q    Type
REMARK                         _______ _______ _______ _____ _____    ______ ____
ROOT
ATOM      1  N   UNL     1      -0.544  -0.495   0.003  0.00  0.00    +0.382 N 
ATOM      2  C   UNL     1      -1.857   0.136  -0.003  0.00  0.00    -0.106 C 
ATOM      3  H   UNL     1      -0.456  -1.074   0.837  0.00  0.00    -0.085 HD
ATOM      4  H   UNL     1      -0.453  -1.065  -0.838  0.00  0.00    -0.085 HD
ENDROOT
BRANCH   1   5
ATOM      5  C   UNL     1       0.514   0.506   0.003  0.00  0.00    -0.082 C 
ATOM      6  C   UNL     1       1.887  -0.147  -0.003  0.00  0.00    -0.026 C 
ENDBRANCH   1   5
TORSDOF 1
