REMARK  Name = 2144
REMARK  12 active torsions:
REMARK  status: ('A' for Active; 'I' for Inactive)
REMARK    1  A    between atoms: N_2  and  C_17
REMARK    2  A    between atoms: C_3  and  C_5
REMARK    3  A    between atoms: C_6  and  S_11
REMARK    4  A    between atoms: S_11  and  N_14
REMARK    5  A    between atoms: C_17  and  C_18
REMARK    6  A    between atoms: C_18  and  O_19
REMARK    7  A    between atoms: O_19  and  C_20
REMARK    8  A    between atoms: C_20  and  C_21
REMARK    9  A    between atoms: C_21  and  O_22
REMARK   10  A    between atoms: O_22  and  C_23
REMARK   11  A    between atoms: C_23  and  C_24
REMARK   12  A    between atoms: C_24  and  N_25
REMARK                            x       y       z     vdW  Elec       q    Type
REMARK                         _______ _______ _______ _____ _____    ______ ____
ROOT
ATOM      1  O   UNL     1       1.351  -1.224  -1.745  0.00  0.00    -0.270 OA
ATOM      2  N   UNL     1       1.147  -2.653   0.070  0.00  0.00    -0.298 N 
ATOM      3  C   UNL     1       0.674  -1.662  -0.798  0.00  0.00    +0.246 C 
ATOM      4  H   UNL     1       0.558  -2.954   0.799  0.00  0.00    +0.150 HD
ENDROOT
BRANCH   3   5
ATOM      5  C   UNL     1      -0.655  -1.134  -0.534  0.00  0.00    +0.053 C 
ATOM      6  C   UNL     1      -3.204  -0.120  -0.026  0.00  0.00    +0.122 C 
ATOM      7  C   UNL     1      -0.983   0.162  -0.932  0.00  0.00    +0.006 C 
ATOM      8  C   UNL     1      -1.603  -1.923   0.118  0.00  0.00    +0.006 C 
ATOM      9  C   UNL     1      -2.257   0.669  -0.678  0.00  0.00    +0.020 C 
ATOM     10  C   UNL     1      -2.877  -1.417   0.372  0.00  0.00    +0.020 C 
BRANCH   6  11
ATOM     11  S   UNL     1      -4.799   0.514   0.293  0.00  0.00    +0.057 S 
ATOM     12  O   UNL     1      -5.075   1.570  -0.671  0.00  0.00    -0.153 OA
ATOM     13  O   UNL     1      -5.724  -0.604   0.426  0.00  0.00    -0.153 OA
BRANCH  11  14
ATOM     14  N   UNL     1      -4.567   1.219   1.832  0.00  0.00    -0.203 NA
ATOM     15  H   UNL     1      -5.441   1.638   2.149  0.00  0.00    +0.144 HD
ATOM     16  H   UNL     1      -3.847   1.939   1.771  0.00  0.00    +0.144 HD
ENDBRANCH  11  14
ENDBRANCH   6  11
ENDBRANCH   3   5
BRANCH   2  17
ATOM     17  C   UNL     1       2.454  -3.259  -0.047  0.00  0.00    +0.122 C 
BRANCH  17  18
ATOM     18  C   UNL     1       3.481  -2.481   0.761  0.00  0.00    +0.163 C 
BRANCH  18  19
ATOM     19  O   UNL     1       3.548  -1.154   0.256  0.00  0.00    -0.349 OA
BRANCH  19  20
ATOM     20  C   UNL     1       4.494  -0.372   0.972  0.00  0.00    +0.174 C 
BRANCH  20  21
ATOM     21  C   UNL     1       4.538   1.021   0.373  0.00  0.00    +0.174 C 
BRANCH  21  22
ATOM     22  O   UNL     1       3.243   1.603   0.455  0.00  0.00    -0.353 OA
BRANCH  22  23
ATOM     23  C   UNL     1       3.230   2.922  -0.073  0.00  0.00    +0.119 C 
BRANCH  23  24
ATOM     24  C   UNL     1       1.821   3.481   0.046  0.00  0.00    -0.054 C 
BRANCH  24  25
ATOM     25  N   UNL     1       1.764   4.842  -0.469  0.00  0.00    +0.382 N 
ATOM     26  H   UNL     1       0.812   5.199  -0.380  0.00  0.00    -0.089 HD
ATOM     27  H   UNL     1       2.039   4.846  -1.451  0.00  0.00    -0.089 HD
ATOM     28  H   UNL     1       2.400   5.434   0.065  0.00  0.00    -0.089 HD
ENDBRANCH  24  25
ENDBRANCH  23  24
ENDBRANCH  22  23
ENDBRANCH  21  22
ENDBRANCH  20  21
ENDBRANCH  19  20
ENDBRANCH  18  19
ENDBRANCH  17  18
ENDBRANCH   2  17
TORSDOF 12
