REMARK  Name = 192579
REMARK  9 active torsions:
REMARK  status: ('A' for Active; 'I' for Inactive)
REMARK    1  A    between atoms: C_1  and  N_2
REMARK    2  A    between atoms: C_1  and  C_7
REMARK    3  A    between atoms: C_1  and  C_10
REMARK    4  A    between atoms: C_7  and  O_8
REMARK    5  A    between atoms: C_10  and  S_11
REMARK    6  A    between atoms: S_11  and  C_12
REMARK    7  A    between atoms: C_12  and  P_13
REMARK    8  A    between atoms: P_13  and  O_15
REMARK    9  A    between atoms: P_13  and  O_17
REMARK                            x       y       z     vdW  Elec       q    Type
REMARK                         _______ _______ _______ _____ _____    ______ ____
ROOT
ATOM      1  C   UNK     1      -2.437  -0.693   0.416  0.00  0.00    +0.047 C 
ENDROOT
BRANCH   1   2
ATOM      2  N   UNK     1      -3.474  -1.611  -0.060  0.00  0.00    +0.389 N 
ATOM      3  H   UNK     1      -3.271  -2.554   0.271  0.00  0.00    -0.088 HD
ATOM      4  H   UNK     1      -3.491  -1.605  -1.080  0.00  0.00    -0.088 HD
ATOM      5  H   UNK     1      -4.381  -1.313   0.297  0.00  0.00    -0.088 HD
ENDBRANCH   1   2
BRANCH   1   7
ATOM      6  O   UNK     1      -2.810   0.980  -1.291  0.00  0.00    -0.253 OA
ATOM      7  C   UNK     1      -2.781   0.692  -0.100  0.00  0.00    +0.294 C 
BRANCH   7   8
ATOM      8  O   UNK     1      -3.021   1.598   0.881  0.00  0.00    -0.482 OA
ATOM      9  H   UNK     1      -2.988   1.335   1.780  0.00  0.00    +0.295 HD
ENDBRANCH   7   8
ENDBRANCH   1   7
BRANCH   1  10
ATOM     10  C   UNK     1      -1.061  -1.163  -0.061  0.00  0.00    +0.047 C 
BRANCH  10  11
ATOM     11  S   UNK     1       0.267  -0.040   0.477  0.00  0.00    -0.129 S 
BRANCH  11  12
ATOM     12  C   UNK     1       1.649  -0.870  -0.334  0.00  0.00    +0.173 C 
BRANCH  12  13
ATOM     13  P   UNK     1       3.104   0.077   0.065  0.00  0.00    +0.348 P 
ATOM     14  O   UNK     1       3.419   0.191   1.528  0.00  0.00    -0.257 OA
BRANCH  13  15
ATOM     15  O   UNK     1       2.890   1.482  -0.706  0.00  0.00    -0.323 OA
ATOM     16  H   UNK     1       3.648   2.063  -0.538  0.00  0.00    +0.220 HD
ENDBRANCH  13  15
BRANCH  13  17
ATOM     17  O   UNK     1       4.253  -0.645  -0.815  0.00  0.00    -0.323 OA
ATOM     18  H   UNK     1       5.102  -0.198  -0.668  0.00  0.00    +0.220 HD
ENDBRANCH  13  17
ENDBRANCH  12  13
ENDBRANCH  11  12
ENDBRANCH  10  11
ENDBRANCH   1  10
TORSDOF 9
