REMARK  Name = 5287843
REMARK  8 active torsions:
REMARK  status: ('A' for Active; 'I' for Inactive)
REMARK    1  A    between atoms: C_1  and  C_3
REMARK    2  A    between atoms: C_1  and  C_6
REMARK    3  A    between atoms: C_1  and  C_10
REMARK    4  A    between atoms: C_3  and  O_4
REMARK    5  A    between atoms: C_6  and  C_7
REMARK    6  A    between atoms: C_7  and  C_8
REMARK    7  A    between atoms: C_10  and  N_12
REMARK    8  A    between atoms: N_12  and  O_14
REMARK                            x       y       z     vdW  Elec       q    Type
REMARK                         _______ _______ _______ _____ _____    ______ ____
ROOT
ATOM      1  C   UNL     1       0.194  -0.292  -0.277  0.00  0.00    +0.121 C 
ENDROOT
BRANCH   1   3
ATOM      2  O   UNL     1      -0.256   2.084  -0.007  0.00  0.00    -0.250 OA
ATOM      3  C   UNL     1       0.050   1.010   0.497  0.00  0.00    +0.315 C 
BRANCH   3   4
ATOM      4  O   UNL     1       0.314   0.868   1.821  0.00  0.00    -0.480 OA
ATOM      5  H   UNL     1       0.545   0.028   2.165  0.00  0.00    +0.295 HD
ENDBRANCH   3   4
ENDBRANCH   1   3
BRANCH   1   6
ATOM      6  C   UNL     1       1.268  -0.132  -1.367  0.00  0.00    +0.013 C 
BRANCH   6   7
ATOM      7  C   UNL     1       2.654   0.281  -0.856  0.00  0.00    +0.001 C 
BRANCH   7   8
ATOM      8  C   UNL     1       3.292  -0.750   0.076  0.00  0.00    +0.000 C 
ATOM      9  C   UNL     1       4.700  -0.338   0.477  0.00  0.00    +0.000 C 
ENDBRANCH   7   8
ENDBRANCH   6   7
ENDBRANCH   1   6
BRANCH   1  10
ATOM     10  C   UNL     1      -1.155  -0.666  -0.908  0.00  0.00    +0.135 C 
BRANCH  10  12
ATOM     11  O   UNL     1      -3.643   0.785  -0.654  0.00  0.00    -0.263 OA
ATOM     12  N   UNL     1      -2.184  -0.858   0.080  0.00  0.00    -0.164 N 
ATOM     13  C   UNL     1      -3.329  -0.117   0.114  0.00  0.00    +0.327 C 
BRANCH  12  14
ATOM     14  O   UNL     1      -1.906  -1.876   1.003  0.00  0.00    -0.291 OA
ATOM     15  H   UNL     1      -1.045  -2.273   0.797  0.00  0.00    +0.242 HD
ENDBRANCH  12  14
ENDBRANCH  10  12
ENDBRANCH   1  10
TORSDOF 8
