REMARK  Name = 53359
REMARK  7 active torsions:
REMARK  status: ('A' for Active; 'I' for Inactive)
REMARK    1  A    between atoms: C_3  and  C_16
REMARK    2  A    between atoms: C_4  and  C_14
REMARK    3  A    between atoms: C_6  and  O_24
REMARK    4  A    between atoms: C_16  and  N_17
REMARK    5  A    between atoms: N_17  and  C_19
REMARK    6  A    between atoms: C_19  and  C_21
REMARK    7  A    between atoms: C_21  and  O_22
REMARK                            x       y       z     vdW  Elec       q    Type
REMARK                         _______ _______ _______ _____ _____    ______ ____
ROOT
ATOM      1  C   UNL     1      -0.024  -0.376  -0.323  0.00  0.00    +0.002 C 
ATOM      2  C   UNL     1      -1.351  -0.798  -0.071  0.00  0.00    +0.007 C 
ATOM      3  C   UNL     1       1.017  -1.318  -0.280  0.00  0.00    +0.020 C 
ATOM      4  C   UNL     1      -2.391   0.144  -0.115  0.00  0.00    +0.105 C 
ATOM      5  C   UNL     1       0.224   0.977  -0.612  0.00  0.00    +0.003 C 
ATOM      6  C   UNL     1      -2.127   1.484  -0.403  0.00  0.00    +0.143 C 
ATOM      7  C   UNL     1      -1.598  -2.150   0.217  0.00  0.00    +0.000 C 
ATOM      8  C   UNL     1       0.753  -2.657   0.008  0.00  0.00    +0.002 C 
ATOM      9  C   UNL     1      -0.822   1.899  -0.651  0.00  0.00    +0.037 C 
ATOM     10  C   UNL     1      -0.552  -3.072   0.256  0.00  0.00    +0.000 C 
ENDROOT
BRANCH   4  14
ATOM     11  F   UNL     1      -3.961  -1.581   0.417  0.00  0.00    -0.166 F 
ATOM     12  F   UNL     1      -4.369   0.398   1.206  0.00  0.00    -0.166 F 
ATOM     13  F   UNL     1      -4.625   0.003  -0.917  0.00  0.00    -0.166 F 
ATOM     14  C   UNL     1      -3.813  -0.254   0.146  0.00  0.00    +0.421 C 
ENDBRANCH   4  14
BRANCH   3  16
ATOM     15  S   UNL     1       2.995  -1.059  -2.127  0.00  0.00    -0.035 S 
ATOM     16  C   UNL     1       2.410  -0.959  -0.529  0.00  0.00    +0.085 C 
BRANCH  16  17
ATOM     17  N   UNL     1       3.196  -0.564   0.587  0.00  0.00    -0.291 N 
ATOM     18  C   UNL     1       2.691  -0.499   1.960  0.00  0.00    +0.113 C 
BRANCH  17  19
ATOM     19  C   UNL     1       4.606  -0.183   0.458  0.00  0.00    +0.202 C 
BRANCH  19  21
ATOM     20  O   UNL     1       5.894   1.811   0.067  0.00  0.00    -0.248 OA
ATOM     21  C   UNL     1       4.795   1.291   0.212  0.00  0.00    +0.334 C 
BRANCH  21  22
ATOM     22  O   UNL     1       3.635   1.986   0.168  0.00  0.00    -0.479 OA
ATOM     23  H   UNL     1       2.818   1.542   0.285  0.00  0.00    +0.295 HD
ENDBRANCH  21  22
ENDBRANCH  19  21
ENDBRANCH  17  19
ENDBRANCH  16  17
ENDBRANCH   3  16
BRANCH   6  24
ATOM     24  O   UNL     1      -3.133   2.403  -0.446  0.00  0.00    -0.471 OA
ATOM     25  C   UNL     1      -3.449   3.074   0.772  0.00  0.00    +0.252 C 
ENDBRANCH   6  24
TORSDOF 7
