REMARK  Name = 15689
REMARK  0 active torsions:
REMARK  status: ('A' for Active; 'I' for Inactive)
REMARK                            x       y       z     vdW  Elec       q    Type
REMARK                         _______ _______ _______ _____ _____    ______ ____
ROOT
ATOM      1  S   UNL     1      -0.108  -1.435   0.189  0.00  0.00    -0.079 S 
ATOM      2  N   UNL     1       0.104   1.153  -0.028  0.00  0.00    -0.250 NA
ATOM      3  N   UNL     1       2.153  -0.057  -0.085  0.00  0.00    -0.338 N 
ATOM      4  C   UNL     1      -1.621  -0.572  -0.263  0.00  0.00    +0.091 C 
ATOM      5  C   UNL     1      -1.326   0.851   0.174  0.00  0.00    +0.139 C 
ATOM      6  C   UNL     1       0.799   0.060   0.013  0.00  0.00    +0.148 C 
ATOM      7  H   UNL     1       2.575  -0.945  -0.040  0.00  0.00    +0.144 HD
ATOM      8  H   UNL     1       2.710   0.747  -0.201  0.00  0.00    +0.144 HD
ENDROOT
TORSDOF 0
