REMARK  Name = 446871
REMARK  8 active torsions:
REMARK  status: ('A' for Active; 'I' for Inactive)
REMARK    1  A    between atoms: C_3  and  C_22
REMARK    2  A    between atoms: C_8  and  C_19
REMARK    3  A    between atoms: C_9  and  N_11
REMARK    4  A    between atoms: C_12  and  C_15
REMARK    5  A    between atoms: C_15  and  O_16
REMARK    6  A    between atoms: C_19  and  O_20
REMARK    7  A    between atoms: C_22  and  O_23
REMARK    8  A    between atoms: O_23  and  C_28
REMARK                            x       y       z     vdW  Elec       q    Type
REMARK                         _______ _______ _______ _____ _____    ______ ____
ROOT
ATOM      1  S   UNL     1       1.695   0.182  -1.341  0.00  0.00    -0.074 S 
ATOM      2  O   UNL     1      -0.453  -3.224  -1.278  0.00  0.00    -0.347 OA
ATOM      3  C   UNL     1      -0.038  -1.987  -1.905  0.00  0.00    +0.187 C 
ATOM      4  C   UNL     1       1.810  -2.088  -0.150  0.00  0.00    -0.007 A 
ATOM      5  C   UNL     1       1.090  -1.393  -1.104  0.00  0.00    +0.035 A 
ATOM      6  C   UNL     1       1.467  -3.503   0.175  0.00  0.00    +0.059 C 
ATOM      7  C   UNL     1       0.638  -4.102  -0.965  0.00  0.00    +0.147 C 
ATOM      8  C   UNL     1       2.841  -1.291   0.426  0.00  0.00    +0.091 A 
ATOM      9  C   UNL     1       2.885  -0.030  -0.128  0.00  0.00    +0.087 A 
ENDROOT
BRANCH   9  11
ATOM     10  O   UNL     1       2.913   2.688  -1.383  0.00  0.00    -0.263 OA
ATOM     11  N   UNL     1       3.704   1.038   0.119  0.00  0.00    -0.270 N 
ATOM     12  C   UNL     1       3.661   2.285  -0.508  0.00  0.00    +0.326 C 
ATOM     13  H   UNL     1       4.395   0.914   0.810  0.00  0.00    +0.156 HD
BRANCH  12  15
ATOM     14  O   UNL     1       5.515   2.932   0.886  0.00  0.00    -0.240 OA
ATOM     15  C   UNL     1       4.722   3.235   0.016  0.00  0.00    +0.393 C 
BRANCH  15  16
ATOM     16  O   UNL     1       4.640   4.416  -0.615  0.00  0.00    -0.474 OA
ATOM     17  H   UNL     1       3.989   4.550  -1.276  0.00  0.00    +0.296 HD
ENDBRANCH  15  16
ENDBRANCH  12  15
ENDBRANCH   9  11
BRANCH   8  19
ATOM     18  O   UNL     1       3.752  -2.837   1.983  0.00  0.00    -0.245 OA
ATOM     19  C   UNL     1       3.750  -1.716   1.460  0.00  0.00    +0.339 C 
BRANCH  19  20
ATOM     20  O   UNL     1       4.657  -0.768   1.852  0.00  0.00    -0.477 OA
ATOM     21  H   UNL     1       4.652   0.079   1.452  0.00  0.00    +0.295 HD
ENDBRANCH  19  20
ENDBRANCH   8  19
BRANCH   3  22
ATOM     22  C   UNL     1      -1.274  -1.100  -1.969  0.00  0.00    +0.241 C 
BRANCH  22  23
ATOM     23  O   UNL     1      -1.753  -0.894  -0.651  0.00  0.00    -0.456 OA
BRANCH  23  28
ATOM     24  S   UNL     1      -4.731   1.280  -1.090  0.00  0.00    +0.103 S 
ATOM     25  O   UNL     1      -4.492   2.695  -1.284  0.00  0.00    -0.146 OA
ATOM     26  O   UNL     1      -5.964   0.636  -1.494  0.00  0.00    -0.146 OA
ATOM     27  N   UNL     1      -3.421   0.395  -1.589  0.00  0.00    -0.090 NA
ATOM     28  C   UNL     1      -2.836  -0.130  -0.555  0.00  0.00    +0.245 C 
ATOM     29  C   UNL     1      -3.393   0.132   0.764  0.00  0.00    +0.074 C 
ATOM     30  C   UNL     1      -4.506   0.944   0.608  0.00  0.00    +0.134 C 
ATOM     31  C   UNL     1      -2.988  -0.287   2.014  0.00  0.00    +0.006 C 
ATOM     32  C   UNL     1      -5.272   1.383   1.662  0.00  0.00    +0.021 C 
ATOM     33  C   UNL     1      -3.746   0.142   3.110  0.00  0.00    +0.000 C 
ATOM     34  C   UNL     1      -4.876   0.968   2.935  0.00  0.00    +0.001 C 
ENDBRANCH  23  28
ENDBRANCH  22  23
ENDBRANCH   3  22
TORSDOF 8
