REMARK  Name = 6994741
REMARK  6 active torsions:
REMARK  status: ('A' for Active; 'I' for Inactive)
REMARK    1  A    between atoms: CA_1  and  N_2
REMARK    2  A    between atoms: CA_1  and  C_7
REMARK    3  A    between atoms: CA_1  and  C_10
REMARK    4  A    between atoms: C_7  and  O_8
REMARK    5  A    between atoms: C_10  and  C_11
REMARK    6  A    between atoms: C_10  and  O_14
REMARK                            x       y       z     vdW  Elec       q    Type
REMARK                         _______ _______ _______ _____ _____    ______ ____
ROOT
ATOM      1  CA  UNL     1       0.788  -0.223  -0.779  0.00  0.00    +0.063 C 
ENDROOT
BRANCH   1   2
ATOM      2  N   UNL     1       1.657  -1.316  -1.219  0.00  0.00    +0.390 N 
ATOM      3  H1  UNL     1       1.178  -1.864  -1.933  0.00  0.00    -0.088 HD
ATOM      4  H2  UNL     1       1.879  -1.914  -0.423  0.00  0.00    -0.088 HD
ATOM      5  H3  UNL     1       2.518  -0.930  -1.606  0.00  0.00    -0.088 HD
ENDBRANCH   1   2
BRANCH   1   7
ATOM      6  OXT UNL     1       2.278   0.113   1.129  0.00  0.00    -0.253 OA
ATOM      7  C   UNL     1       1.523   0.576   0.283  0.00  0.00    +0.295 C 
BRANCH   7   8
ATOM      8  O   UNL     1       1.272   1.909   0.182  0.00  0.00    -0.482 OA
ATOM      9  H   UNL     1       0.688   2.227  -0.478  0.00  0.00    +0.295 HD
ENDBRANCH   7   8
ENDBRANCH   1   7
BRANCH   1  10
ATOM     10  C   UNL     1      -0.600  -0.718  -0.315  0.00  0.00    +0.101 C 
BRANCH  10  11
ATOM     11  C   UNL     1      -1.621   0.343   0.171  0.00  0.00    +0.025 C 
ATOM     12  C   UNL     1      -2.038   1.325  -0.924  0.00  0.00    +0.002 C 
ATOM     13  C   UNL     1      -2.876  -0.340   0.736  0.00  0.00    +0.002 C 
ENDBRANCH  10  11
BRANCH  10  14
ATOM     14  O   UNL     1      -0.383  -1.670   0.736  0.00  0.00    -0.386 OA
ATOM     15  H   UNL     1      -1.237  -2.002   1.052  0.00  0.00    +0.210 HD
ENDBRANCH  10  14
ENDBRANCH   1  10
TORSDOF 6
