REMARK  Name = 87087973
REMARK  6 active torsions:
REMARK  status: ('A' for Active; 'I' for Inactive)
REMARK    1  A    between atoms: C_1  and  N_2
REMARK    2  A    between atoms: C_1  and  C_6
REMARK    3  A    between atoms: C_1  and  C_11
REMARK    4  A    between atoms: C_6  and  C_8
REMARK    5  A    between atoms: C_8  and  O_9
REMARK    6  A    between atoms: C_11  and  S_12
REMARK                            x       y       z     vdW  Elec       q    Type
REMARK                         _______ _______ _______ _____ _____    ______ ____
ROOT
ATOM      1  C   UNL     1      -0.769  -0.527  -0.271  0.00  0.00    -0.044 C 
ENDROOT
BRANCH   1   2
ATOM      2  N   UNL     1      -1.726  -1.601   0.015  0.00  0.00    +0.383 N 
ATOM      3  H   UNL     1      -1.422  -2.459  -0.445  0.00  0.00    -0.089 HD
ATOM      4  H   UNL     1      -2.648  -1.337  -0.333  0.00  0.00    -0.089 HD
ATOM      5  H   UNL     1      -1.774  -1.754   1.022  0.00  0.00    -0.089 HD
ENDBRANCH   1   2
BRANCH   1   6
ATOM      6  C   UNL     1       0.621  -0.966   0.212  0.00  0.00    +0.088 C 
BRANCH   6   8
ATOM      7  O   UNL     1       1.933   0.483  -1.211  0.00  0.00    -0.250 OA
ATOM      8  C   UNL     1       1.687   0.060  -0.089  0.00  0.00    +0.312 C 
BRANCH   8   9
ATOM      9  O   UNL     1       2.347   0.468   1.024  0.00  0.00    -0.480 OA
ATOM     10  H   UNL     1       2.120   0.113   1.860  0.00  0.00    +0.295 HD
ENDBRANCH   8   9
ENDBRANCH   6   8
ENDBRANCH   1   6
BRANCH   1  11
ATOM     11  C   UNL     1      -1.214   0.775   0.416  0.00  0.00    +0.032 C 
BRANCH  11  12
ATOM     12  S   UNL     1      -2.880   1.306  -0.097  0.00  0.00    -0.170 S 
ATOM     13  H   UNL     1      -3.207   2.459   0.548  0.00  0.00    +0.102 HD
ENDBRANCH  11  12
ENDBRANCH   1  11
TORSDOF 6
