REMARK  Name = 446958
REMARK  9 active torsions:
REMARK  status: ('A' for Active; 'I' for Inactive)
REMARK    1  A    between atoms: O_1  and  C_7
REMARK    2  A    between atoms: O_1  and  C_17
REMARK    3  A    between atoms: C_3  and  O_8
REMARK    4  A    between atoms: C_4  and  O_10
REMARK    5  A    between atoms: C_5  and  O_12
REMARK    6  A    between atoms: C_6  and  C_14
REMARK    7  A    between atoms: C_14  and  O_15
REMARK    8  A    between atoms: C_20  and  C_25
REMARK    9  A    between atoms: C_21  and  N_30
REMARK                            x       y       z     vdW  Elec       q    Type
REMARK                         _______ _______ _______ _____ _____    ______ ____
ROOT
ATOM      1  O   UNL     1      -0.581  -0.885  -0.118  0.00  0.00    -0.451 OA
ENDROOT
BRANCH   1   7
ATOM      2  O   UNL     1      -2.019   0.964   0.220  0.00  0.00    -0.316 OA
ATOM      3  C   UNL     1      -3.519  -1.480  -0.029  0.00  0.00    +0.173 C 
ATOM      4  C   UNL     1      -4.006  -0.166  -0.647  0.00  0.00    +0.169 C 
ATOM      5  C   UNL     1      -2.613  -1.196   1.170  0.00  0.00    +0.210 C 
ATOM      6  C   UNL     1      -2.814   0.749  -0.957  0.00  0.00    +0.177 C 
ATOM      7  C   UNL     1      -1.484  -0.240   0.778  0.00  0.00    +0.318 C 
BRANCH   3   8
ATOM      8  O   UNL     1      -4.632  -2.260   0.398  0.00  0.00    -0.379 OA
ATOM      9  H   UNL     1      -5.209  -2.442  -0.360  0.00  0.00    +0.211 HD
ENDBRANCH   3   8
BRANCH   4  10
ATOM     10  O   UNL     1      -4.874   0.501   0.272  0.00  0.00    -0.379 OA
ATOM     11  H   UNL     1      -5.632  -0.071   0.474  0.00  0.00    +0.211 HD
ENDBRANCH   4  10
BRANCH   5  12
ATOM     12  O   UNL     1      -2.053  -2.408   1.664  0.00  0.00    -0.377 OA
ATOM     13  H   UNL     1      -2.767  -3.016   1.913  0.00  0.00    +0.211 HD
ENDBRANCH   5  12
BRANCH   6  14
ATOM     14  C   UNL     1      -3.250   2.119  -1.463  0.00  0.00    +0.169 C 
BRANCH  14  15
ATOM     15  O   UNL     1      -2.094   2.898  -1.712  0.00  0.00    -0.379 OA
ATOM     16  H   UNL     1      -2.357   3.774  -2.036  0.00  0.00    +0.211 HD
ENDBRANCH  14  15
ENDBRANCH   6  14
ENDBRANCH   1   7
BRANCH   1  17
ATOM     17  C   UNL     1       0.728  -0.493  -0.057  0.00  0.00    +0.143 C 
ATOM     18  C   UNL     1       1.736  -1.399  -0.368  0.00  0.00    +0.042 C 
ATOM     19  C   UNL     1       1.041   0.811   0.317  0.00  0.00    +0.061 C 
ATOM     20  C   UNL     1       3.071  -0.999  -0.307  0.00  0.00    +0.058 C 
ATOM     21  C   UNL     1       2.376   1.211   0.378  0.00  0.00    +0.146 C 
ATOM     22  C   UNL     1       3.391   0.307   0.066  0.00  0.00    +0.029 C 
BRANCH  20  25
ATOM     23  O   UNL     1       5.328  -1.618  -0.572  0.00  0.00    -0.270 OA
ATOM     24  N   UNL     1       3.756  -3.232  -0.999  0.00  0.00    -0.325 N 
ATOM     25  C   UNL     1       4.129  -1.942  -0.633  0.00  0.00    +0.243 C 
ATOM     26  H   UNL     1       4.445  -3.898  -1.226  0.00  0.00    +0.145 HD
ATOM     27  H   UNL     1       2.804  -3.479  -1.031  0.00  0.00    +0.145 HD
ENDBRANCH  20  25
BRANCH  21  30
ATOM     28  O   UNL     1       3.908   2.881   0.806  0.00  0.00    -0.126 OA
ATOM     29  O   UNL     1       1.773   3.338   1.034  0.00  0.00    -0.126 OA
ATOM     30  N   UNL     1       2.701   2.541   0.758  0.00  0.00    +0.058 N 
ENDBRANCH  21  30
ENDBRANCH   1  17
TORSDOF 9
