REMARK  Name = 61207
REMARK  2 active torsions:
REMARK  status: ('A' for Active; 'I' for Inactive)
REMARK    1  A    between atoms: C_1  and  O_5
REMARK    2  A    between atoms: O_5  and  C_7
REMARK                            x       y       z     vdW  Elec       q    Type
REMARK                         _______ _______ _______ _____ _____    ______ ____
ROOT
ATOM      1  C   UNL     1      -0.704  -0.040   0.000  0.00  0.00    +0.137 C 
ATOM      2  C   UNL     1      -0.481  -0.883   1.255  0.00  0.00    +0.044 C 
ATOM      3  C   UNL     1      -2.102   0.575   0.008  0.00  0.00    +0.044 C 
ATOM      4  C   UNL     1      -0.491  -0.875  -1.262  0.00  0.00    +0.044 C 
ENDROOT
BRANCH   1   5
ATOM      5  O   UNL     1       0.238   1.033   0.000  0.00  0.00    -0.448 OA
BRANCH   5   7
ATOM      6  O   UNL     1       1.996  -0.472   0.000  0.00  0.00    -0.238 OA
ATOM      7  C   UNL     1       1.545   0.662   0.000  0.00  0.00    +0.418 C 
ENDBRANCH   5   7
ENDBRANCH   1   5
TORSDOF 2
