REMARK  Name = 10918
REMARK  6 active torsions:
REMARK  status: ('A' for Active; 'I' for Inactive)
REMARK    1  A    between atoms: C_1  and  O_2
REMARK    2  A    between atoms: C_1  and  C_4
REMARK    3  A    between atoms: C_1  and  C_9
REMARK    4  A    between atoms: C_4  and  N_5
REMARK    5  A    between atoms: C_9  and  C_11
REMARK    6  A    between atoms: C_11  and  O_12
REMARK                            x       y       z     vdW  Elec       q    Type
REMARK                         _______ _______ _______ _____ _____    ______ ____
ROOT
ATOM      1  C   UNL     1       0.223  -0.036   0.126  0.00  0.00    +0.102 C 
ENDROOT
BRANCH   1   2
ATOM      2  O   UNL     1       0.297   0.826  -1.011  0.00  0.00    -0.386 OA
ATOM      3  H   UNL     1      -0.495   1.386  -1.044  0.00  0.00    +0.210 HD
ENDBRANCH   1   2
BRANCH   1   4
ATOM      4  C   UNL     1      -1.017  -0.918   0.013  0.00  0.00    -0.043 C 
BRANCH   4   5
ATOM      5  N   UNL     1      -2.238  -0.074   0.062  0.00  0.00    +0.387 N 
ATOM      6  C   UNL     1      -2.232   0.958  -1.073  0.00  0.00    -0.096 C 
ATOM      7  C   UNL     1      -3.500  -0.935  -0.081  0.00  0.00    -0.096 C 
ATOM      8  C   UNL     1      -2.323   0.681   1.395  0.00  0.00    -0.096 C 
ENDBRANCH   4   5
ENDBRANCH   1   4
BRANCH   1   9
ATOM      9  C   UNL     1       1.487  -0.895   0.135  0.00  0.00    +0.136 C 
BRANCH   9  11
ATOM     10  O   UNL     1       2.777   1.078   0.671  0.00  0.00    -0.250 OA
ATOM     11  C   UNL     1       2.729  -0.038   0.170  0.00  0.00    +0.316 C 
BRANCH  11  12
ATOM     12  O   UNL     1       3.797  -0.645  -0.406  0.00  0.00    -0.480 OA
ATOM     13  H   UNL     1       3.706  -1.501  -0.775  0.00  0.00    +0.295 HD
ENDBRANCH  11  12
ENDBRANCH   9  11
ENDBRANCH   1   9
TORSDOF 6
