REMARK  Name = 158397
REMARK  5 active torsions:
REMARK  status: ('A' for Active; 'I' for Inactive)
REMARK    1  A    between atoms: C_1  and  C_5
REMARK    2  A    between atoms: C_1  and  CA_10
REMARK    3  A    between atoms: CA_10  and  N_11
REMARK    4  A    between atoms: CA_10  and  C_16
REMARK    5  A    between atoms: C_16  and  O_17
REMARK                            x       y       z     vdW  Elec       q    Type
REMARK                         _______ _______ _______ _____ _____    ______ ____
ROOT
ATOM      1  C   UNL     1      -0.460  -0.775  -0.943  0.00  0.00    +0.023 C 
ENDROOT
BRANCH   1   5
ATOM      2  O   UNL     1       2.518   1.204   0.206  0.00  0.00    -0.381 OA
ATOM      3  O   UNL     1       1.869  -2.212   0.263  0.00  0.00    -0.265 OA
ATOM      4  N   UNL     1       2.882  -0.125   0.508  0.00  0.00    -0.184 N 
ATOM      5  C   UNL     1       0.800  -0.194  -0.431  0.00  0.00    +0.067 A 
ATOM      6  C   UNL     1       1.255   1.058  -0.352  0.00  0.00    +0.151 A 
ATOM      7  C   UNL     1       1.886  -0.998   0.145  0.00  0.00    +0.284 A 
ATOM      8  C   UNL     1       0.588   2.315  -0.784  0.00  0.00    +0.075 C 
ATOM      9  H   UNL     1       3.735  -0.390   0.923  0.00  0.00    +0.211 HD
ENDBRANCH   1   5
BRANCH   1  10
ATOM     10  CA  UNL     1      -1.552  -0.878   0.139  0.00  0.00    +0.040 C 
BRANCH  10  11
ATOM     11  N   UNL     1      -2.582  -1.838  -0.254  0.00  0.00    +0.389 N 
ATOM     12  H1  UNL     1      -2.152  -2.747  -0.426  0.00  0.00    -0.088 HD
ATOM     13  H2  UNL     1      -3.043  -1.513  -1.104  0.00  0.00    -0.088 HD
ATOM     14  H3  UNL     1      -3.270  -1.923   0.494  0.00  0.00    -0.088 HD
ENDBRANCH  10  11
BRANCH  10  16
ATOM     15  OXT UNL     1      -3.264   0.822  -0.225  0.00  0.00    -0.253 OA
ATOM     16  C   UNL     1      -2.267   0.442   0.375  0.00  0.00    +0.293 C 
BRANCH  16  17
ATOM     17  O   UNL     1      -1.673   1.177   1.353  0.00  0.00    -0.482 OA
ATOM     18  H   UNL     1      -0.911   0.848   1.788  0.00  0.00    +0.295 HD
ENDBRANCH  16  17
ENDBRANCH  10  16
ENDBRANCH   1  10
TORSDOF 5
