REMARK  Name = 4635111
REMARK  2 active torsions:
REMARK  status: ('A' for Active; 'I' for Inactive)
REMARK    1  A    between atoms: N_3  and  C_6
REMARK    2  A    between atoms: C_4  and  C_13
REMARK                            x       y       z     vdW  Elec       q    Type
REMARK                         _______ _______ _______ _____ _____    ______ ____
ROOT
ATOM      1  N   UNL     1       0.162   0.978   0.001  0.00  0.00    -0.331 NA
ATOM      2  N   UNL     1      -0.156  -1.394   0.000  0.00  0.00    -0.180 NA
ATOM      3  C   UNL     1      -0.584  -0.086   0.001  0.00  0.00    +0.161 C 
ATOM      4  C   UNL     1       2.083  -0.478   0.000  0.00  0.00    +0.044 C 
ATOM      5  C   UNL     1       1.536   0.899   0.000  0.00  0.00    +0.205 C 
ATOM      6  C   UNL     1       1.120  -1.589   0.000  0.00  0.00    +0.110 C 
ATOM      7  C   UNL     1       3.388  -0.767  -0.001  0.00  0.00    +0.037 C 
ENDROOT
BRANCH   3  11
ATOM      8  F   UNL     1      -2.686  -1.130  -0.002  0.00  0.00    -0.157 F 
ATOM      9  F   UNL     1      -2.494   0.746   1.091  0.00  0.00    -0.157 F 
ATOM     10  F   UNL     1      -2.492   0.748  -1.090  0.00  0.00    -0.157 F 
ATOM     11  C   UNL     1      -2.079   0.072   0.000  0.00  0.00    +0.489 C 
ENDBRANCH   3  11
BRANCH   5  12
ATOM     12  N   UNL     1       2.202   2.003   0.000  0.00  0.00    -0.238 NA
ATOM     13  H   UNL     1       1.726   2.865   0.000  0.00  0.00    +0.173 HD
ENDBRANCH   5  12
TORSDOF 2
