REMARK  Name = 439176
REMARK  5 active torsions:
REMARK  status: ('A' for Active; 'I' for Inactive)
REMARK    1  A    between atoms: N_1  and  C_13
REMARK    2  A    between atoms: C_11  and  O_15
REMARK    3  A    between atoms: C_12  and  O_17
REMARK    4  A    between atoms: C_14  and  C_19
REMARK    5  A    between atoms: C_19  and  S_20
REMARK                            x       y       z     vdW  Elec       q    Type
REMARK                         _______ _______ _______ _____ _____    ______ ____
ROOT
ATOM      1  N   UNL     1      -0.424  -0.099  -0.161  0.00  0.00    -0.247 N 
ATOM      2  N   UNL     1      -1.560  -1.958   0.316  0.00  0.00    -0.242 NA
ATOM      3  N   UNL     1      -2.272   1.444  -0.488  0.00  0.00    -0.228 NA
ATOM      4  N   UNL     1      -4.422   0.335  -0.167  0.00  0.00    -0.229 NA
ATOM      5  C   UNL     1      -1.747   0.241  -0.210  0.00  0.00    +0.152 C 
ATOM      6  C   UNL     1      -0.364  -1.431   0.159  0.00  0.00    +0.223 C 
ATOM      7  C   UNL     1      -2.434  -0.925   0.089  0.00  0.00    +0.140 C 
ATOM      8  C   UNL     1      -3.823  -0.849   0.105  0.00  0.00    +0.143 C 
ATOM      9  C   UNL     1      -3.620   1.393  -0.442  0.00  0.00    +0.253 C 
ATOM     10  N   UNL     1      -4.600  -1.983   0.400  0.00  0.00    -0.342 N 
ATOM     11  H   UNL     1      -5.582  -1.918   0.409  0.00  0.00    +0.144 HD
ATOM     12  H   UNL     1      -4.162  -2.842   0.598  0.00  0.00    +0.144 HD
ENDROOT
BRANCH   1  16
ATOM     13  O   UNL     1       1.790   0.031  -1.005  0.00  0.00    -0.335 OA
ATOM     14  C   UNL     1       1.296   1.405   0.860  0.00  0.00    +0.187 C 
ATOM     15  C   UNL     1       2.723   1.685   0.431  0.00  0.00    +0.169 C 
ATOM     16  C   UNL     1       0.718   0.781  -0.401  0.00  0.00    +0.225 C 
ATOM     17  C   UNL     1       3.045   0.473  -0.438  0.00  0.00    +0.157 C 
BRANCH  14  18
ATOM     18  O   UNL     1       0.594   2.570   1.241  0.00  0.00    -0.378 OA
ATOM     19  H   UNL     1       0.990   2.938   2.046  0.00  0.00    +0.211 HD
ENDBRANCH  14  18
BRANCH  15  20
ATOM     20  O   UNL     1       2.754   2.857  -0.383  0.00  0.00    -0.379 OA
ATOM     21  H   UNL     1       2.550   3.634   0.160  0.00  0.00    +0.211 HD
ENDBRANCH  15  20
BRANCH  17  22
ATOM     22  C   UNL     1       3.647  -0.681   0.352  0.00  0.00    +0.090 C 
BRANCH  22  23
ATOM     23  S   UNL     1       4.012  -2.075  -0.745  0.00  0.00    -0.137 S 
ATOM     24  C   UNL     1       4.686  -3.214   0.486  0.00  0.00    +0.069 C 
ENDBRANCH  22  23
ENDBRANCH  17  22
ENDBRANCH   1  16
TORSDOF 5
