REMARK  Name = 10130120
REMARK  6 active torsions:
REMARK  status: ('A' for Active; 'I' for Inactive)
REMARK    1  A    between atoms: C_1  and  N_2
REMARK    2  A    between atoms: C_1  and  C_7
REMARK    3  A    between atoms: C_1  and  C_10
REMARK    4  A    between atoms: C_7  and  O_8
REMARK    5  A    between atoms: C_10  and  S_11
REMARK    6  A    between atoms: S_11  and  C_13
REMARK                            x       y       z     vdW  Elec       q    Type
REMARK                         _______ _______ _______ _____ _____    ______ ____
ROOT
ATOM      1  C   UNK     1      -1.436  -0.612   0.552  0.00  0.00    +0.047 C 
ENDROOT
BRANCH   1   2
ATOM      2  N   UNK     1      -2.235  -1.796   0.229  0.00  0.00    +0.389 N 
ATOM      3  H   UNK     1      -1.862  -2.604   0.728  0.00  0.00    -0.088 HD
ATOM      4  H   UNK     1      -2.195  -1.970  -0.776  0.00  0.00    -0.088 HD
ATOM      5  H   UNK     1      -3.203  -1.640   0.508  0.00  0.00    -0.088 HD
ENDBRANCH   1   2
BRANCH   1   7
ATOM      6  O   UNK     1      -2.045   0.625  -1.435  0.00  0.00    -0.253 OA
ATOM      7  C   UNK     1      -2.026   0.559  -0.211  0.00  0.00    +0.294 C 
BRANCH   7   8
ATOM      8  O   UNK     1      -2.501   1.548   0.586  0.00  0.00    -0.482 OA
ATOM      9  H   UNK     1      -2.467   1.457   1.518  0.00  0.00    +0.295 HD
ENDBRANCH   7   8
ENDBRANCH   1   7
BRANCH   1  10
ATOM     10  C   UNK     1       0.031  -0.857   0.195  0.00  0.00    +0.054 C 
BRANCH  10  11
ATOM     11  S   UNK     1       1.070   0.597   0.549  0.00  0.00    -0.079 S 
BRANCH  11  13
ATOM     12  O   UNK     1       2.790  -1.096  -0.532  0.00  0.00    -0.285 OA
ATOM     13  C   UNK     1       2.622   0.015  -0.044  0.00  0.00    +0.199 C 
ATOM     14  C   UNK     1       3.729   1.018   0.111  0.00  0.00    +0.085 C 
ENDBRANCH  11  13
ENDBRANCH  10  11
ENDBRANCH   1  10
TORSDOF 6
