REMARK  Name = 448087
REMARK  9 active torsions:
REMARK  status: ('A' for Active; 'I' for Inactive)
REMARK    1  A    between atoms: C_3  and  C_8
REMARK    2  A    between atoms: C_4  and  C_15
REMARK    3  A    between atoms: C_7  and  C_18
REMARK    4  A    between atoms: C_15  and  O_16
REMARK    5  A    between atoms: C_18  and  N_20
REMARK    6  A    between atoms: C_21  and  C_23
REMARK    7  A    between atoms: C_23  and  S_24
REMARK    8  A    between atoms: C_23  and  C_26
REMARK    9  A    between atoms: C_26  and  C_27
REMARK                            x       y       z     vdW  Elec       q    Type
REMARK                         _______ _______ _______ _____ _____    ______ ____
ROOT
ATOM      1  O   UNL     1       0.085  -0.092   1.748  0.00  0.00    -0.273 OA
ATOM      2  N   UNL     1       2.203   0.371   0.929  0.00  0.00    -0.268 N 
ATOM      3  C   UNL     1       2.654  -1.030   0.899  0.00  0.00    +0.098 C 
ATOM      4  C   UNL     1       3.328   1.287   0.741  0.00  0.00    +0.175 C 
ATOM      5  C   UNL     1       4.128  -0.956   0.479  0.00  0.00    +0.027 C 
ATOM      6  C   UNL     1       4.566   0.425   0.955  0.00  0.00    +0.033 C 
ATOM      7  C   UNL     1       0.928   0.720   1.362  0.00  0.00    +0.246 C 
ENDROOT
BRANCH   3   8
ATOM      8  C   UNL     1       1.856  -1.943  -0.007  0.00  0.00    -0.004 C 
ATOM      9  C   UNL     1       1.741  -3.299   0.297  0.00  0.00    -0.003 C 
ATOM     10  C   UNL     1       1.237  -1.428  -1.145  0.00  0.00    -0.003 C 
ATOM     11  C   UNL     1       1.006  -4.141  -0.538  0.00  0.00    -0.000 C 
ATOM     12  C   UNL     1       0.502  -2.269  -1.981  0.00  0.00    -0.000 C 
ATOM     13  C   UNL     1       0.387  -3.626  -1.677  0.00  0.00    -0.000 C 
ENDBRANCH   3   8
BRANCH   4  15
ATOM     14  O   UNL     1       2.399   1.560  -1.474  0.00  0.00    -0.248 OA
ATOM     15  C   UNL     1       3.267   1.827  -0.656  0.00  0.00    +0.332 C 
BRANCH  15  16
ATOM     16  O   UNL     1       4.312   2.656  -0.895  0.00  0.00    -0.479 OA
ATOM     17  H   UNL     1       4.945   2.819  -0.224  0.00  0.00    +0.295 HD
ENDBRANCH  15  16
ENDBRANCH   4  15
BRANCH   7  18
ATOM     18  C   UNL     1       0.595   2.191   1.340  0.00  0.00    +0.176 C 
BRANCH  18  20
ATOM     19  O   UNL     1      -0.647   2.339  -1.244  0.00  0.00    -0.274 OA
ATOM     20  N   UNL     1      -0.803   2.261   1.071  0.00  0.00    -0.296 N 
ATOM     21  C   UNL     1      -1.330   2.331  -0.221  0.00  0.00    +0.233 C 
ATOM     22  H   UNL     1      -1.428   2.260   1.833  0.00  0.00    +0.150 HD
BRANCH  21  23
ATOM     23  C   UNL     1      -2.852   2.424  -0.247  0.00  0.00    +0.124 C 
BRANCH  23  24
ATOM     24  S   UNL     1      -3.268   4.056  -0.959  0.00  0.00    -0.159 S 
ATOM     25  H   UNL     1      -2.705   5.037  -0.203  0.00  0.00    +0.103 HD
ENDBRANCH  23  24
BRANCH  23  26
ATOM     26  C   UNL     1      -3.486   1.316  -1.099  0.00  0.00    +0.046 C 
BRANCH  26  27
ATOM     27  C   UNL     1      -3.650   0.026  -0.326  0.00  0.00    -0.021 C 
ATOM     28  C   UNL     1      -2.627  -0.922  -0.327  0.00  0.00    -0.004 C 
ATOM     29  C   UNL     1      -4.824  -0.215   0.388  0.00  0.00    -0.004 C 
ATOM     30  C   UNL     1      -2.778  -2.112   0.386  0.00  0.00    -0.000 C 
ATOM     31  C   UNL     1      -4.975  -1.405   1.101  0.00  0.00    -0.000 C 
ATOM     32  C   UNL     1      -3.952  -2.353   1.100  0.00  0.00    -0.000 C 
ENDBRANCH  26  27
ENDBRANCH  23  26
ENDBRANCH  21  23
ENDBRANCH  18  20
ENDBRANCH   7  18
TORSDOF 9
