REMARK  Name = 5287596
REMARK  10 active torsions:
REMARK  status: ('A' for Active; 'I' for Inactive)
REMARK    1  A    between atoms: C_1  and  N_3
REMARK    2  A    between atoms: C_1  and  C_17
REMARK    3  A    between atoms: C_1  and  C_27
REMARK    4  A    between atoms: C_4  and  C_8
REMARK    5  A    between atoms: C_10  and  O_14
REMARK    6  A    between atoms: C_17  and  C_20
REMARK    7  A    between atoms: C_27  and  C_28
REMARK    8  A    between atoms: C_28  and  C_29
REMARK    9  A    between atoms: C_29  and  N_30
REMARK   10  A    between atoms: N_30  and  C_33
REMARK                            x       y       z     vdW  Elec       q    Type
REMARK                         _______ _______ _______ _____ _____    ______ ____
ROOT
ATOM      1  C   UNL     1       0.349  -0.092  -0.224  0.00  0.00    +0.137 C 
ENDROOT
BRANCH   1   3
ATOM      2  O   UNL     1      -1.751   1.182   1.324  0.00  0.00    -0.273 OA
ATOM      3  N   UNL     1      -0.834   0.569  -0.726  0.00  0.00    -0.298 N 
ATOM      4  C   UNL     1      -1.784   1.150   0.096  0.00  0.00    +0.241 C 
ATOM      5  H   UNL     1      -0.971   0.607  -1.700  0.00  0.00    +0.150 HD
BRANCH   4   8
ATOM      6  O   UNL     1      -4.565  -0.502  -0.222  0.00  0.00    -0.275 OA
ATOM      7  N   UNL     1      -4.088   1.732   0.151  0.00  0.00    -0.270 N 
ATOM      8  C   UNL     1      -2.895   1.788  -0.682  0.00  0.00    +0.154 C 
ATOM      9  C   UNL     1      -2.652   3.273  -0.906  0.00  0.00    +0.060 C 
ATOM     10  C   UNL     1      -3.213   3.923   0.358  0.00  0.00    +0.132 C 
ATOM     11  C   UNL     1      -4.406   3.044   0.710  0.00  0.00    +0.123 C 
ATOM     12  C   UNL     1      -4.865   0.590   0.265  0.00  0.00    +0.227 C 
ATOM     13  C   UNL     1      -6.143   0.748   1.050  0.00  0.00    +0.095 C 
BRANCH  10  14
ATOM     14  O   UNL     1      -3.602   5.258   0.099  0.00  0.00    -0.383 OA
ATOM     15  H   UNL     1      -2.819   5.786  -0.121  0.00  0.00    +0.210 HD
ENDBRANCH  10  14
ENDBRANCH   4   8
ENDBRANCH   1   3
BRANCH   1  17
ATOM     16  O   UNL     1       1.229   0.170  -2.431  0.00  0.00    -0.286 OA
ATOM     17  C   UNL     1       1.487   0.141  -1.224  0.00  0.00    +0.226 C 
BRANCH  17  20
ATOM     18  S   UNL     1       4.151   0.618  -1.805  0.00  0.00    -0.069 S 
ATOM     19  N   UNL     1       3.155   0.352   0.559  0.00  0.00    -0.396 NA
ATOM     20  C   UNL     1       2.856   0.353  -0.719  0.00  0.00    +0.193 C 
ATOM     21  C   UNL     1       5.233   0.747  -0.468  0.00  0.00    +0.128 C 
ATOM     22  C   UNL     1       4.514   0.577   0.719  0.00  0.00    +0.124 C 
ATOM     23  C   UNL     1       6.617   0.983  -0.470  0.00  0.00    -0.008 C 
ATOM     24  C   UNL     1       5.208   0.645   1.947  0.00  0.00    +0.029 C 
ATOM     25  C   UNL     1       7.279   1.046   0.759  0.00  0.00    -0.003 C 
ATOM     26  C   UNL     1       6.586   0.880   1.952  0.00  0.00    +0.002 C 
ENDBRANCH  17  20
ENDBRANCH   1  17
BRANCH   1  27
ATOM     27  C   UNL     1       0.093  -1.579   0.055  0.00  0.00    +0.030 C 
BRANCH  27  28
ATOM     28  C   UNL     1      -0.236  -2.412  -1.194  0.00  0.00    +0.029 C 
BRANCH  28  29
ATOM     29  C   UNL     1      -0.418  -3.892  -0.870  0.00  0.00    +0.129 C 
BRANCH  29  30
ATOM     30  N   UNL     1      -1.524  -4.062   0.074  0.00  0.00    -0.240 NA
BRANCH  30  33
ATOM     31  N   UNL     1      -1.167  -6.437   0.053  0.00  0.00    -0.370 N 
ATOM     32  N   UNL     1      -2.820  -5.519   1.326  0.00  0.00    -0.370 N 
ATOM     33  C   UNL     1      -1.796  -5.275   0.442  0.00  0.00    +0.189 C 
ATOM     34  H   UNL     1      -0.414  -6.402  -0.580  0.00  0.00    +0.159 HD
ATOM     35  H   UNL     1      -1.471  -7.304   0.408  0.00  0.00    +0.159 HD
ATOM     36  H   UNL     1      -3.351  -4.771   1.683  0.00  0.00    +0.159 HD
ATOM     37  H   UNL     1      -3.022  -6.443   1.602  0.00  0.00    +0.159 HD
ENDBRANCH  30  33
ENDBRANCH  29  30
ENDBRANCH  28  29
ENDBRANCH  27  28
ENDBRANCH   1  27
TORSDOF 10
