REMARK  Name = 444390
REMARK  7 active torsions:
REMARK  status: ('A' for Active; 'I' for Inactive)
REMARK    1  A    between atoms: C_2  and  O_7
REMARK    2  A    between atoms: C_3  and  O_17
REMARK    3  A    between atoms: C_4  and  O_9
REMARK    4  A    between atoms: C_5  and  C_14
REMARK    5  A    between atoms: C_6  and  O_11
REMARK    6  A    between atoms: C_14  and  O_15
REMARK    7  A    between atoms: O_17  and  S_18
REMARK                            x       y       z     vdW  Elec       q    Type
REMARK                         _______ _______ _______ _____ _____    ______ ____
ROOT
ATOM      1  O   UNL     1      -1.328  -0.542   1.171  0.00  0.00    -0.317 OA
ATOM      2  C   UNL     1       0.337  -0.535  -1.190  0.00  0.00    +0.175 C 
ATOM      3  C   UNL     1       0.837  -1.079   0.156  0.00  0.00    +0.232 C 
ATOM      4  C   UNL     1      -0.836   0.435  -1.008  0.00  0.00    +0.178 C 
ATOM      5  C   UNL     1      -1.889  -0.176  -0.084  0.00  0.00    +0.245 C 
ATOM      6  C   UNL     1      -0.310  -1.542   1.066  0.00  0.00    +0.266 C 
ENDROOT
BRANCH   2   7
ATOM      7  O   UNL     1      -0.075  -1.632  -2.001  0.00  0.00    -0.379 OA
ATOM      8  H   UNL     1       0.667  -2.246  -2.116  0.00  0.00    +0.211 HD
ENDBRANCH   2   7
BRANCH   4   9
ATOM      9  O   UNL     1      -0.356   1.654  -0.442  0.00  0.00    -0.379 OA
ATOM     10  H   UNL     1       0.312   2.042  -1.028  0.00  0.00    +0.211 HD
ENDBRANCH   4   9
BRANCH   6  11
ATOM     11  O   UNL     1      -0.823  -2.786   0.599  0.00  0.00    -0.358 OA
ATOM     12  H   UNL     1      -1.547  -3.075   1.177  0.00  0.00    +0.213 HD
ENDBRANCH   6  11
BRANCH   5  14
ATOM     13  O   UNL     1      -3.246   1.221   1.344  0.00  0.00    -0.247 OA
ATOM     14  C   UNL     1      -2.976   0.804   0.227  0.00  0.00    +0.344 C 
BRANCH  14  15
ATOM     15  O   UNL     1      -3.629   1.169  -0.903  0.00  0.00    -0.478 OA
ATOM     16  H   UNL     1      -3.372   0.811  -1.729  0.00  0.00    +0.295 HD
ENDBRANCH  14  15
ENDBRANCH   5  14
BRANCH   3  17
ATOM     17  O   UNL     1       1.569  -0.049   0.818  0.00  0.00    -0.195 OA
BRANCH  17  18
ATOM     18  S   UNL     1       2.894   0.583   0.106  0.00  0.00    +0.239 S 
ATOM     19  O   UNL     1       3.509   1.572   1.248  0.00  0.00    -0.022 OA
ATOM     20  O   UNL     1       3.840  -0.501  -0.088  0.00  0.00    -0.116 OA
ATOM     21  O   UNL     1       2.483   1.402  -1.019  0.00  0.00    -0.116 OA
ENDBRANCH  17  18
ENDBRANCH   3  17
TORSDOF 7
