REMARK  Name = 446973
REMARK  4 active torsions:
REMARK  status: ('A' for Active; 'I' for Inactive)
REMARK    1  A    between atoms: C_1  and  O_3
REMARK    2  A    between atoms: C_1  and  C_5
REMARK    3  A    between atoms: C_5  and  C_6
REMARK    4  A    between atoms: C_6  and  O_7
REMARK                            x       y       z     vdW  Elec       q    Type
REMARK                         _______ _______ _______ _____ _____    ______ ____
ROOT
ATOM      1  C   UNL     1       1.040   0.014  -0.337  0.00  0.00    +0.113 C 
ATOM      2  C   UNL     1       2.194  -0.879   0.097  0.00  0.00    +0.032 C 
ENDROOT
BRANCH   1   3
ATOM      3  O   UNL     1       1.231   1.311   0.221  0.00  0.00    -0.384 OA
ATOM      4  H   UNL     1       0.501   1.890  -0.050  0.00  0.00    +0.210 HD
ENDBRANCH   1   3
BRANCH   1   5
ATOM      5  C   UNL     1      -0.308  -0.556   0.106  0.00  0.00    +0.061 C 
BRANCH   5   6
ATOM      6  C   UNL     1      -1.475   0.350  -0.273  0.00  0.00    +0.140 C 
BRANCH   6   7
ATOM      7  O   UNL     1      -2.682  -0.241   0.187  0.00  0.00    -0.382 OA
ATOM      8  H   UNL     1      -3.431   0.328  -0.049  0.00  0.00    +0.210 HD
ENDBRANCH   6   7
ENDBRANCH   5   6
ENDBRANCH   1   5
TORSDOF 4
