REMARK  Name = 447537
REMARK  7 active torsions:
REMARK  status: ('A' for Active; 'I' for Inactive)
REMARK    1  A    between atoms: C_1  and  C_2
REMARK    2  A    between atoms: C_1  and  P_8
REMARK    3  A    between atoms: C_1  and  P_14
REMARK    4  A    between atoms: P_8  and  O_10
REMARK    5  A    between atoms: P_8  and  O_12
REMARK    6  A    between atoms: P_14  and  O_16
REMARK    7  A    between atoms: P_14  and  O_18
REMARK                            x       y       z     vdW  Elec       q    Type
REMARK                         _______ _______ _______ _____ _____    ______ ____
ROOT
ATOM      1  C   UNL     1       0.648   0.001   0.435  0.00  0.00    +0.229 C 
ENDROOT
BRANCH   1   2
ATOM      2  C   UNL     1      -0.858   0.006   0.212  0.00  0.00    +0.001 C 
ATOM      3  C   UNL     1      -1.694   0.000   1.310  0.00  0.00    -0.003 C 
ATOM      4  C   UNL     1      -1.341   0.017  -1.080  0.00  0.00    -0.003 C 
ATOM      5  C   UNL     1      -3.074   0.004   1.106  0.00  0.00    -0.000 C 
ATOM      6  C   UNL     1      -2.721   0.022  -1.284  0.00  0.00    -0.000 C 
ATOM      7  C   UNL     1      -3.588   0.016  -0.191  0.00  0.00    -0.000 C 
ENDBRANCH   1   2
BRANCH   1   8
ATOM      8  P   UNL     1       1.411   1.596  -0.081  0.00  0.00    +0.352 P 
ATOM      9  O   UNL     1       1.218   1.946  -1.526  0.00  0.00    -0.257 OA
BRANCH   8  10
ATOM     10  O   UNL     1       2.950   1.428   0.385  0.00  0.00    -0.323 OA
ATOM     11  H   UNL     1       3.447   2.228   0.155  0.00  0.00    +0.220 HD
ENDBRANCH   8  10
BRANCH   8  12
ATOM     12  O   UNL     1       0.817   2.660   0.981  0.00  0.00    -0.323 OA
ATOM     13  H   UNL     1       1.169   3.543   0.785  0.00  0.00    +0.220 HD
ENDBRANCH   8  12
ENDBRANCH   1   8
BRANCH   1  14
ATOM     14  P   UNL     1       1.384  -1.606  -0.087  0.00  0.00    +0.352 P 
ATOM     15  O   UNL     1       1.177  -1.944  -1.534  0.00  0.00    -0.257 OA
BRANCH  14  16
ATOM     16  O   UNL     1       2.924  -1.490   0.390  0.00  0.00    -0.323 OA
ATOM     17  H   UNL     1       3.397  -2.303   0.154  0.00  0.00    +0.220 HD
ENDBRANCH  14  16
BRANCH  14  18
ATOM     18  O   UNL     1       0.747  -2.655   0.963  0.00  0.00    -0.323 OA
ATOM     19  H   UNL     1       1.078  -3.547   0.770  0.00  0.00    +0.220 HD
ENDBRANCH  14  18
ENDBRANCH   1  14
TORSDOF 7
