REMARK  Name = 7752
REMARK  2 active torsions:
REMARK  status: ('A' for Active; 'I' for Inactive)
REMARK    1  A    between atoms: C_3  and  O_6
REMARK    2  A    between atoms: O_6  and  C_7
REMARK                            x       y       z     vdW  Elec       q    Type
REMARK                         _______ _______ _______ _____ _____    ______ ____
ROOT
ATOM      1  O   UNL     1      -0.640  -1.423   0.000  0.00  0.00    -0.226 OA
ATOM      2  N   UNL     1      -1.540   0.715   0.000  0.00  0.00    -0.269 N 
ATOM      3  C   UNL     1      -0.511  -0.204   0.000  0.00  0.00    +0.402 C 
ATOM      4  C   UNL     1      -2.939   0.353   0.000  0.00  0.00    +0.114 C 
ATOM      5  H   UNL     1      -1.308   1.672   0.000  0.00  0.00    +0.153 HD
ENDROOT
BRANCH   3   6
ATOM      6  O   UNL     1       0.689   0.450   0.000  0.00  0.00    -0.435 OA
BRANCH   6   7
ATOM      7  C   UNL     1       1.853  -0.384   0.000  0.00  0.00    +0.210 C 
ATOM      8  C   UNL     1       3.087   0.493   0.000  0.00  0.00    +0.051 C 
ENDBRANCH   6   7
ENDBRANCH   3   6
TORSDOF 2
