REMARK  Name = 178
REMARK  0 active torsions:
REMARK  status: ('A' for Active; 'I' for Inactive)
REMARK                            x       y       z     vdW  Elec       q    Type
REMARK                         _______ _______ _______ _____ _____    ______ ____
ROOT
ATOM      1  O   UNL     1       0.607  -1.166   0.002  0.00  0.00    -0.275 OA
ATOM      2  N   UNL     1       0.752   1.131   0.002  0.00  0.00    -0.329 N 
ATOM      3  C   UNL     1      -1.427   0.097   0.001  0.00  0.00    +0.094 C 
ATOM      4  C   UNL     1       0.068  -0.062  -0.005  0.00  0.00    +0.220 C 
ATOM      5  H   UNL     1       1.737   1.133  -0.002  0.00  0.00    +0.145 HD
ATOM      6  H   UNL     1       0.258   1.982   0.009  0.00  0.00    +0.145 HD
ENDROOT
TORSDOF 0
