REMARK  Name = 6227
REMARK  2 active torsions:
REMARK  status: ('A' for Active; 'I' for Inactive)
REMARK    1  A    between atoms: C_2  and  C_4
REMARK    2  A    between atoms: C_2  and  O_5
REMARK                            x       y       z     vdW  Elec       q    Type
REMARK                         _______ _______ _______ _____ _____    ______ ____
ROOT
ATOM      1  O   UNL     1      -0.484  -1.293  -0.106  0.00  0.00    -0.249 OA
ATOM      2  C   UNL     1      -0.566  -0.073  -0.051  0.00  0.00    +0.326 C 
ENDROOT
BRANCH   2   4
ATOM      3 BR   UNL     1       2.189  -0.073   0.229  0.00  0.00    -0.068 Br
ATOM      4  C   UNL     1       0.580   0.855  -0.306  0.00  0.00    +0.176 C 
ENDBRANCH   2   4
BRANCH   2   5
ATOM      5  O   UNL     1      -1.719   0.584   0.235  0.00  0.00    -0.480 OA
ATOM      6  H   UNL     1      -1.730   1.520   0.265  0.00  0.00    +0.295 HD
ENDBRANCH   2   5
TORSDOF 2
