REMARK  Name = 3260017
REMARK  4 active torsions:
REMARK  status: ('A' for Active; 'I' for Inactive)
REMARK    1  A    between atoms: C_2  and  C_4
REMARK    2  A    between atoms: C_2  and  C_7
REMARK    3  A    between atoms: C_4  and  O_5
REMARK    4  A    between atoms: C_7  and  C_10
REMARK                            x       y       z     vdW  Elec       q    Type
REMARK                         _______ _______ _______ _____ _____    ______ ____
ROOT
ATOM      1  O   UNL     1       0.297   1.423  -0.322  0.00  0.00    -0.284 OA
ATOM      2  C   UNL     1       0.471   0.241  -0.067  0.00  0.00    +0.259 C 
ENDROOT
BRANCH   2   4
ATOM      3  O   UNL     1       2.166  -1.389   0.305  0.00  0.00    -0.242 OA
ATOM      4  C   UNL     1       1.891  -0.243   0.011  0.00  0.00    +0.374 C 
BRANCH   4   5
ATOM      5  O   UNL     1       2.734   0.769  -0.228  0.00  0.00    -0.475 OA
ATOM      6  H   UNL     1       2.398   1.616  -0.448  0.00  0.00    +0.295 HD
ENDBRANCH   4   5
ENDBRANCH   2   4
BRANCH   2   7
ATOM      7  C   UNL     1      -0.608  -0.780   0.188  0.00  0.00    +0.190 C 
BRANCH   7  10
ATOM      8  O   UNL     1      -2.225   0.794   0.868  0.00  0.00    -0.245 OA
ATOM      9  O   UNL     1      -2.734  -0.664  -0.820  0.00  0.00    -0.245 OA
ATOM     10  C   UNL     1      -1.992  -0.153   0.065  0.00  0.00    +0.373 C 
ENDBRANCH   7  10
ENDBRANCH   2   7
TORSDOF 4
