REMARK  Name = 446858
REMARK  8 active torsions:
REMARK  status: ('A' for Active; 'I' for Inactive)
REMARK    1  A    between atoms: C_2  and  O_18
REMARK    2  A    between atoms: C_3  and  O_20
REMARK    3  A    between atoms: C_4  and  N_6
REMARK    4  A    between atoms: C_5  and  C_22
REMARK    5  A    between atoms: C_22  and  O_23
REMARK    6  A    between atoms: O_23  and  P_24
REMARK    7  A    between atoms: P_24  and  O_26
REMARK    8  A    between atoms: P_24  and  O_28
REMARK                            x       y       z     vdW  Elec       q    Type
REMARK                         _______ _______ _______ _____ _____    ______ ____
ROOT
ATOM      1  O   UNL     1       1.027   0.064   0.078  0.00  0.00    -0.333 OA
ATOM      2  C   UNL     1       0.029  -2.086  -0.183  0.00  0.00    +0.187 C 
ATOM      3  C   UNL     1       1.511  -2.182  -0.489  0.00  0.00    +0.171 C 
ATOM      4  C   UNL     1      -0.185  -0.585  -0.368  0.00  0.00    +0.224 C 
ATOM      5  C   UNL     1       2.050  -0.942   0.212  0.00  0.00    +0.176 C 
ENDROOT
BRANCH   4   6
ATOM      6  N   UNL     1      -1.346  -0.023   0.312  0.00  0.00    -0.252 N 
ATOM      7  N   UNL     1      -2.571   0.884   1.947  0.00  0.00    -0.186 NA
ATOM      8  N   UNL     1      -4.648   1.042   0.694  0.00  0.00    -0.283 NA
ATOM      9  N   UNL     1      -4.487   0.212  -1.594  0.00  0.00    -0.168 NA
ATOM     10  N   UNL     1      -6.493   1.069  -0.745  0.00  0.00    -0.292 N 
ATOM     11  C   UNL     1      -2.601   0.153  -0.209  0.00  0.00    +0.147 C 
ATOM     12  C   UNL     1      -1.383   0.432   1.608  0.00  0.00    +0.234 C 
ATOM     13  C   UNL     1      -3.340   0.716   0.823  0.00  0.00    +0.113 C 
ATOM     14  C   UNL     1      -3.181  -0.103  -1.435  0.00  0.00    +0.138 C 
ATOM     15  C   UNL     1      -5.130   0.757  -0.535  0.00  0.00    +0.151 C 
ATOM     16  H   UNL     1      -7.024   1.469  -0.018  0.00  0.00    +0.155 HD
ATOM     17  H   UNL     1      -6.911   0.887  -1.617  0.00  0.00    +0.155 HD
ENDBRANCH   4   6
BRANCH   2  18
ATOM     18  O   UNL     1      -0.214  -2.468   1.167  0.00  0.00    -0.378 OA
ATOM     19  H   UNL     1      -0.073  -3.422   1.264  0.00  0.00    +0.211 HD
ENDBRANCH   2  18
BRANCH   3  20
ATOM     20  O   UNL     1       2.107  -3.365  -0.003  0.00  0.00    -0.379 OA
ATOM     21  H   UNL     1       1.738  -4.130  -0.473  0.00  0.00    +0.211 HD
ENDBRANCH   3  20
BRANCH   5  22
ATOM     22  C   UNL     1       3.349  -0.431  -0.386  0.00  0.00    +0.186 C 
BRANCH  22  23
ATOM     23  O   UNL     1       3.758   0.725   0.327  0.00  0.00    -0.271 OA
BRANCH  23  24
ATOM     24  P   UNL     1       5.126   1.464  -0.122  0.00  0.00    +0.473 P 
ATOM     25  O   UNL     1       5.486   2.678   0.684  0.00  0.00    -0.227 OA
BRANCH  24  26
ATOM     26  O   UNL     1       4.923   1.721  -1.706  0.00  0.00    -0.303 OA
ATOM     27  H   UNL     1       4.694   0.885  -2.142  0.00  0.00    +0.222 HD
ENDBRANCH  24  26
BRANCH  24  28
ATOM     28  O   UNL     1       6.213   0.267  -0.076  0.00  0.00    -0.303 OA
ATOM     29  H   UNL     1       5.903  -0.473  -0.621  0.00  0.00    +0.222 HD
ENDBRANCH  24  28
ENDBRANCH  23  24
ENDBRANCH  22  23
ENDBRANCH   5  22
TORSDOF 8
