REMARK  Name = 65241
REMARK  0 active torsions:
REMARK  status: ('A' for Active; 'I' for Inactive)
REMARK                            x       y       z     vdW  Elec       q    Type
REMARK                         _______ _______ _______ _____ _____    ______ ____
ROOT
ATOM      1  P   UNL     1       0.000   0.000  -0.129  0.00  0.00    +0.570 P 
ATOM      2  F   UNL     1      -0.001  -0.001   1.464  0.00  0.00    -0.130 F 
ATOM      3  O   UNL     1       1.337  -0.654  -0.445  0.00  0.00    -0.111 OA
ATOM      4  O   UNL     1      -0.101   1.486  -0.444  0.00  0.00    -0.111 OA
ATOM      5  O   UNL     1      -1.235  -0.830  -0.446  0.00  0.00    -0.218 OA
ENDROOT
TORSDOF 0
