REMARK  Name = 448513
REMARK  3 active torsions:
REMARK  status: ('A' for Active; 'I' for Inactive)
REMARK    1  A    between atoms: C_1  and  C_13
REMARK    2  A    between atoms: C_2  and  C_9
REMARK    3  A    between atoms: C_13  and  O_14
REMARK                            x       y       z     vdW  Elec       q    Type
REMARK                         _______ _______ _______ _____ _____    ______ ____
ROOT
ATOM      1  C   UNL     1       1.717   0.003   0.277  0.00  0.00    +0.007 C 
ATOM      2  C   UNL     1      -1.062  -0.009   0.028  0.00  0.00    +0.031 C 
ATOM      3  C   UNL     1       1.017   1.208   0.217  0.00  0.00    -0.002 C 
ATOM      4  C   UNL     1       1.027  -1.208   0.212  0.00  0.00    -0.002 C 
ATOM      5  C   UNL     1      -0.372   1.202   0.093  0.00  0.00    +0.002 C 
ATOM      6  C   UNL     1      -0.362  -1.214   0.087  0.00  0.00    +0.002 C 
ENDROOT
BRANCH   2   9
ATOM      7  N   UNL     1      -3.238   1.172  -0.160  0.00  0.00    -0.343 N 
ATOM      8  N   UNL     1      -3.161  -1.164  -0.157  0.00  0.00    -0.285 NA
ATOM      9  C   UNL     1      -2.510  -0.015  -0.100  0.00  0.00    +0.117 C 
ATOM     10  H   UNL     1      -4.219   1.144  -0.247  0.00  0.00    +0.144 HD
ATOM     11  H   UNL     1      -2.772   2.038  -0.116  0.00  0.00    +0.144 HD
ATOM     12  H   UNL     1      -4.142  -1.170  -0.244  0.00  0.00    +0.188 HD
ENDBRANCH   2   9
BRANCH   1  13
ATOM     13  C   UNL     1       3.202   0.010   0.409  0.00  0.00    +0.164 C 
BRANCH  13  14
ATOM     14  O   UNL     1       3.743   0.015  -0.907  0.00  0.00    -0.377 OA
ATOM     15  H   UNL     1       4.711   0.019  -0.858  0.00  0.00    +0.211 HD
ENDBRANCH  13  14
ENDBRANCH   1  13
TORSDOF 3
