REMARK  Name = 10927
REMARK  2 active torsions:
REMARK  status: ('A' for Active; 'I' for Inactive)
REMARK    1  A    between atoms: C_3  and  C_6
REMARK    2  A    between atoms: C_6  and  C_7
REMARK                            x       y       z     vdW  Elec       q    Type
REMARK                         _______ _______ _______ _____ _____    ______ ____
ROOT
ATOM      1  O   UNL     1       1.276  -1.256   0.005  0.00  0.00    -0.275 OA
ATOM      2  N   UNL     1       2.104   0.890   0.004  0.00  0.00    -0.329 N 
ATOM      3  C   UNL     1       1.088  -0.043   0.000  0.00  0.00    +0.219 C 
ATOM      4  H   UNL     1       3.043   0.594   0.009  0.00  0.00    +0.145 HD
ATOM      5  H   UNL     1       1.890   1.851   0.000  0.00  0.00    +0.145 HD
ENDROOT
BRANCH   3   6
ATOM      6  C   UNL     1      -0.284   0.601  -0.009  0.00  0.00    +0.085 C 
BRANCH   6   7
ATOM      7  C   UNL     1      -1.409  -0.429  -0.012  0.00  0.00    +0.010 C 
ATOM      8  C   UNL     1      -2.775   0.237   0.012  0.00  0.00    +0.001 C 
ENDBRANCH   6   7
ENDBRANCH   3   6
TORSDOF 2
