REMARK  Name = 445966
REMARK  3 active torsions:
REMARK  status: ('A' for Active; 'I' for Inactive)
REMARK    1  A    between atoms: C_6  and  O_15
REMARK    2  A    between atoms: O_15  and  C_16
REMARK    3  A    between atoms: C_16  and  C_19
REMARK                            x       y       z     vdW  Elec       q    Type
REMARK                         _______ _______ _______ _____ _____    ______ ____
ROOT
ATOM      1  N   UNL     1       2.177  -2.098   0.291  0.00  0.00    -0.266 NA
ATOM      2  N   UNL     1       1.027   1.387   0.049  0.00  0.00    -0.293 NA
ATOM      3  N   UNL     1       3.403   1.087  -0.416  0.00  0.00    -0.316 NA
ATOM      4  N   UNL     1       4.153  -1.220  -0.253  0.00  0.00    -0.296 N 
ATOM      5  N   UNL     1       2.404   3.201  -0.499  0.00  0.00    -0.283 N 
ATOM      6  C   UNL     1       0.858   0.065   0.270  0.00  0.00    +0.288 C 
ATOM      7  C   UNL     1       1.961  -0.756   0.149  0.00  0.00    +0.215 C 
ATOM      8  C   UNL     1       3.202  -0.234  -0.188  0.00  0.00    +0.196 C 
ATOM      9  C   UNL     1       2.272   1.811  -0.276  0.00  0.00    +0.200 C 
ATOM     10  C   UNL     1       3.504  -2.327   0.041  0.00  0.00    +0.164 C 
ATOM     11  H   UNL     1       1.503  -2.775   0.530  0.00  0.00    +0.126 HD
ATOM     12  H   UNL     1       5.108  -1.122  -0.470  0.00  0.00    +0.150 HD
ATOM     13  H   UNL     1       1.619   3.790  -0.414  0.00  0.00    +0.156 HD
ATOM     14  H   UNL     1       3.280   3.579  -0.739  0.00  0.00    +0.156 HD
ENDROOT
BRANCH   6  15
ATOM     15  O   UNL     1      -0.391  -0.398   0.602  0.00  0.00    -0.451 OA
BRANCH  15  16
ATOM     16  C   UNL     1      -1.429   0.562   0.689  0.00  0.00    +0.227 C 
BRANCH  16  19
ATOM     17  O   UNL     1      -4.693  -1.022  -1.748  0.00  0.00    -0.275 OA
ATOM     18  N   UNL     1      -3.149  -1.043   0.013  0.00  0.00    -0.302 N 
ATOM     19  C   UNL     1      -2.722  -0.151   1.063  0.00  0.00    +0.116 C 
ATOM     20  C   UNL     1      -3.904   0.802   1.193  0.00  0.00    +0.033 C 
ATOM     21  C   UNL     1      -4.501   0.850  -0.211  0.00  0.00    +0.087 C 
ATOM     22  C   UNL     1      -4.171  -0.514  -0.768  0.00  0.00    +0.223 C 
ATOM     23  H   UNL     1      -2.758  -1.934  -0.136  0.00  0.00    +0.149 HD
ENDBRANCH  16  19
ENDBRANCH  15  16
ENDBRANCH   6  15
TORSDOF 3
