REMARK  Name = 11575
REMARK  0 active torsions:
REMARK  status: ('A' for Active; 'I' for Inactive)
REMARK                            x       y       z     vdW  Elec       q    Type
REMARK                         _______ _______ _______ _____ _____    ______ ____
ROOT
ATOM      1  I   UNL     1       2.976   0.000   0.000  0.00  0.00    -0.043 I 
ATOM      2  C   UNL     1       0.899   0.000   0.000  0.00  0.00    +0.030 C 
ATOM      3  C   UNL     1       0.201   1.208   0.000  0.00  0.00    +0.006 C 
ATOM      4  C   UNL     1       0.202  -1.208   0.000  0.00  0.00    +0.006 C 
ATOM      5  C   UNL     1      -1.194   1.208   0.000  0.00  0.00    +0.000 C 
ATOM      6  C   UNL     1      -1.194  -1.208   0.000  0.00  0.00    +0.000 C 
ATOM      7  C   UNL     1      -1.891   0.000   0.000  0.00  0.00    +0.000 C 
ENDROOT
TORSDOF 0
