REMARK  Name = 461279
REMARK  9 active torsions:
REMARK  status: ('A' for Active; 'I' for Inactive)
REMARK    1  A    between atoms: C_2  and  N_8
REMARK    2  A    between atoms: C_3  and  C_16
REMARK    3  A    between atoms: C_16  and  O_17
REMARK    4  A    between atoms: O_17  and  P_18
REMARK    5  A    between atoms: P_18  and  O_20
REMARK    6  A    between atoms: P_18  and  O_22
REMARK    7  A    between atoms: O_22  and  P_23
REMARK    8  A    between atoms: P_23  and  O_25
REMARK    9  A    between atoms: P_23  and  O_27
REMARK                            x       y       z     vdW  Elec       q    Type
REMARK                         _______ _______ _______ _____ _____    ______ ____
ROOT
ATOM      1  O   UNL     1       1.051   2.134   0.662  0.00  0.00    -0.329 OA
ATOM      2  C   UNL     1       2.346   1.856   0.102  0.00  0.00    +0.223 C 
ATOM      3  C   UNL     1       0.246   2.782  -0.348  0.00  0.00    +0.169 C 
ATOM      4  C   UNL     1       2.308   2.352  -1.293  0.00  0.00    +0.022 C 
ATOM      5  C   UNL     1       1.115   2.881  -1.551  0.00  0.00    +0.005 C 
ENDROOT
BRANCH   2   8
ATOM      6  O   UNL     1       4.471   0.551   1.483  0.00  0.00    -0.252 OA
ATOM      7  O   UNL     1       3.074  -3.597   0.073  0.00  0.00    -0.270 OA
ATOM      8  N   UNL     1       2.580   0.417   0.124  0.00  0.00    -0.215 N 
ATOM      9  N   UNL     1       3.764  -1.511   0.772  0.00  0.00    -0.236 N 
ATOM     10  C   UNL     1       1.706  -0.387  -0.580  0.00  0.00    +0.072 C 
ATOM     11  C   UNL     1       3.660  -0.117   0.839  0.00  0.00    +0.316 C 
ATOM     12  C   UNL     1       1.808  -1.721  -0.641  0.00  0.00    +0.047 C 
ATOM     13  C   UNL     1       2.925  -2.378   0.088  0.00  0.00    +0.250 C 
ATOM     14  C   UNL     1       0.860  -2.588  -1.404  0.00  0.00    +0.037 C 
ATOM     15  H   UNL     1       4.513  -1.920   1.263  0.00  0.00    +0.159 HD
ENDBRANCH   2   8
BRANCH   3  16
ATOM     16  C   UNL     1      -1.005   1.953  -0.585  0.00  0.00    +0.188 C 
BRANCH  16  17
ATOM     17  O   UNL     1      -1.758   1.908   0.616  0.00  0.00    -0.270 OA
BRANCH  17  18
ATOM     18  P   UNL     1      -3.152   1.090   0.666  0.00  0.00    +0.484 P 
ATOM     19  O   UNL     1      -3.852   1.121   1.994  0.00  0.00    -0.227 OA
BRANCH  18  20
ATOM     20  O   UNL     1      -4.019   1.696  -0.559  0.00  0.00    -0.302 OA
ATOM     21  H   UNL     1      -3.503   1.641  -1.378  0.00  0.00    +0.222 HD
ENDBRANCH  18  20
BRANCH  18  22
ATOM     22  O   UNL     1      -2.772  -0.394   0.151  0.00  0.00    -0.186 OA
BRANCH  22  23
ATOM     23  P   UNL     1      -3.702  -1.676  -0.171  0.00  0.00    +0.481 P 
ATOM     24  O   UNL     1      -4.724  -1.453  -1.247  0.00  0.00    -0.227 OA
BRANCH  23  25
ATOM     25  O   UNL     1      -4.301  -2.068   1.278  0.00  0.00    -0.302 OA
ATOM     26  H   UNL     1      -3.572  -2.193   1.906  0.00  0.00    +0.222 HD
ENDBRANCH  23  25
BRANCH  23  27
ATOM     27  O   UNL     1      -2.631  -2.849  -0.468  0.00  0.00    -0.302 OA
ATOM     28  H   UNL     1      -2.014  -2.920   0.277  0.00  0.00    +0.222 HD
ENDBRANCH  23  27
ENDBRANCH  22  23
ENDBRANCH  18  22
ENDBRANCH  17  18
ENDBRANCH  16  17
ENDBRANCH   3  16
TORSDOF 9
