REMARK  Name = 19233
REMARK  8 active torsions:
REMARK  status: ('A' for Active; 'I' for Inactive)
REMARK    1  A    between atoms: C_1  and  O_2
REMARK    2  A    between atoms: C_1  and  C_4
REMARK    3  A    between atoms: C_1  and  C_11
REMARK    4  A    between atoms: C_4  and  O_5
REMARK    5  A    between atoms: C_4  and  C_7
REMARK    6  A    between atoms: C_7  and  O_9
REMARK    7  A    between atoms: C_11  and  O_12
REMARK    8  A    between atoms: C_11  and  C_15
REMARK                            x       y       z     vdW  Elec       q    Type
REMARK                         _______ _______ _______ _____ _____    ______ ____
ROOT
ATOM      1  C   UNL     1      -0.298  -0.397   0.122  0.00  0.00    +0.174 C 
ENDROOT
BRANCH   1   2
ATOM      2  O   UNL     1      -0.231  -1.138   1.341  0.00  0.00    -0.379 OA
ATOM      3  H   UNL     1       0.566  -1.691   1.339  0.00  0.00    +0.211 HD
ENDBRANCH   1   2
BRANCH   1   4
ATOM      4  C   UNL     1       0.998   0.427  -0.049  0.00  0.00    +0.167 C 
BRANCH   4   5
ATOM      5  O   UNL     1       1.082   1.432   0.963  0.00  0.00    -0.379 OA
ATOM      6  H   UNL     1       0.263   1.953   0.971  0.00  0.00    +0.211 HD
ENDBRANCH   4   5
BRANCH   4   7
ATOM      7  C   UNL     1       2.313  -0.375  -0.028  0.00  0.00    +0.140 C 
ATOM      8  C   UNL     1       3.547   0.506  -0.160  0.00  0.00    +0.034 C 
BRANCH   7   9
ATOM      9  O   UNL     1       2.355  -1.342  -1.074  0.00  0.00    -0.382 OA
ATOM     10  H   UNL     1       1.578  -1.918  -1.013  0.00  0.00    +0.210 HD
ENDBRANCH   7   9
ENDBRANCH   4   7
ENDBRANCH   1   4
BRANCH   1  11
ATOM     11  C   UNL     1      -1.562   0.480   0.126  0.00  0.00    +0.205 C 
BRANCH  11  12
ATOM     12  O   UNL     1      -1.679   1.213  -1.078  0.00  0.00    -0.375 OA
ATOM     13  H   UNL     1      -0.886   1.758  -1.203  0.00  0.00    +0.211 HD
ENDBRANCH  11  12
BRANCH  11  15
ATOM     14  O   UNL     1      -3.726  -0.435  -0.483  0.00  0.00    -0.286 OA
ATOM     15  C   UNL     1      -2.800  -0.371   0.320  0.00  0.00    +0.239 C 
ENDBRANCH  11  15
ENDBRANCH   1  11
TORSDOF 8
