REMARK  Name = 39040
REMARK  0 active torsions:
REMARK  status: ('A' for Active; 'I' for Inactive)
REMARK                            x       y       z     vdW  Elec       q    Type
REMARK                         _______ _______ _______ _____ _____    ______ ____
ROOT
ATOM      1  S   UNL     1      -0.715  -2.274   0.000  0.00  0.00    -0.049 S 
ATOM      2  N   UNL     1      -0.971   0.297   0.000  0.00  0.00    -0.226 N 
ATOM      3  N   UNL     1      -2.976  -0.593   0.000  0.00  0.00    -0.124 NA
ATOM      4  N   UNL     1      -3.084   0.800   0.000  0.00  0.00    -0.127 NA
ATOM      5  C   UNL     1       0.405   0.153   0.000  0.00  0.00    +0.061 C 
ATOM      6  C   UNL     1       0.740  -1.212   0.000  0.00  0.00    +0.046 C 
ATOM      7  C   UNL     1       1.346   1.163   0.000  0.00  0.00    -0.007 C 
ATOM      8  C   UNL     1      -1.697  -0.850   0.000  0.00  0.00    +0.193 C 
ATOM      9  C   UNL     1       2.070  -1.595   0.000  0.00  0.00    +0.008 C 
ATOM     10  C   UNL     1       2.686   0.773   0.000  0.00  0.00    -0.003 C 
ATOM     11  C   UNL     1      -1.864   1.313   0.000  0.00  0.00    +0.197 C 
ATOM     12  C   UNL     1       1.018   2.614   0.000  0.00  0.00    +0.032 C 
ATOM     13  C   UNL     1       3.044  -0.590   0.000  0.00  0.00    +0.000 C 
ENDROOT
TORSDOF 0
