REMARK  Name = 3035817
REMARK  3 active torsions:
REMARK  status: ('A' for Active; 'I' for Inactive)
REMARK    1  A    between atoms: C_7  and  O_32
REMARK    2  A    between atoms: C_7  and  C_35
REMARK    3  A    between atoms: C_35  and  O_36
REMARK                            x       y       z     vdW  Elec       q    Type
REMARK                         _______ _______ _______ _____ _____    ______ ____
ROOT
ATOM      1  O   UNL     1       1.656  -1.215   1.181  0.00  0.00    -0.318 OA
ATOM      2  O   UNL     1      -5.405   0.154  -0.017  0.00  0.00    -0.270 OA
ATOM      3  N   UNL     1       1.186   0.890   0.258  0.00  0.00    -0.305 N 
ATOM      4  N   UNL     1      -0.259  -1.710   0.066  0.00  0.00    -0.304 N 
ATOM      5  N   UNL     1      -4.679   2.380  -0.017  0.00  0.00    -0.297 N 
ATOM      6  C   UNL     1       2.260  -0.068   0.558  0.00  0.00    +0.198 C 
ATOM      7  C   UNL     1       2.907  -0.662  -0.706  0.00  0.00    +0.223 C 
ATOM      8  C   UNL     1       1.139  -2.024   0.129  0.00  0.00    +0.209 C 
ATOM      9  C   UNL     1       1.885  -1.687  -1.160  0.00  0.00    +0.096 C 
ATOM     10  C   UNL     1      -0.185   0.743   0.175  0.00  0.00    +0.077 A 
ATOM     11  C   UNL     1      -0.881  -0.498   0.111  0.00  0.00    +0.078 A 
ATOM     12  C   UNL     1      -1.044   1.902   0.106  0.00  0.00    +0.016 A 
ATOM     13  C   UNL     1      -2.325  -0.416   0.054  0.00  0.00    +0.023 A 
ATOM     14  C   UNL     1       3.245   0.452   1.618  0.00  0.00    +0.057 C 
ATOM     15  C   UNL     1       1.312   2.280   0.086  0.00  0.00    +0.062 A 
ATOM     16  C   UNL     1      -1.327  -2.591  -0.023  0.00  0.00    +0.062 A 
ATOM     17  C   UNL     1       0.021   2.896   0.057  0.00  0.00    +0.017 A 
ATOM     18  C   UNL     1      -2.435   1.967   0.072  0.00  0.00    +0.003 A 
ATOM     19  C   UNL     1      -3.093   0.744   0.059  0.00  0.00    +0.053 A 
ATOM     20  C   UNL     1      -2.561  -1.867  -0.020  0.00  0.00    +0.017 A 
ATOM     21  C   UNL     1      -3.417   3.090   0.017  0.00  0.00    +0.117 C 
ATOM     22  C   UNL     1       2.465   3.084  -0.043  0.00  0.00    +0.017 C 
ATOM     23  C   UNL     1      -4.530   0.997   0.004  0.00  0.00    +0.246 C 
ATOM     24  C   UNL     1      -1.309  -3.997  -0.110  0.00  0.00    +0.017 C 
ATOM     25  C   UNL     1      -0.051   4.308  -0.052  0.00  0.00    +0.001 C 
ATOM     26  C   UNL     1      -3.756  -2.626  -0.102  0.00  0.00    +0.001 C 
ATOM     27  C   UNL     1       2.347   4.472  -0.156  0.00  0.00    +0.001 C 
ATOM     28  C   UNL     1       1.105   5.080  -0.151  0.00  0.00    +0.000 C 
ATOM     29  C   UNL     1      -2.513  -4.696  -0.187  0.00  0.00    +0.001 C 
ATOM     30  C   UNL     1      -3.723  -4.021  -0.182  0.00  0.00    +0.000 C 
ATOM     31  H   UNL     1      -5.553   2.830  -0.052  0.00  0.00    +0.150 HD
ENDROOT
BRANCH   7  32
ATOM     32  O   UNL     1       3.179   0.305  -1.698  0.00  0.00    -0.373 OA
ATOM     33  H   UNL     1       2.362   0.775  -1.924  0.00  0.00    +0.211 HD
ENDBRANCH   7  32
BRANCH   7  35
ATOM     34  O   UNL     1       5.269  -1.071  -0.999  0.00  0.00    -0.247 OA
ATOM     35  C   UNL     1       4.224  -1.337  -0.421  0.00  0.00    +0.346 C 
BRANCH  35  36
ATOM     36  O   UNL     1       4.056  -2.268   0.561  0.00  0.00    -0.443 OA
ATOM     37  C   UNL     1       5.235  -2.989   0.933  0.00  0.00    +0.256 C 
ENDBRANCH  35  36
ENDBRANCH   7  35
TORSDOF 3
