REMARK  Name = 998
REMARK  2 active torsions:
REMARK  status: ('A' for Active; 'I' for Inactive)
REMARK    1  A    between atoms: C_1  and  C_7
REMARK    2  A    between atoms: C_7  and  C_9
REMARK                            x       y       z     vdW  Elec       q    Type
REMARK                         _______ _______ _______ _____ _____    ______ ____
ROOT
ATOM      1  C   UNL     1       0.207  -0.018   0.527  0.00  0.00    -0.014 C 
ATOM      2  C   UNL     1      -0.443   1.198   0.317  0.00  0.00    -0.004 C 
ATOM      3  C   UNL     1      -0.454  -1.217   0.261  0.00  0.00    -0.004 C 
ATOM      4  C   UNL     1      -1.754   1.216  -0.159  0.00  0.00    -0.000 C 
ATOM      5  C   UNL     1      -1.765  -1.200  -0.216  0.00  0.00    -0.000 C 
ATOM      6  C   UNL     1      -2.415   0.017  -0.426  0.00  0.00    -0.000 C 
ENDROOT
BRANCH   1   7
ATOM      7  C   UNL     1       1.609  -0.037   1.036  0.00  0.00    +0.098 C 
BRANCH   7   9
ATOM      8  O   UNL     1       2.379   0.058  -1.269  0.00  0.00    -0.288 OA
ATOM      9  C   UNL     1       2.635  -0.016  -0.071  0.00  0.00    +0.212 C 
ENDBRANCH   7   9
ENDBRANCH   1   7
TORSDOF 2
