REMARK  Name = 5288011
REMARK  9 active torsions:
REMARK  status: ('A' for Active; 'I' for Inactive)
REMARK    1  A    between atoms: C_5  and  O_19
REMARK    2  A    between atoms: C_5  and  C_22
REMARK    3  A    between atoms: C_8  and  C_31
REMARK    4  A    between atoms: C_10  and  C_11
REMARK    5  A    between atoms: C_16  and  O_17
REMARK    6  A    between atoms: O_19  and  O_20
REMARK    7  A    between atoms: C_22  and  C_23
REMARK    8  A    between atoms: C_28  and  O_29
REMARK    9  A    between atoms: C_31  and  C_32
REMARK                            x       y       z     vdW  Elec       q    Type
REMARK                         _______ _______ _______ _____ _____    ______ ____
ROOT
ATOM      1  O   UNL     1       0.257  -3.119   1.758  0.00  0.00    -0.270 OA
ATOM      2  N   UNL     1      -0.545  -1.339   0.478  0.00  0.00    -0.232 N 
ATOM      3  N   UNL     1       1.358  -0.222  -0.021  0.00  0.00    -0.220 NA
ATOM      4  N   UNL     1      -2.098   0.502  -0.873  0.00  0.00    -0.406 NA
ATOM      5  C   UNL     1       1.733  -1.423   0.786  0.00  0.00    +0.282 C 
ATOM      6  C   UNL     1       0.073  -0.302  -0.116  0.00  0.00    +0.162 C 
ATOM      7  C   UNL     1       0.400  -2.108   1.089  0.00  0.00    +0.281 C 
ATOM      8  C   UNL     1      -0.809   0.665  -0.832  0.00  0.00    +0.144 C 
ATOM      9  C   UNL     1      -1.895  -1.504   0.435  0.00  0.00    +0.159 C 
ATOM     10  C   UNL     1      -2.640  -0.602  -0.234  0.00  0.00    +0.129 C 
ENDROOT
BRANCH  10  11
ATOM     11  C   UNL     1      -4.111  -0.758  -0.282  0.00  0.00    +0.027 C 
ATOM     12  C   UNL     1      -4.909  -0.172   0.701  0.00  0.00    +0.005 C 
ATOM     13  C   UNL     1      -4.701  -1.493  -1.311  0.00  0.00    +0.005 C 
ATOM     14  C   UNL     1      -6.295  -0.320   0.655  0.00  0.00    +0.037 C 
ATOM     15  C   UNL     1      -6.088  -1.641  -1.357  0.00  0.00    +0.037 C 
ATOM     16  C   UNL     1      -6.885  -1.054  -0.374  0.00  0.00    +0.134 C 
BRANCH  16  17
ATOM     17  O   UNL     1      -8.237  -1.199  -0.418  0.00  0.00    -0.506 OA
ATOM     18  H   UNL     1      -8.772  -0.805   0.243  0.00  0.00    +0.292 HD
ENDBRANCH  16  17
ENDBRANCH  10  11
BRANCH   5  19
ATOM     19  O   UNL     1       2.370  -1.167   2.029  0.00  0.00    -0.196 OA
BRANCH  19  20
ATOM     20  O   UNL     1       1.454  -0.304   2.757  0.00  0.00    -0.247 OA
ATOM     21  H   UNL     1       1.832  -0.090   3.624  0.00  0.00    +0.253 HD
ENDBRANCH  19  20
ENDBRANCH   5  19
BRANCH   5  22
ATOM     22  C   UNL     1       2.618  -2.322  -0.069  0.00  0.00    +0.090 C 
BRANCH  22  23
ATOM     23  C   UNL     1       3.938  -1.669  -0.381  0.00  0.00    -0.017 C 
ATOM     24  C   UNL     1       4.063  -0.891  -1.523  0.00  0.00    -0.001 C 
ATOM     25  C   UNL     1       5.012  -1.856   0.478  0.00  0.00    -0.001 C 
ATOM     26  C   UNL     1       5.286  -0.287  -1.813  0.00  0.00    +0.036 C 
ATOM     27  C   UNL     1       6.236  -1.252   0.188  0.00  0.00    +0.036 C 
ATOM     28  C   UNL     1       6.373  -0.468  -0.957  0.00  0.00    +0.134 C 
BRANCH  28  29
ATOM     29  O   UNL     1       7.566   0.123  -1.240  0.00  0.00    -0.506 OA
ATOM     30  H   UNL     1       7.657   0.649  -2.009  0.00  0.00    +0.292 HD
ENDBRANCH  28  29
ENDBRANCH  22  23
ENDBRANCH   5  22
BRANCH   8  31
ATOM     31  C   UNL     1      -0.157   1.836  -1.502  0.00  0.00    +0.088 C 
BRANCH  31  32
ATOM     32  C   UNL     1      -0.021   2.990  -0.553  0.00  0.00    -0.015 C 
ATOM     33  C   UNL     1      -1.043   3.929  -0.459  0.00  0.00    -0.004 C 
ATOM     34  C   UNL     1       1.126   3.111   0.224  0.00  0.00    -0.004 C 
ATOM     35  C   UNL     1      -0.916   5.002   0.423  0.00  0.00    -0.000 C 
ATOM     36  C   UNL     1       1.253   4.185   1.105  0.00  0.00    -0.000 C 
ATOM     37  C   UNL     1       0.232   5.130   1.205  0.00  0.00    -0.000 C 
ENDBRANCH  31  32
ENDBRANCH   8  31
TORSDOF 9
