REMARK  Name = 21158904
REMARK  9 active torsions:
REMARK  status: ('A' for Active; 'I' for Inactive)
REMARK    1  A    between atoms: C_1  and  N_3
REMARK    2  A    between atoms: C_1  and  C_15
REMARK    3  A    between atoms: C_1  and  C_19
REMARK    4  A    between atoms: C_4  and  O_6
REMARK    5  A    between atoms: O_6  and  C_7
REMARK    6  A    between atoms: C_7  and  C_8
REMARK    7  A    between atoms: C_15  and  C_16
REMARK    8  A    between atoms: C_16  and  N_17
REMARK    9  A    between atoms: C_19  and  C_20
REMARK                            x       y       z     vdW  Elec       q    Type
REMARK                         _______ _______ _______ _____ _____    ______ ____
ROOT
ATOM      1  C   UNL     1      -1.892   0.561  -0.096  0.00  0.00    +0.138 C 
ENDROOT
BRANCH   1   3
ATOM      2  O   UNL     1       0.224   0.937   1.859  0.00  0.00    -0.226 OA
ATOM      3  N   UNL     1      -0.476   0.363  -0.278  0.00  0.00    -0.265 N 
ATOM      4  C   UNL     1       0.463   0.567   0.714  0.00  0.00    +0.402 C 
ATOM      5  H   UNL     1      -0.160   0.064  -1.161  0.00  0.00    +0.153 HD
BRANCH   4   6
ATOM      6  O   UNL     1       1.712   0.295   0.232  0.00  0.00    -0.430 OA
BRANCH   6   7
ATOM      7  C   UNL     1       2.790   0.465   1.160  0.00  0.00    +0.237 C 
BRANCH   7   8
ATOM      8  C   UNL     1       4.082   0.128   0.476  0.00  0.00    +0.021 C 
ATOM      9  C   UNL     1       4.566  -1.180   0.505  0.00  0.00    -0.001 C 
ATOM     10  C   UNL     1       4.800   1.122  -0.189  0.00  0.00    -0.001 C 
ATOM     11  C   UNL     1       5.767  -1.494  -0.130  0.00  0.00    -0.000 C 
ATOM     12  C   UNL     1       6.001   0.808  -0.825  0.00  0.00    -0.000 C 
ATOM     13  C   UNL     1       6.485  -0.500  -0.795  0.00  0.00    -0.000 C 
ENDBRANCH   7   8
ENDBRANCH   6   7
ENDBRANCH   4   6
ENDBRANCH   1   3
BRANCH   1  15
ATOM     14  O   UNL     1      -1.532   2.677  -1.200  0.00  0.00    -0.293 OA
ATOM     15  C   UNL     1      -2.171   2.034  -0.365  0.00  0.00    +0.188 C 
BRANCH  15  16
ATOM     16  C   UNL     1      -3.246   2.674   0.482  0.00  0.00    +0.177 C 
BRANCH  16  17
ATOM     17  N   UNL     1      -3.420   4.047   0.142  0.00  0.00    -0.105 NA
ATOM     18  N   UNL     1      -3.553   5.093  -0.118  0.00  0.00    -0.020 NA
ENDBRANCH  16  17
ENDBRANCH  15  16
ENDBRANCH   1  15
BRANCH   1  19
ATOM     19  C   UNL     1      -2.728  -0.312  -1.032  0.00  0.00    +0.054 C 
BRANCH  19  20
ATOM     20  C   UNL     1      -2.859  -1.734  -0.543  0.00  0.00    -0.020 C 
ATOM     21  C   UNL     1      -1.921  -2.692  -0.926  0.00  0.00    -0.004 C 
ATOM     22  C   UNL     1      -3.917  -2.089   0.294  0.00  0.00    -0.004 C 
ATOM     23  C   UNL     1      -2.041  -4.006  -0.473  0.00  0.00    -0.000 C 
ATOM     24  C   UNL     1      -4.037  -3.403   0.747  0.00  0.00    -0.000 C 
ATOM     25  C   UNL     1      -3.099  -4.361   0.363  0.00  0.00    -0.000 C 
ENDBRANCH  19  20
ENDBRANCH   1  19
TORSDOF 9
