REMARK  Name = 5289158
REMARK  5 active torsions:
REMARK  status: ('A' for Active; 'I' for Inactive)
REMARK    1  A    between atoms: P_1  and  O_3
REMARK    2  A    between atoms: P_1  and  O_5
REMARK    3  A    between atoms: P_1  and  O_7
REMARK    4  A    between atoms: O_7  and  P_9
REMARK    5  A    between atoms: P_9  and  O_11
REMARK                            x       y       z     vdW  Elec       q    Type
REMARK                         _______ _______ _______ _____ _____    ______ ____
ROOT
ATOM      1  P   UNL     1      -1.486  -0.086  -0.079  0.00  0.00    +0.480 P 
ATOM      2  O   UNL     1      -1.750   0.553  -1.411  0.00  0.00    -0.227 OA
ENDROOT
BRANCH   1   3
ATOM      3  O   UNL     1      -1.669   0.892   1.196  0.00  0.00    -0.302 OA
ATOM      4  H   UNL     1      -1.480   0.400   2.010  0.00  0.00    +0.222 HD
ENDBRANCH   1   3
BRANCH   1   5
ATOM      5  O   UNL     1      -2.428  -1.348   0.283  0.00  0.00    -0.302 OA
ATOM      6  H   UNL     1      -2.185  -1.692   1.156  0.00  0.00    +0.222 HD
ENDBRANCH   1   5
BRANCH   1   7
ATOM      7  O   UNL     1       0.015  -0.654   0.115  0.00  0.00    -0.200 OA
BRANCH   7   9
ATOM      8  S   UNL     1       2.917  -1.300   0.023  0.00  0.00    +0.039 S 
ATOM      9  P   UNL     1       1.490   0.043   0.080  0.00  0.00    +0.408 P 
ATOM     10  O   UNL     1       1.538   1.103   1.159  0.00  0.00    -0.245 OA
BRANCH   9  11
ATOM     11  O   UNL     1       1.373   0.798  -1.365  0.00  0.00    -0.315 OA
ATOM     12  H   UNL     1       1.340   0.136  -2.074  0.00  0.00    +0.221 HD
ENDBRANCH   9  11
ENDBRANCH   7   9
ENDBRANCH   1   7
TORSDOF 5
