REMARK  Name = 17754166
REMARK  6 active torsions:
REMARK  status: ('A' for Active; 'I' for Inactive)
REMARK    1  A    between atoms: C_1  and  C_3
REMARK    2  A    between atoms: C_1  and  C_6
REMARK    3  A    between atoms: C_1  and  C_10
REMARK    4  A    between atoms: C_3  and  O_4
REMARK    5  A    between atoms: C_6  and  C_7
REMARK    6  A    between atoms: C_10  and  S_11
REMARK                            x       y       z     vdW  Elec       q    Type
REMARK                         _______ _______ _______ _____ _____    ______ ____
ROOT
ATOM      1  C   UNL     1       0.450   0.113  -0.482  0.00  0.00    +0.109 C 
ENDROOT
BRANCH   1   3
ATOM      2  O   UNL     1       1.880   1.424   0.999  0.00  0.00    -0.250 OA
ATOM      3  C   UNL     1       1.758   0.726   0.001  0.00  0.00    +0.314 C 
BRANCH   3   4
ATOM      4  O   UNL     1       2.800   0.424  -0.817  0.00  0.00    -0.480 OA
ATOM      5  H   UNL     1       2.663  -0.114  -1.572  0.00  0.00    +0.295 HD
ENDBRANCH   3   4
ENDBRANCH   1   3
BRANCH   1   6
ATOM      6  C   UNL     1      -0.742   0.521   0.410  0.00  0.00    +0.012 C 
BRANCH   6   7
ATOM      7  C   UNL     1      -2.097  -0.105   0.012  0.00  0.00    +0.001 C 
ATOM      8  C   UNL     1      -2.524   0.270  -1.408  0.00  0.00    +0.000 C 
ATOM      9  C   UNL     1      -3.178   0.338   1.004  0.00  0.00    +0.000 C 
ENDBRANCH   6   7
ENDBRANCH   1   6
BRANCH   1  10
ATOM     10  C   UNL     1       0.591  -1.415  -0.621  0.00  0.00    +0.064 C 
BRANCH  10  11
ATOM     11  S   UNL     1       1.062  -2.295   0.903  0.00  0.00    -0.167 S 
ATOM     12  H   UNL     1       1.152  -3.627   0.648  0.00  0.00    +0.102 HD
ENDBRANCH  10  11
ENDBRANCH   1  10
TORSDOF 6
