REMARK  Name = 642324
REMARK  3 active torsions:
REMARK  status: ('A' for Active; 'I' for Inactive)
REMARK    1  A    between atoms: C_1  and  N_3
REMARK    2  A    between atoms: C_1  and  C_7
REMARK    3  A    between atoms: C_7  and  C_8
REMARK                            x       y       z     vdW  Elec       q    Type
REMARK                         _______ _______ _______ _____ _____    ______ ____
ROOT
ATOM      1  C   UNL     1      -1.120   0.155   0.316  0.00  0.00    -0.066 C 
ATOM      2  C   UNL     1      -2.533   0.554  -0.114  0.00  0.00    -0.024 C 
ENDROOT
BRANCH   1   3
ATOM      3  N   UNL     1      -1.066  -1.300   0.457  0.00  0.00    +0.382 N 
ATOM      4  H   UNL     1      -0.128  -1.579   0.743  0.00  0.00    -0.089 HD
ATOM      5  H   UNL     1      -1.293  -1.736  -0.437  0.00  0.00    -0.089 HD
ATOM      6  H   UNL     1      -1.740  -1.598   1.162  0.00  0.00    -0.089 HD
ENDBRANCH   1   3
BRANCH   1   7
ATOM      7  C   UNL     1      -0.089   0.658  -0.712  0.00  0.00    -0.022 C 
BRANCH   7   8
ATOM      8  C   UNL     1       1.380   0.272  -0.439  0.00  0.00    -0.002 C 
ATOM      9  C   UNL     1       1.502  -1.252  -0.345  0.00  0.00    -0.000 C 
ATOM     10  C   UNL     1       1.926   0.912   0.838  0.00  0.00    -0.000 C 
ENDBRANCH   7   8
ENDBRANCH   1   7
TORSDOF 3
