REMARK  Name = 17753975
REMARK  6 active torsions:
REMARK  status: ('A' for Active; 'I' for Inactive)
REMARK    1  A    between atoms: C_2  and  O_18
REMARK    2  A    between atoms: C_3  and  N_6
REMARK    3  A    between atoms: C_4  and  O_20
REMARK    4  A    between atoms: O_20  and  P_21
REMARK    5  A    between atoms: P_21  and  O_23
REMARK    6  A    between atoms: P_21  and  O_25
REMARK                            x       y       z     vdW  Elec       q    Type
REMARK                         _______ _______ _______ _____ _____    ______ ____
ROOT
ATOM      1  O   UNL     1       1.005  -1.744   1.692  0.00  0.00    -0.333 OA
ATOM      2  C   UNL     1       1.355  -1.260  -0.631  0.00  0.00    +0.188 C 
ATOM      3  C   UNL     1       0.312  -1.569   0.444  0.00  0.00    +0.225 C 
ATOM      4  C   UNL     1       2.611  -0.953   0.155  0.00  0.00    +0.186 C 
ATOM      5  C   UNL     1       2.416  -1.744   1.432  0.00  0.00    +0.177 C 
ENDROOT
BRANCH   3   6
ATOM      6  N   UNL     1      -0.708  -0.528   0.587  0.00  0.00    -0.247 N 
ATOM      7  N   UNL     1      -1.693   1.341   1.299  0.00  0.00    -0.242 NA
ATOM      8  N   UNL     1      -2.435  -1.368  -0.901  0.00  0.00    -0.228 NA
ATOM      9  N   UNL     1      -4.365   0.124  -0.950  0.00  0.00    -0.229 NA
ATOM     10  C   UNL     1      -1.923  -0.480  -0.035  0.00  0.00    +0.152 C 
ATOM     11  C   UNL     1      -0.617   0.587   1.378  0.00  0.00    +0.223 C 
ATOM     12  C   UNL     1      -2.518   0.686   0.419  0.00  0.00    +0.140 C 
ATOM     13  C   UNL     1      -3.787   0.978  -0.072  0.00  0.00    +0.143 C 
ATOM     14  C   UNL     1      -3.664  -0.980  -1.305  0.00  0.00    +0.253 C 
ATOM     15  N   UNL     1      -4.463   2.141   0.334  0.00  0.00    -0.342 N 
ATOM     16  H   UNL     1      -5.361   2.337  -0.019  0.00  0.00    +0.144 HD
ATOM     17  H   UNL     1      -4.040   2.760   0.972  0.00  0.00    +0.144 HD
ENDBRANCH   3   6
BRANCH   2  18
ATOM     18  O   UNL     1       1.555  -2.439  -1.407  0.00  0.00    -0.378 OA
ATOM     19  H   UNL     1       0.749  -2.636  -1.910  0.00  0.00    +0.211 HD
ENDBRANCH   2  18
BRANCH   4  20
ATOM     20  O   UNL     1       2.662   0.432   0.476  0.00  0.00    -0.271 OA
BRANCH  20  21
ATOM     21  P   UNL     1       3.338   1.440  -0.590  0.00  0.00    +0.473 P 
ATOM     22  O   UNL     1       2.683   1.473  -1.940  0.00  0.00    -0.227 OA
BRANCH  21  23
ATOM     23  O   UNL     1       4.898   1.014  -0.589  0.00  0.00    -0.303 OA
ATOM     24  H   UNL     1       5.235   1.021   0.321  0.00  0.00    +0.222 HD
ENDBRANCH  21  23
BRANCH  21  25
ATOM     25  O   UNL     1       3.337   2.849   0.203  0.00  0.00    -0.303 OA
ATOM     26  H   UNL     1       3.778   2.738   1.060  0.00  0.00    +0.222 HD
ENDBRANCH  21  25
ENDBRANCH  20  21
ENDBRANCH   4  20
TORSDOF 6
