REMARK  Name = 448991
REMARK  8 active torsions:
REMARK  status: ('A' for Active; 'I' for Inactive)
REMARK    1  A    between atoms: N_1  and  CA_28
REMARK    2  A    between atoms: N_2  and  C_12
REMARK    3  A    between atoms: N_15  and  C_18
REMARK    4  A    between atoms: C_23  and  C_25
REMARK    5  A    between atoms: C_25  and  O_26
REMARK    6  A    between atoms: CA_28  and  CB_29
REMARK    7  A    between atoms: CA_28  and  C_32
REMARK    8  A    between atoms: C_32  and  O_33
REMARK                            x       y       z     vdW  Elec       q    Type
REMARK                         _______ _______ _______ _____ _____    ______ ____
ROOT
ATOM      1  N   UNL     1      -1.486  -2.461   0.156  0.00  0.00    -0.258 N 
ATOM      2  N   UNL     1      -4.307   1.359   0.015  0.00  0.00    -0.262 N 
ATOM      3  N   UNL     1      -3.038  -0.711   0.091  0.00  0.00    -0.311 NA
ATOM      4  N   UNL     1      -0.636  -0.280   0.064  0.00  0.00    -0.311 NA
ATOM      5  N   UNL     1      -2.633   2.831  -0.051  0.00  0.00    -0.240 NA
ATOM      6  C   UNL     1      -3.156   0.625   0.039  0.00  0.00    +0.220 C 
ATOM      7  C   ACE A   0      -1.730  -1.102   0.101  0.00  0.00    +0.202 C 
ATOM      8  C   UNL     1      -2.130   1.555  -0.002  0.00  0.00    +0.168 C 
ATOM      9  C   UNL     1      -0.830   1.060   0.013  0.00  0.00    +0.219 C 
ATOM     10  C   UNL     1      -3.941   2.678  -0.039  0.00  0.00    +0.222 C 
ATOM     11  H   UNL     1      -2.257  -3.072   0.186  0.00  0.00    +0.160 HD
ATOM     12  N   UNL     1       0.272   1.932  -0.026  0.00  0.00    -0.286 N 
ATOM     13  H   UNL     1       0.020   2.884  -0.061  0.00  0.00    +0.155 HD
ENDROOT
BRANCH  12  15
ATOM     14 CL   UNL     1       4.194  -1.008   1.434  0.00  0.00    -0.082 Cl
ATOM     15  C   UNL     1       1.666   1.716  -0.024  0.00  0.00    +0.051 C 
ATOM     16  C   UNL     1       2.197   0.600   0.622  0.00  0.00    +0.026 C 
ATOM     17  C   UNL     1       2.512   2.619  -0.668  0.00  0.00    +0.015 C 
ATOM     18  C   UNL     1       3.576   0.386   0.624  0.00  0.00    +0.065 C 
ATOM     19  C   UNL     1       3.890   2.405  -0.666  0.00  0.00    +0.009 C 
ATOM     20  C   UNL     1       4.422   1.289  -0.020  0.00  0.00    +0.086 C 
BRANCH  20  22
ATOM     21  O   UNL     1       6.456   0.135  -0.525  0.00  0.00    -0.245 OA
ATOM     22  C   UNL     1       5.868   1.107  -0.045  0.00  0.00    +0.339 C 
BRANCH  22  23
ATOM     23  O   UNL     1       6.530   2.146   0.531  0.00  0.00    -0.477 OA
ATOM     24  H   UNL     1       6.050   2.868   0.886  0.00  0.00    +0.295 HD
ENDBRANCH  22  23
ENDBRANCH  20  22
ENDBRANCH  12  15
BRANCH   2  25
ATOM     25  C   UNL     1      -5.657   0.852   0.040  0.00  0.00    +0.077 C 
ATOM     26  C   UNL     1      -6.415   1.302   1.290  0.00  0.00    +0.022 C 
ATOM     27  C   UNL     1      -6.423   1.199  -1.238  0.00  0.00    +0.022 C 
ENDBRANCH   2  25
BRANCH   1  28
ATOM     28  CA  UNL     1      -0.152  -3.034   0.171  0.00  0.00    +0.109 C 
BRANCH  28  29
ATOM     29  CB  UNL     1       0.451  -3.042  -1.253  0.00  0.00    +0.021 C 
ATOM     30  CG1 UNL     1      -0.393  -3.804  -2.279  0.00  0.00    +0.002 C 
ATOM     31  CG2 UNL     1       1.883  -3.587  -1.250  0.00  0.00    +0.002 C 
ENDBRANCH  28  29
BRANCH  28  32
ATOM     32  C   UNL     1      -0.215  -4.431   0.794  0.00  0.00    +0.157 C 
BRANCH  32  33
ATOM     33  O   UNL     1      -0.773  -4.337   2.101  0.00  0.00    -0.380 OA
ATOM     34  H   UNL     1      -0.815  -5.220   2.499  0.00  0.00    +0.211 HD
ENDBRANCH  32  33
ENDBRANCH  28  32
ENDBRANCH   1  28
TORSDOF 8
