REMARK  Name = 4369479
REMARK  12 active torsions:
REMARK  status: ('A' for Active; 'I' for Inactive)
REMARK    1  A    between atoms: N_2  and  C_10
REMARK    2  A    between atoms: C_4  and  C_21
REMARK    3  A    between atoms: C_5  and  C_8
REMARK    4  A    between atoms: C_10  and  C_14
REMARK    5  A    between atoms: C_21  and  C_22
REMARK    6  A    between atoms: C_22  and  O_23
REMARK    7  A    between atoms: O_23  and  P_24
REMARK    8  A    between atoms: P_24  and  O_26
REMARK    9  A    between atoms: P_24  and  O_28
REMARK   10  A    between atoms: O_28  and  P_29
REMARK   11  A    between atoms: P_29  and  O_31
REMARK   12  A    between atoms: P_29  and  O_33
REMARK                            x       y       z     vdW  Elec       q    Type
REMARK                         _______ _______ _______ _____ _____    ______ ____
ROOT
ATOM      1  S   UNL     1      -0.170  -2.978   0.891  0.00  0.00    -0.090 S 
ATOM      2  N   UNL     1       1.388  -1.667  -0.571  0.00  0.00    -0.293 N 
ATOM      3  C   UNL     1       0.236  -1.783  -1.315  0.00  0.00    +0.028 C 
ATOM      4  C   UNL     1      -0.711  -2.478  -0.645  0.00  0.00    +0.017 C 
ATOM      5  C   UNL     1       1.347  -2.238   0.614  0.00  0.00    +0.184 C 
ATOM      6  C   UNL     1       0.203  -1.171  -2.652  0.00  0.00    +0.047 C 
ENDROOT
BRANCH   5   8
ATOM      7  O   UNL     1       3.258  -1.392   1.747  0.00  0.00    -0.293 OA
ATOM      8  C   UNL     1       2.379  -2.281   1.593  0.00  0.00    +0.180 C 
ATOM      9  C   UNL     1       2.476  -3.472   2.556  0.00  0.00    +0.075 C 
ENDBRANCH   5   8
BRANCH   2  10
ATOM     10  C   UNL     1       2.563  -0.971  -1.046  0.00  0.00    +0.124 C 
BRANCH  10  14
ATOM     11  N   UNL     1       3.399   2.689  -0.604  0.00  0.00    -0.340 NA
ATOM     12  N   UNL     1       1.281   2.228   0.449  0.00  0.00    -0.186 NA
ATOM     13  N   UNL     1       4.596   0.953  -1.691  0.00  0.00    -0.332 N 
ATOM     14  C   UNL     1       2.488   0.478  -0.647  0.00  0.00    +0.062 C 
ATOM     15  C   UNL     1       3.463   1.389  -0.960  0.00  0.00    +0.187 C 
ATOM     16  C   UNL     1       1.410   0.942   0.061  0.00  0.00    +0.111 C 
ATOM     17  C   UNL     1       2.297   3.035   0.088  0.00  0.00    +0.066 C 
ATOM     18  C   UNL     1       2.191   4.464   0.499  0.00  0.00    +0.129 C 
ATOM     19  H   UNL     1       5.306   1.593  -1.925  0.00  0.00    +0.145 HD
ATOM     20  H   UNL     1       4.672   0.011  -1.966  0.00  0.00    +0.145 HD
ENDBRANCH  10  14
ENDBRANCH   2  10
BRANCH   4  21
ATOM     21  C   UNL     1      -2.112  -2.837  -1.082  0.00  0.00    +0.066 C 
BRANCH  21  22
ATOM     22  C   UNL     1      -3.127  -1.770  -0.685  0.00  0.00    +0.159 C 
BRANCH  22  23
ATOM     23  O   UNL     1      -2.792  -0.518  -1.258  0.00  0.00    -0.273 OA
BRANCH  23  24
ATOM     24  P   UNL     1      -3.724   0.775  -0.980  0.00  0.00    +0.484 P 
ATOM     25  O   UNL     1      -3.261   2.039  -1.644  0.00  0.00    -0.227 OA
BRANCH  24  26
ATOM     26  O   UNL     1      -5.210   0.302  -1.410  0.00  0.00    -0.302 OA
ATOM     27  H   UNL     1      -5.437  -0.517  -0.942  0.00  0.00    +0.222 HD
ENDBRANCH  24  26
BRANCH  24  28
ATOM     28  O   UNL     1      -3.818   0.870   0.631  0.00  0.00    -0.186 OA
BRANCH  28  29
ATOM     29  P   UNL     1      -2.687   1.183   1.742  0.00  0.00    +0.481 P 
ATOM     30  O   UNL     1      -1.542   0.214   1.761  0.00  0.00    -0.227 OA
BRANCH  29  31
ATOM     31  O   UNL     1      -2.287   2.721   1.444  0.00  0.00    -0.302 OA
ATOM     32  H   UNL     1      -3.086   3.270   1.451  0.00  0.00    +0.222 HD
ENDBRANCH  29  31
BRANCH  29  33
ATOM     33  O   UNL     1      -3.536   1.274   3.114  0.00  0.00    -0.302 OA
ATOM     34  H   UNL     1      -4.251   1.921   3.010  0.00  0.00    +0.222 HD
ENDBRANCH  29  33
ENDBRANCH  28  29
ENDBRANCH  24  28
ENDBRANCH  23  24
ENDBRANCH  22  23
ENDBRANCH  21  22
ENDBRANCH   4  21
TORSDOF 12
