967
  -OEChem-10051719523D

 15 15  0     0  0  0  0  0  0999 V2000
   -1.8663    2.3530   -0.0001 O   0  0  0  0  0  0  0  0  0  0  0  0
   -2.0522   -2.2662    0.0008 O   0  0  0  0  0  0  0  0  0  0  0  0
    2.6578    1.1786    0.0005 O   0  0  0  0  0  0  0  0  0  0  0  0
    2.8716   -1.0983    0.0001 O   0  0  0  0  0  0  0  0  0  0  0  0
    0.0891    1.1379    0.0001 N   0  0  0  0  0  0  0  0  0  0  0  0
   -1.9829    0.0473    0.0000 N   0  0  0  0  0  0  0  0  0  0  0  0
    0.7273   -0.0727   -0.0004 C   0  0  0  0  0  0  0  0  0  0  0  0
    0.0710   -1.2365   -0.0006 C   0  0  0  0  0  0  0  0  0  0  0  0
   -1.2931    1.2632    0.0001 C   0  0  0  0  0  0  0  0  0  0  0  0
   -1.4123   -1.2186   -0.0004 C   0  0  0  0  0  0  0  0  0  0  0  0
    2.1899   -0.0879    0.0000 C   0  0  0  0  0  0  0  0  0  0  0  0
    0.6551    1.9815    0.0003 H   0  0  0  0  0  0  0  0  0  0  0  0
    0.5587   -2.2043   -0.0008 H   0  0  0  0  0  0  0  0  0  0  0  0
   -2.9978    0.0954    0.0003 H   0  0  0  0  0  0  0  0  0  0  0  0
    3.6384    1.2092    0.0009 H   0  0  0  0  0  0  0  0  0  0  0  0
  1  9  2  0  0  0  0
  2 10  2  0  0  0  0
  3 11  1  0  0  0  0
  3 15  1  0  0  0  0
  4 11  2  0  0  0  0
  5  7  1  0  0  0  0
  5  9  1  0  0  0  0
  5 12  1  0  0  0  0
  6  9  1  0  0  0  0
  6 10  1  0  0  0  0
  6 14  1  0  0  0  0
  7  8  2  0  0  0  0
  7 11  1  0  0  0  0
  8 10  1  0  0  0  0
  8 13  1  0  0  0  0
M  END
> <DATABASE_ID>
DB02262

> <DATABASE_NAME>
drugbank

> <ORIGINAL_SOURCE>
PUBCHEM

> <ORIGINAL_SOURCE_URL>
https://pubchem.ncbi.nlm.nih.gov/rest/pug/compound/inchikey/PXQPEWDEAKTCGB-UHFFFAOYSA-N/SDF?record_type=3d

> <SMILES>
OC(=O)C1=CC(=O)NC(=O)N1

> <INCHI_IDENTIFIER>
InChI=1S/C5H4N2O4/c8-3-1-2(4(9)10)6-5(11)7-3/h1H,(H,9,10)(H2,6,7,8,11)

> <INCHI_KEY>
PXQPEWDEAKTCGB-UHFFFAOYSA-N

> <FORMULA>
C5H4N2O4

> <MOLECULAR_WEIGHT>
156.0963

> <EXACT_MASS>
156.017106626

> <JCHEM_ACCEPTOR_COUNT>
4

> <JCHEM_AVERAGE_POLARIZABILITY>
12.461411040975763

> <JCHEM_BIOAVAILABILITY>
1

> <JCHEM_DONOR_COUNT>
3

> <JCHEM_FORMAL_CHARGE>
0

> <JCHEM_GHOSE_FILTER>
0

> <JCHEM_IUPAC>
2,6-dioxo-1,2,3,6-tetrahydropyrimidine-4-carboxylic acid

> <ALOGPS_LOGP>
-0.89

> <JCHEM_LOGP>
-1.227664501

> <ALOGPS_LOGS>
-1.54

> <JCHEM_MDDR_LIKE_RULE>
0

> <JCHEM_NUMBER_OF_RINGS>
1

> <JCHEM_PHYSIOLOGICAL_CHARGE>
-1

> <JCHEM_PKA>
9.719801177776969

> <JCHEM_PKA_STRONGEST_ACIDIC>
2.8272668275049813

> <JCHEM_PKA_STRONGEST_BASIC>
-6.031557162371242

> <JCHEM_POLAR_SURFACE_AREA>
95.5

> <JCHEM_REFRACTIVITY>
33.27460000000001

> <JCHEM_ROTATABLE_BOND_COUNT>
1

> <JCHEM_RULE_OF_FIVE>
1

> <ALOGPS_SOLUBILITY>
4.51e+00 g/l

> <JCHEM_TRADITIONAL_IUPAC>
orotic acid

> <JCHEM_VEBER_RULE>
0

> <DRUGBANK_ID>
DB02262

> <SECONDARY_ACCESSION_NUMBERS>
EXPT02447

> <DRUG_GROUPS>
experimental; investigational

> <GENERIC_NAME>
Orotic Acid

$$$$
