REMARK  Name = 3711
REMARK  11 active torsions:
REMARK  status: ('A' for Active; 'I' for Inactive)
REMARK    1  A    between atoms: N_1  and  C_21
REMARK    2  A    between atoms: C_3  and  C_28
REMARK    3  A    between atoms: C_9  and  O_11
REMARK    4  A    between atoms: O_11  and  C_12
REMARK    5  A    between atoms: C_12  and  C_13
REMARK    6  A    between atoms: C_13  and  C_14
REMARK    7  A    between atoms: C_14  and  P_15
REMARK    8  A    between atoms: P_15  and  O_17
REMARK    9  A    between atoms: P_15  and  O_19
REMARK   10  A    between atoms: C_21  and  C_22
REMARK   11  A    between atoms: C_28  and  C_31
REMARK                            x       y       z     vdW  Elec       q    Type
REMARK                         _______ _______ _______ _____ _____    ______ ____
ROOT
ATOM      1  N   UNL     1      -2.570   0.279  -0.787  0.00  0.00    -0.327 N 
ATOM      2  C   UNL     1      -1.367  -0.353  -0.563  0.00  0.00    +0.060 A 
ATOM      3  C   UNL     1      -1.318   1.729   0.334  0.00  0.00    +0.000 A 
ATOM      4  C   UNL     1      -0.559   0.541   0.143  0.00  0.00    +0.016 A 
ATOM      5  C   UNL     1      -2.550   1.538  -0.249  0.00  0.00    +0.034 A 
ATOM      6  C   UNL     1       0.742   0.138   0.505  0.00  0.00    +0.038 C 
ATOM      7  C   UNL     1      -0.938  -1.634  -0.927  0.00  0.00    +0.020 C 
ATOM      8  C   UNL     1      -3.712   2.448  -0.340  0.00  0.00    +0.050 C 
ATOM      9  C   UNL     1       1.185  -1.140   0.148  0.00  0.00    +0.139 C 
ATOM     10  C   UNL     1       0.356  -2.011  -0.557  0.00  0.00    +0.038 C 
ENDROOT
BRANCH   9  11
ATOM     11  O   UNL     1       2.442  -1.536   0.492  0.00  0.00    -0.475 OA
BRANCH  11  12
ATOM     12  C   UNL     1       3.437  -0.519   0.591  0.00  0.00    +0.206 C 
BRANCH  12  13
ATOM     13  C   UNL     1       4.793  -1.128   0.265  0.00  0.00    +0.060 C 
BRANCH  13  14
ATOM     14  C   UNL     1       5.919  -0.107   0.326  0.00  0.00    +0.119 C 
BRANCH  14  15
ATOM     15  P   UNL     1       7.553  -0.812   0.009  0.00  0.00    +0.337 P 
ATOM     16  O   UNL     1       7.942  -1.874   0.977  0.00  0.00    -0.258 OA
BRANCH  15  17
ATOM     17  O   UNL     1       7.445  -1.260  -1.533  0.00  0.00    -0.324 OA
ATOM     18  H   UNL     1       8.284  -1.659  -1.813  0.00  0.00    +0.220 HD
ENDBRANCH  15  17
BRANCH  15  19
ATOM     19  O   UNL     1       8.493   0.494  -0.029  0.00  0.00    -0.324 OA
ATOM     20  H   UNL     1       9.410   0.228  -0.196  0.00  0.00    +0.220 HD
ENDBRANCH  15  19
ENDBRANCH  14  15
ENDBRANCH  13  14
ENDBRANCH  12  13
ENDBRANCH  11  12
ENDBRANCH   9  11
BRANCH   1  21
ATOM     21  C   UNL     1      -3.693  -0.305  -1.492  0.00  0.00    +0.132 C 
BRANCH  21  22
ATOM     22  C   UNL     1      -4.612  -1.036  -0.551  0.00  0.00    +0.000 C 
ATOM     23  C   UNL     1      -5.663  -0.354   0.045  0.00  0.00    -0.002 C 
ATOM     24  C   UNL     1      -4.396  -2.383  -0.293  0.00  0.00    -0.002 C 
ATOM     25  C   UNL     1      -6.516  -1.031   0.917  0.00  0.00    -0.000 C 
ATOM     26  C   UNL     1      -5.249  -3.060   0.579  0.00  0.00    -0.000 C 
ATOM     27  C   UNL     1      -6.308  -2.385   1.184  0.00  0.00    -0.000 C 
ENDBRANCH  21  22
ENDBRANCH   1  21
BRANCH   3  28
ATOM     28  C   UNL     1      -0.867   2.951   1.033  0.00  0.00    +0.112 C 
BRANCH  28  31
ATOM     29  O   UNL     1      -0.091   3.798  -1.107  0.00  0.00    -0.275 OA
ATOM     30  N   UNL     1       0.292   5.059   0.776  0.00  0.00    -0.329 N 
ATOM     31  C   UNL     1      -0.190   3.953   0.107  0.00  0.00    +0.224 C 
ATOM     32  H   UNL     1       0.750   5.774   0.278  0.00  0.00    +0.145 HD
ATOM     33  H   UNL     1       0.179   5.132   1.751  0.00  0.00    +0.145 HD
ENDBRANCH  28  31
ENDBRANCH   3  28
TORSDOF 11
