REMARK  Name = 4324
REMARK  11 active torsions:
REMARK  status: ('A' for Active; 'I' for Inactive)
REMARK    1  A    between atoms: C_2  and  C_10
REMARK    2  A    between atoms: C_3  and  C_21
REMARK    3  A    between atoms: C_4  and  O_8
REMARK    4  A    between atoms: C_10  and  N_11
REMARK    5  A    between atoms: N_11  and  C_14
REMARK    6  A    between atoms: C_14  and  C_18
REMARK    7  A    between atoms: C_18  and  O_19
REMARK    8  A    between atoms: C_21  and  O_22
REMARK    9  A    between atoms: O_22  and  P_23
REMARK   10  A    between atoms: P_23  and  O_25
REMARK   11  A    between atoms: P_23  and  O_27
REMARK                            x       y       z     vdW  Elec       q    Type
REMARK                         _______ _______ _______ _____ _____    ______ ____
ROOT
ATOM      1  N   UNL     1       3.643   1.308   0.525  0.00  0.00    -0.245 NA
ATOM      2  C   UNL     1       1.375  -0.188  -0.134  0.00  0.00    -0.009 C 
ATOM      3  C   UNL     1       1.238   1.069   0.445  0.00  0.00    +0.024 C 
ATOM      4  C   UNL     1       2.645  -0.698  -0.383  0.00  0.00    +0.141 C 
ATOM      5  C   UNL     1       3.736   0.083  -0.038  0.00  0.00    +0.092 C 
ATOM      6  C   UNL     1       2.393   1.771   0.752  0.00  0.00    +0.096 C 
ATOM      7  C   UNL     1       5.122  -0.418  -0.283  0.00  0.00    +0.055 C 
ENDROOT
BRANCH   4   8
ATOM      8  O   UNL     1       2.808  -1.924  -0.946  0.00  0.00    -0.505 OA
ATOM      9  H   UNL     1       2.059  -2.439  -1.173  0.00  0.00    +0.292 HD
ENDBRANCH   4   8
BRANCH   2  10
ATOM     10  C   UNL     1       0.165  -0.991  -0.487  0.00  0.00    -0.050 C 
BRANCH  10  11
ATOM     11  N   UNL     1      -0.269  -1.853   0.612  0.00  0.00    +0.396 N 
ATOM     12  H   UNL     1       0.499  -2.475   0.866  0.00  0.00    -0.083 HD
ATOM     13  H   UNL     1      -0.533  -1.257   1.397  0.00  0.00    -0.083 HD
BRANCH  11  14
ATOM     14  C   UNL     1      -1.441  -2.668   0.239  0.00  0.00    +0.046 C 
ATOM     15  C   UNL     1      -1.240  -3.952  -0.499  0.00  0.00    -0.011 C 
ATOM     16  C   UNL     1      -1.685  -3.968   0.934  0.00  0.00    -0.011 C 
BRANCH  14  18
ATOM     17  O   UNL     1      -2.834  -1.482  -1.253  0.00  0.00    -0.253 OA
ATOM     18  C   UNL     1      -2.575  -1.804  -0.104  0.00  0.00    +0.295 C 
BRANCH  18  19
ATOM     19  O   UNL     1      -3.280  -1.421   0.988  0.00  0.00    -0.482 OA
ATOM     20  H   UNL     1      -3.019  -1.711   1.840  0.00  0.00    +0.295 HD
ENDBRANCH  18  19
ENDBRANCH  14  18
ENDBRANCH  11  14
ENDBRANCH  10  11
ENDBRANCH   2  10
BRANCH   3  21
ATOM     21  C   UNL     1      -0.096   1.665   0.734  0.00  0.00    +0.181 C 
BRANCH  21  22
ATOM     22  O   UNL     1      -0.535   2.414  -0.394  0.00  0.00    -0.268 OA
BRANCH  22  23
ATOM     23  P   UNL     1      -1.968   3.156  -0.310  0.00  0.00    +0.473 P 
ATOM     24  O   UNL     1      -2.360   3.924  -1.538  0.00  0.00    -0.227 OA
BRANCH  23  25
ATOM     25  O   UNL     1      -2.970   1.951   0.091  0.00  0.00    -0.303 OA
ATOM     26  H   UNL     1      -2.643   1.511   0.891  0.00  0.00    +0.222 HD
ENDBRANCH  23  25
BRANCH  23  27
ATOM     27  O   UNL     1      -1.872   4.027   1.049  0.00  0.00    -0.303 OA
ATOM     28  H   UNL     1      -1.615   3.450   1.785  0.00  0.00    +0.222 HD
ENDBRANCH  23  27
ENDBRANCH  22  23
ENDBRANCH  21  22
ENDBRANCH   3  21
TORSDOF 11
