REMARK  Name = 1667
REMARK  7 active torsions:
REMARK  status: ('A' for Active; 'I' for Inactive)
REMARK    1  A    between atoms: C_4  and  N_13
REMARK    2  A    between atoms: C_7  and  C_16
REMARK    3  A    between atoms: C_8  and  C_21
REMARK    4  A    between atoms: C_16  and  C_17
REMARK    5  A    between atoms: C_17  and  C_18
REMARK    6  A    between atoms: C_18  and  O_19
REMARK    7  A    between atoms: C_21  and  O_22
REMARK                            x       y       z     vdW  Elec       q    Type
REMARK                         _______ _______ _______ _____ _____    ______ ____
ROOT
ATOM      1  O   UNL     1      -1.832   2.267  -0.354  0.00  0.00    -0.285 OA
ATOM      2  O   UNL     1      -1.267  -3.058   0.371  0.00  0.00    -0.285 OA
ATOM      3  N   UNL     1       1.054  -1.178   0.503  0.00  0.00    -0.326 N 
ATOM      4  C   UNL     1      -2.850   0.099  -0.252  0.00  0.00    +0.091 C 
ATOM      5  C   UNL     1      -0.407   0.447   0.084  0.00  0.00    +0.059 A 
ATOM      6  C   UNL     1      -0.268  -0.912   0.268  0.00  0.00    +0.102 A 
ATOM      7  C   UNL     1       1.765  -0.005   0.472  0.00  0.00    +0.036 A 
ATOM      8  C   UNL     1       0.882   1.022   0.214  0.00  0.00    +0.023 A 
ATOM      9  C   UNL     1      -1.687   1.061  -0.187  0.00  0.00    +0.210 C 
ATOM     10  C   UNL     1      -2.684  -1.226  -0.068  0.00  0.00    +0.061 C 
ATOM     11  C   UNL     1      -1.355  -1.845   0.212  0.00  0.00    +0.213 C 
ATOM     12  C   UNL     1       1.626  -2.485   0.747  0.00  0.00    +0.130 C 
ENDROOT
BRANCH   4  13
ATOM     13  N   UNL     1      -4.063   0.675  -0.509  0.00  0.00    -0.301 N 
ATOM     14  C   UNL     1      -5.050  -0.127  -1.226  0.00  0.00    +0.112 C 
ATOM     15  C   UNL     1      -5.218   0.167   0.227  0.00  0.00    +0.112 C 
ENDBRANCH   4  13
BRANCH   7  16
ATOM     16  C   UNL     1       3.227   0.031   0.692  0.00  0.00    +0.046 C 
BRANCH  16  17
ATOM     17  C   UNL     1       4.025  -0.121  -0.616  0.00  0.00    +0.038 C 
BRANCH  17  18
ATOM     18  C   UNL     1       5.529  -0.137  -0.386  0.00  0.00    +0.138 C 
BRANCH  18  19
ATOM     19  O   UNL     1       6.185  -0.265  -1.640  0.00  0.00    -0.382 OA
ATOM     20  H   UNL     1       7.145  -0.276  -1.503  0.00  0.00    +0.210 HD
ENDBRANCH  18  19
ENDBRANCH  17  18
ENDBRANCH  16  17
ENDBRANCH   7  16
BRANCH   8  21
ATOM     21  C   UNL     1       1.229   2.454   0.096  0.00  0.00    +0.165 C 
BRANCH  21  22
ATOM     22  O   UNL     1       1.157   3.136   1.351  0.00  0.00    -0.377 OA
ATOM     23  H   UNL     1       1.392   4.069   1.225  0.00  0.00    +0.211 HD
ENDBRANCH  21  22
ENDBRANCH   8  21
TORSDOF 7
