REMARK  Name = 446144
REMARK  5 active torsions:
REMARK  status: ('A' for Active; 'I' for Inactive)
REMARK    1  A    between atoms: C_2  and  O_7
REMARK    2  A    between atoms: C_3  and  O_9
REMARK    3  A    between atoms: C_4  and  O_11
REMARK    4  A    between atoms: C_6  and  C_14
REMARK    5  A    between atoms: C_14  and  O_15
REMARK                            x       y       z     vdW  Elec       q    Type
REMARK                         _______ _______ _______ _____ _____    ______ ____
ROOT
ATOM      1  O   UNL     1       0.278  -1.189  -0.069  0.00  0.00    -0.444 OA
ATOM      2  C   UNL     1      -1.883  -0.021  -0.092  0.00  0.00    +0.212 C 
ATOM      3  C   UNL     1      -1.215   1.272  -0.563  0.00  0.00    +0.169 C 
ATOM      4  C   UNL     1      -1.064  -1.220  -0.577  0.00  0.00    +0.315 C 
ATOM      5  C   UNL     1       0.271   1.208  -0.367  0.00  0.00    +0.049 C 
ATOM      6  C   UNL     1       0.893   0.042  -0.130  0.00  0.00    +0.214 C 
ENDROOT
BRANCH   2   7
ATOM      7  O   UNL     1      -1.940  -0.037   1.338  0.00  0.00    -0.376 OA
ATOM      8  H   UNL     1      -2.458   0.721   1.650  0.00  0.00    +0.211 HD
ENDBRANCH   2   7
BRANCH   3   9
ATOM      9  O   UNL     1      -1.770   2.380   0.135  0.00  0.00    -0.377 OA
ATOM     10  H   UNL     1      -2.729   2.403  -0.005  0.00  0.00    +0.211 HD
ENDBRANCH   3   9
BRANCH   4  11
ATOM     11  O   UNL     1      -1.723  -2.413  -0.159  0.00  0.00    -0.348 OA
ATOM     12  H   UNL     1      -1.217  -3.184  -0.459  0.00  0.00    +0.214 HD
ENDBRANCH   4  11
BRANCH   6  14
ATOM     13  O   UNL     1       3.020   1.085   0.077  0.00  0.00    -0.242 OA
ATOM     14  C   UNL     1       2.340   0.073   0.092  0.00  0.00    +0.372 C 
BRANCH  14  15
ATOM     15  O   UNL     1       2.793  -1.179   0.313  0.00  0.00    -0.475 OA
ATOM     16  H   UNL     1       2.196  -1.901   0.307  0.00  0.00    +0.296 HD
ENDBRANCH  14  15
ENDBRANCH   6  14
TORSDOF 5
