REMARK  Name = 51683
REMARK  3 active torsions:
REMARK  status: ('A' for Active; 'I' for Inactive)
REMARK    1  A    between atoms: C_3  and  O_11
REMARK    2  A    between atoms: C_4  and  O_13
REMARK    3  A    between atoms: C_5  and  O_15
REMARK                            x       y       z     vdW  Elec       q    Type
REMARK                         _______ _______ _______ _____ _____    ______ ____
ROOT
ATOM      1  N   UNL     1       0.033   0.995   0.169  0.00  0.00    +0.393 N 
ATOM      2  C   UNL     1      -0.186  -0.313  -0.463  0.00  0.00    -0.001 C 
ATOM      3  C   UNL     1       1.171  -0.971  -0.232  0.00  0.00    +0.119 C 
ATOM      4  C   UNL     1      -1.407  -0.994   0.149  0.00  0.00    +0.094 C 
ATOM      5  C   UNL     1       2.132   0.177  -0.557  0.00  0.00    +0.115 C 
ATOM      6  C   UNL     1       1.341   1.464  -0.285  0.00  0.00    -0.045 C 
ATOM      7  C   UNL     1      -1.072   1.914  -0.074  0.00  0.00    -0.077 C 
ATOM      8  C   UNL     1      -2.635  -0.092  -0.026  0.00  0.00    +0.025 C 
ATOM      9  C   UNL     1      -2.366   1.321   0.497  0.00  0.00    -0.020 C 
ATOM     10  H   UNL     1       0.046   0.925   1.186  0.00  0.00    -0.079 HD
ENDROOT
BRANCH   3  11
ATOM     11  O   UNL     1       1.298  -1.390   1.121  0.00  0.00    -0.384 OA
ATOM     12  H   UNL     1       0.679  -2.116   1.295  0.00  0.00    +0.210 HD
ENDBRANCH   3  11
BRANCH   4  13
ATOM     13  O   UNL     1      -1.627  -2.235  -0.511  0.00  0.00    -0.386 OA
ATOM     14  H   UNL     1      -0.849  -2.803  -0.398  0.00  0.00    +0.210 HD
ENDBRANCH   4  13
BRANCH   5  15
ATOM     15  O   UNL     1       3.319   0.124   0.211  0.00  0.00    -0.384 OA
ATOM     16  H   UNL     1       3.793  -0.700   0.016  0.00  0.00    +0.210 HD
ENDBRANCH   5  15
TORSDOF 3
