REMARK  Name = 448219
REMARK  10 active torsions:
REMARK  status: ('A' for Active; 'I' for Inactive)
REMARK    1  A    between atoms: C_1  and  O_2
REMARK    2  A    between atoms: C_1  and  O_4
REMARK    3  A    between atoms: C_1  and  C_6
REMARK    4  A    between atoms: C_1  and  C_13
REMARK    5  A    between atoms: C_6  and  N_7
REMARK    6  A    between atoms: N_7  and  C_10
REMARK    7  A    between atoms: C_13  and  N_14
REMARK    8  A    between atoms: C_13  and  C_18
REMARK    9  A    between atoms: C_18  and  C_19
REMARK   10  A    between atoms: C_19  and  C_20
REMARK                            x       y       z     vdW  Elec       q    Type
REMARK                         _______ _______ _______ _____ _____    ______ ____
ROOT
ATOM      1  C   UNL     1       0.208   1.333  -0.177  0.00  0.00    +0.142 C 
ENDROOT
BRANCH   1   2
ATOM      2  O   UNL     1       0.217   1.330  -1.610  0.00  0.00    -0.367 OA
ATOM      3  H   UNL     1       0.400   0.538  -2.076  0.00  0.00    +0.213 HD
ENDBRANCH   1   2
BRANCH   1   4
ATOM      4  O   UNL     1      -0.095   2.656   0.281  0.00  0.00    -0.367 OA
ATOM      5  H   UNL     1      -0.141   2.834   1.200  0.00  0.00    +0.213 HD
ENDBRANCH   1   4
BRANCH   1   6
ATOM      6  C   UNL     1       1.611   0.942   0.339  0.00  0.00    -0.027 C 
BRANCH   6   7
ATOM      7  N   UNL     1       2.032  -0.387  -0.090  0.00  0.00    +0.388 N 
ATOM      8  H   UNL     1       1.353  -1.072   0.243  0.00  0.00    -0.084 HD
ATOM      9  H   UNL     1       2.085  -0.388  -1.109  0.00  0.00    -0.084 HD
BRANCH   7  10
ATOM     10  C   UNL     1       3.365  -0.742   0.438  0.00  0.00    -0.062 C 
ATOM     11  C   UNL     1       3.974  -2.058   0.078  0.00  0.00    -0.023 C 
ATOM     12  C   UNL     1       4.537  -0.788  -0.489  0.00  0.00    -0.023 C 
ENDBRANCH   7  10
ENDBRANCH   6   7
ENDBRANCH   1   6
BRANCH   1  13
ATOM     13  C   UNL     1      -0.945   0.390   0.276  0.00  0.00    -0.016 C 
BRANCH  13  14
ATOM     14  N   UNL     1      -1.026   0.294   1.737  0.00  0.00    +0.385 N 
ATOM     15  H   UNL     1      -0.125  -0.004   2.109  0.00  0.00    -0.089 HD
ATOM     16  H   UNL     1      -1.742  -0.385   1.994  0.00  0.00    -0.089 HD
ATOM     17  H   UNL     1      -1.268   1.206   2.124  0.00  0.00    -0.089 HD
ENDBRANCH  13  14
BRANCH  13  18
ATOM     18  C   UNL     1      -2.318   0.844  -0.278  0.00  0.00    -0.017 C 
BRANCH  18  19
ATOM     19  C   UNL     1      -3.510  -0.052   0.095  0.00  0.00    -0.002 C 
BRANCH  19  20
ATOM     20  C   UNL     1      -3.402  -1.474  -0.457  0.00  0.00    -0.000 C 
ATOM     21  C   UNL     1      -4.648  -2.288  -0.142  0.00  0.00    -0.000 C 
ENDBRANCH  19  20
ENDBRANCH  18  19
ENDBRANCH  13  18
ENDBRANCH   1  13
TORSDOF 10
