REMARK  Name = 84682
REMARK  2 active torsions:
REMARK  status: ('A' for Active; 'I' for Inactive)
REMARK    1  A    between atoms: C_1  and  O_3
REMARK    2  A    between atoms: C_1  and  C_5
REMARK                            x       y       z     vdW  Elec       q    Type
REMARK                         _______ _______ _______ _____ _____    ______ ____
ROOT
ATOM      1  C   UNL     1      -0.482  -0.020   0.343  0.00  0.00    +0.111 C 
ATOM      2  C   UNL     1      -1.777   0.682  -0.042  0.00  0.00    +0.032 C 
ENDROOT
BRANCH   1   3
ATOM      3  O   UNL     1      -0.518  -1.355  -0.152  0.00  0.00    -0.384 OA
ATOM      4  H   UNL     1       0.304  -1.812   0.088  0.00  0.00    +0.210 HD
ENDBRANCH   1   3
BRANCH   1   5
ATOM      5  C   UNL     1       0.735   0.700  -0.244  0.00  0.00    +0.029 C 
ATOM      6  C   UNL     1       2.041  -0.006   0.094  0.00  0.00    +0.003 C 
ENDBRANCH   1   5
TORSDOF 2
