REMARK  Name = 7054
REMARK  0 active torsions:
REMARK  status: ('A' for Active; 'I' for Inactive)
REMARK                            x       y       z     vdW  Elec       q    Type
REMARK                         _______ _______ _______ _____ _____    ______ ____
ROOT
ATOM      1  O   UNL     1      -1.783  -1.879   0.000  0.00  0.00    -0.282 OA
ATOM      2  O   UNL     1      -3.100   0.674   0.001  0.00  0.00    -0.266 OA
ATOM      3  N   UNL     1      -0.867   1.466   0.000  0.00  0.00    -0.278 N 
ATOM      4  C   UNL     1       0.232  -0.553   0.000  0.00  0.00    +0.057 C 
ATOM      5  C   UNL     1       0.377   0.831  -0.001  0.00  0.00    +0.054 C 
ATOM      6  C   UNL     1      -1.205  -0.820   0.000  0.00  0.00    +0.250 C 
ATOM      7  C   UNL     1      -1.896   0.541   0.000  0.00  0.00    +0.289 C 
ATOM      8  C   UNL     1       1.307  -1.414   0.000  0.00  0.00    +0.005 C 
ATOM      9  C   UNL     1       1.624   1.419   0.000  0.00  0.00    +0.015 C 
ATOM     10  C   UNL     1       2.577  -0.833   0.001  0.00  0.00    +0.000 C 
ATOM     11  C   UNL     1       2.735   0.569   0.000  0.00  0.00    +0.001 C 
ATOM     12  H   UNL     1      -0.995   2.442   0.000  0.00  0.00    +0.155 HD
ENDROOT
TORSDOF 0
