REMARK  Name = 11987779
REMARK  0 active torsions:
REMARK  status: ('A' for Active; 'I' for Inactive)
REMARK                            x       y       z     vdW  Elec       q    Type
REMARK                         _______ _______ _______ _____ _____    ______ ____
ROOT
ATOM      1  O   UNL     1       0.405   3.003  -0.143  0.00  0.00    -0.294 OA
ATOM      2  N   UNL     1      -2.285   0.676  -0.132  0.00  0.00    +0.397 N 
ATOM      3  N   UNL     1       0.669  -1.534   0.329  0.00  0.00    -0.358 N 
ATOM      4  C   UNL     1      -1.693  -0.553   0.462  0.00  0.00    -0.018 C 
ATOM      5  C   UNL     1      -2.295  -1.798  -0.210  0.00  0.00    -0.015 C 
ATOM      6  C   UNL     1      -0.207  -0.486   0.293  0.00  0.00    +0.017 A 
ATOM      7  C   UNL     1      -3.742   0.706   0.059  0.00  0.00    -0.076 C 
ATOM      8  C   UNL     1      -3.817  -1.809  -0.095  0.00  0.00    -0.004 C 
ATOM      9  C   UNL     1      -4.405  -0.501  -0.605  0.00  0.00    -0.023 C 
ATOM     10  C   UNL     1      -1.673   1.912   0.395  0.00  0.00    -0.006 C 
ATOM     11  C   UNL     1       0.516   0.671   0.105  0.00  0.00    +0.043 A 
ATOM     12  C   UNL     1      -0.179   1.943   0.068  0.00  0.00    +0.153 C 
ATOM     13  C   UNL     1       1.886   0.315  -0.020  0.00  0.00    +0.019 A 
ATOM     14  C   UNL     1       1.954  -1.075   0.124  0.00  0.00    +0.056 A 
ATOM     15  C   UNL     1       3.082   1.030  -0.235  0.00  0.00    +0.002 C 
ATOM     16  C   UNL     1       3.160  -1.782   0.061  0.00  0.00    +0.017 C 
ATOM     17  C   UNL     1       4.294   0.334  -0.301  0.00  0.00    +0.000 C 
ATOM     18  C   UNL     1       4.331  -1.051  -0.155  0.00  0.00    +0.001 C 
ATOM     19  H   UNL     1      -2.084   0.640  -1.132  0.00  0.00    -0.078 HD
ATOM     20  H   UNL     1       0.421  -2.475   0.477  0.00  0.00    +0.166 HD
ENDROOT
TORSDOF 0
