REMARK  Name = 3080775
REMARK  6 active torsions:
REMARK  status: ('A' for Active; 'I' for Inactive)
REMARK    1  A    between atoms: C_1  and  N_2
REMARK    2  A    between atoms: C_1  and  C_7
REMARK    3  A    between atoms: C_1  and  C_10
REMARK    4  A    between atoms: C_7  and  O_8
REMARK    5  A    between atoms: C_10  and  S_11
REMARK    6  A    between atoms: S_11  and  S_12
REMARK                            x       y       z     vdW  Elec       q    Type
REMARK                         _______ _______ _______ _____ _____    ______ ____
ROOT
ATOM      1  C   UNK     1      -0.679   0.658  -0.388  0.00  0.00    +0.047 C 
ENDROOT
BRANCH   1   2
ATOM      2  N   UNK     1      -1.513   1.819  -0.707  0.00  0.00    +0.389 N 
ATOM      3  H   UNK     1      -0.916   2.614  -0.935  0.00  0.00    -0.088 HD
ATOM      4  H   UNK     1      -2.095   2.051   0.098  0.00  0.00    -0.088 HD
ATOM      5  H   UNK     1      -2.108   1.601  -1.506  0.00  0.00    -0.088 HD
ENDBRANCH   1   2
BRANCH   1   7
ATOM      6  O   UNK     1      -2.370  -0.492   0.903  0.00  0.00    -0.253 OA
ATOM      7  C   UNK     1      -1.608  -0.495  -0.057  0.00  0.00    +0.294 C 
BRANCH   7   8
ATOM      8  O   UNK     1      -1.494  -1.550  -0.902  0.00  0.00    -0.482 OA
ATOM      9  H   UNK     1      -0.899  -1.510  -1.624  0.00  0.00    +0.295 HD
ENDBRANCH   7   8
ENDBRANCH   1   7
BRANCH   1  10
ATOM     10  C   UNK     1       0.264   0.993   0.769  0.00  0.00    +0.058 C 
BRANCH  10  11
ATOM     11  S   UNK     1       1.307  -0.427   1.230  0.00  0.00    -0.084 S 
BRANCH  11  12
ATOM     12  S   UNK     1       2.316  -0.777  -0.525  0.00  0.00    -0.081 S 
ATOM     13  C   UNK     1       3.778   0.269  -0.325  0.00  0.00    +0.081 C 
ENDBRANCH  11  12
ENDBRANCH  10  11
ENDBRANCH   1  10
TORSDOF 6
