REMARK  Name = 446276
REMARK  7 active torsions:
REMARK  status: ('A' for Active; 'I' for Inactive)
REMARK    1  A    between atoms: N_2  and  C_17
REMARK    2  A    between atoms: C_3  and  C_5
REMARK    3  A    between atoms: C_8  and  S_11
REMARK    4  A    between atoms: S_11  and  N_14
REMARK    5  A    between atoms: C_17  and  C_18
REMARK    6  A    between atoms: C_18  and  C_20
REMARK    7  A    between atoms: C_20  and  N_21
REMARK                            x       y       z     vdW  Elec       q    Type
REMARK                         _______ _______ _______ _____ _____    ______ ____
ROOT
ATOM      1  O   UNL     1      -0.753  -2.275   1.896  0.00  0.00    -0.270 OA
ATOM      2  N   UNL     1      -0.169  -2.285  -0.349  0.00  0.00    -0.301 N 
ATOM      3  C   UNL     1      -0.972  -1.945   0.734  0.00  0.00    +0.246 C 
ATOM      4  H   UNL     1      -0.428  -1.973  -1.245  0.00  0.00    +0.150 HD
ENDROOT
BRANCH   3   5
ATOM      5  C   UNL     1      -2.185  -1.145   0.422  0.00  0.00    +0.053 C 
ATOM      6  C   UNL     1      -3.277  -1.240   1.259  0.00  0.00    +0.006 C 
ATOM      7  C   UNL     1      -2.180  -0.335  -0.694  0.00  0.00    +0.006 C 
ATOM      8  C   UNL     1      -4.437   0.339  -0.156  0.00  0.00    +0.122 C 
ATOM      9  C   UNL     1      -4.416  -0.489   0.967  0.00  0.00    +0.020 C 
ATOM     10  C   UNL     1      -3.318   0.416  -0.986  0.00  0.00    +0.020 C 
BRANCH   8  11
ATOM     11  S   UNL     1      -5.862   1.279  -0.521  0.00  0.00    +0.057 S 
ATOM     12  O   UNL     1      -5.867   1.569  -1.948  0.00  0.00    -0.153 OA
ATOM     13  O   UNL     1      -7.014   0.629   0.088  0.00  0.00    -0.153 OA
BRANCH  11  14
ATOM     14  N   UNL     1      -5.530   2.720   0.334  0.00  0.00    -0.203 NA
ATOM     15  H   UNL     1      -6.300   3.377   0.205  0.00  0.00    +0.144 HD
ATOM     16  H   UNL     1      -4.667   3.134  -0.020  0.00  0.00    +0.144 HD
ENDBRANCH  11  14
ENDBRANCH   8  11
ENDBRANCH   3   5
BRANCH   2  17
ATOM     17  C   UNL     1       1.024  -3.075  -0.212  0.00  0.00    +0.091 C 
BRANCH  17  18
ATOM     18  C   UNL     1       2.290  -2.240   0.038  0.00  0.00    +0.040 C 
ATOM     19  C   UNL     1       3.527  -3.135   0.162  0.00  0.00    +0.004 C 
BRANCH  18  20
ATOM     20  C   UNL     1       2.460  -1.167  -1.055  0.00  0.00    +0.097 C 
BRANCH  20  21
ATOM     21  N   UNL     1       3.591  -0.271  -0.830  0.00  0.00    -0.286 N 
ATOM     22  C   UNL     1       3.536   0.905  -0.131  0.00  0.00    +0.052 C 
ATOM     23  C   UNL     1       4.824   1.444  -0.153  0.00  0.00    +0.015 C 
ATOM     24  C   UNL     1       4.848  -0.506  -1.295  0.00  0.00    +0.065 C 
ATOM     25  C   UNL     1       5.641   0.543  -0.891  0.00  0.00    +0.017 C 
ATOM     26  C   UNL     1       2.465   1.534   0.515  0.00  0.00    +0.015 C 
ATOM     27  C   UNL     1       5.057   2.671   0.500  0.00  0.00    +0.001 C 
ATOM     28  C   UNL     1       2.720   2.749   1.156  0.00  0.00    +0.001 C 
ATOM     29  C   UNL     1       3.996   3.311   1.150  0.00  0.00    +0.000 C 
ENDBRANCH  20  21
ENDBRANCH  18  20
ENDBRANCH  17  18
ENDBRANCH   2  17
TORSDOF 7
