REMARK  Name = 445504
REMARK  4 active torsions:
REMARK  status: ('A' for Active; 'I' for Inactive)
REMARK    1  A    between atoms: S_1  and  C_4
REMARK    2  A    between atoms: S_1  and  N_11
REMARK    3  A    between atoms: C_12  and  C_17
REMARK    4  A    between atoms: C_17  and  O_18
REMARK                            x       y       z     vdW  Elec       q    Type
REMARK                         _______ _______ _______ _____ _____    ______ ____
ROOT
ATOM      1  S   UNL     1       0.324   1.614  -0.108  0.00  0.00    +0.064 S 
ATOM      2  O   UNL     1       0.727   1.874  -1.478  0.00  0.00    -0.153 OA
ATOM      3  O   UNL     1       0.165   2.708   0.832  0.00  0.00    -0.153 OA
ENDROOT
BRANCH   1   4
ATOM      4  C   UNL     1      -1.204   0.727  -0.162  0.00  0.00    +0.122 C 
ATOM      5  C   UNL     1      -2.059   0.788   0.924  0.00  0.00    +0.020 C 
ATOM      6  C   UNL     1      -1.517  -0.012  -1.290  0.00  0.00    +0.020 C 
ATOM      7  C   UNL     1      -3.265   0.088   0.883  0.00  0.00    -0.003 C 
ATOM      8  C   UNL     1      -2.723  -0.712  -1.331  0.00  0.00    -0.003 C 
ATOM      9  C   UNL     1      -3.597  -0.662  -0.245  0.00  0.00    -0.022 C 
ATOM     10  C   UNL     1      -4.886  -1.410  -0.290  0.00  0.00    +0.031 C 
ENDBRANCH   1   4
BRANCH   1  11
ATOM     11  N   UNL     1       1.343   0.432   0.568  0.00  0.00    -0.146 NA
ATOM     12  C   UNL     1       1.745  -0.718  -0.287  0.00  0.00    +0.178 C 
ATOM     13  C   UNL     1       1.640  -1.952   0.602  0.00  0.00    +0.031 C 
ATOM     14  C   UNL     1       0.988  -0.087   1.918  0.00  0.00    +0.096 C 
ATOM     15  C   UNL     1       1.748  -1.399   2.014  0.00  0.00    +0.021 C 
BRANCH  12  17
ATOM     16  O   UNL     1       3.780   0.573  -0.382  0.00  0.00    -0.249 OA
ATOM     17  C   UNL     1       3.150  -0.427  -0.696  0.00  0.00    +0.330 C 
BRANCH  17  18
ATOM     18  O   UNL     1       3.640  -1.425  -1.470  0.00  0.00    -0.479 OA
ATOM     19  H   UNL     1       3.104  -2.166  -1.675  0.00  0.00    +0.295 HD
ENDBRANCH  17  18
ENDBRANCH  12  17
ENDBRANCH   1  11
TORSDOF 4
