REMARK  Name = 3311
REMARK  5 active torsions:
REMARK  status: ('A' for Active; 'I' for Inactive)
REMARK    1  A    between atoms: C_1  and  C_18
REMARK    2  A    between atoms: C_2  and  N_7
REMARK    3  A    between atoms: N_7  and  C_9
REMARK    4  A    between atoms: C_9  and  S_12
REMARK    5  A    between atoms: S_12  and  C_13
REMARK                            x       y       z     vdW  Elec       q    Type
REMARK                         _______ _______ _______ _____ _____    ______ ____
ROOT
ATOM      1  C   UNL     1       1.938   0.129   0.047  0.00  0.00    +0.072 C 
ATOM      2  C   UNL     1      -0.645   1.156   0.276  0.00  0.00    +0.073 C 
ATOM      3  C   UNL     1       1.408   0.916  -0.975  0.00  0.00    +0.005 C 
ATOM      4  C   UNL     1       1.177  -0.145   1.183  0.00  0.00    +0.005 C 
ATOM      5  C   UNL     1       0.116   1.430  -0.861  0.00  0.00    +0.017 C 
ATOM      6  C   UNL     1      -0.115   0.369   1.298  0.00  0.00    +0.017 C 
ENDROOT
BRANCH   1  10
ATOM      7  F   UNL     1       3.915  -0.057  -1.239  0.00  0.00    -0.166 F 
ATOM      8  F   UNL     1       4.136   0.001   0.923  0.00  0.00    -0.166 F 
ATOM      9  F   UNL     1       3.315  -1.775  -0.038  0.00  0.00    -0.166 F 
ATOM     10  C   UNL     1       3.320  -0.420  -0.075  0.00  0.00    +0.419 C 
ENDBRANCH   1  10
BRANCH   2  11
ATOM     11  N   UNL     1      -1.941   1.671   0.391  0.00  0.00    -0.191 NA
BRANCH  11  13
ATOM     12  N   UNL     1      -4.276   1.253  -0.064  0.00  0.00    -0.380 N 
ATOM     13  C   UNL     1      -2.934   0.964  -0.063  0.00  0.00    +0.150 C 
ATOM     14  H   UNL     1      -4.917   0.613  -0.447  0.00  0.00    +0.158 HD
ATOM     15  H   UNL     1      -4.596   2.102   0.319  0.00  0.00    +0.158 HD
BRANCH  13  16
ATOM     16  S   UNL     1      -2.570  -0.602  -0.816  0.00  0.00    -0.081 S 
BRANCH  16  17
ATOM     17  C   UNL     1      -3.495  -1.730   0.249  0.00  0.00    +0.065 C 
ATOM     18  C   UNL     1      -3.350  -3.160  -0.237  0.00  0.00    +0.013 C 
ENDBRANCH  16  17
ENDBRANCH  13  16
ENDBRANCH  11  13
ENDBRANCH   2  11
TORSDOF 5
