REMARK  Name = 168131
REMARK  0 active torsions:
REMARK  status: ('A' for Active; 'I' for Inactive)
REMARK                            x       y       z     vdW  Elec       q    Type
REMARK                         _______ _______ _______ _____ _____    ______ ____
ROOT
ATOM      1  N   UNL     1      -1.407  -1.610   0.000  0.00  0.00    -0.298 N 
ATOM      2  N   UNL     1       1.358  -1.758   0.000  0.00  0.00    -0.247 NA
ATOM      3  C   UNL     1      -0.665  -0.482   0.000  0.00  0.00    +0.136 C 
ATOM      4  C   UNL     1      -1.342   0.762   0.000  0.00  0.00    -0.003 C 
ATOM      5  C   UNL     1      -0.592   1.941   0.000  0.00  0.00    -0.028 C 
ATOM      6  C   UNL     1       1.464   0.645   0.000  0.00  0.00    +0.011 C 
ATOM      7  C   UNL     1       0.733  -0.562   0.000  0.00  0.00    +0.081 C 
ATOM      8  C   UNL     1       0.799   1.882   0.000  0.00  0.00    -0.025 C 
ATOM      9  C   UNL     1      -2.743   0.773   0.000  0.00  0.00    -0.006 C 
ATOM     10  C   UNL     1      -3.451  -0.423   0.000  0.00  0.00    -0.008 C 
ATOM     11  C   UNL     1      -2.746  -1.613   0.000  0.00  0.00    +0.057 C 
ATOM     12  C   UNL     1       2.863   0.575   0.000  0.00  0.00    -0.002 C 
ATOM     13  C   UNL     1      -1.261   3.283   0.000  0.00  0.00    +0.030 C 
ATOM     14  C   UNL     1       1.569   3.170   0.000  0.00  0.00    +0.031 C 
ATOM     15  C   UNL     1       3.503  -0.656   0.000  0.00  0.00    -0.003 C 
ATOM     16  C   UNL     1      -0.838  -2.966   0.000  0.00  0.00    +0.113 C 
ATOM     17  C   UNL     1       2.710  -1.784   0.000  0.00  0.00    +0.094 C 
ATOM     18  C   UNL     1      -4.940  -0.425   0.000  0.00  0.00    +0.032 C 
ATOM     19  C   UNL     1       4.986  -0.755   0.000  0.00  0.00    +0.033 C 
ENDROOT
TORSDOF 0
