REMARK  Name = 4362
REMARK  1 active torsions:
REMARK  status: ('A' for Active; 'I' for Inactive)
REMARK    1  A    between atoms: N_3  and  C_8
REMARK                            x       y       z     vdW  Elec       q    Type
REMARK                         _______ _______ _______ _____ _____    ______ ____
ROOT
ATOM      1  O   UNL     1      -0.100  -2.302   0.133  0.00  0.00    -0.269 OA
ATOM      2  O   UNL     1      -0.113   2.302   0.133  0.00  0.00    -0.269 OA
ATOM      3  N   UNL     1       0.327   0.001   0.234  0.00  0.00    -0.223 N 
ATOM      4  C   UNL     1      -0.427  -1.129   0.064  0.00  0.00    +0.255 C 
ATOM      5  C   UNL     1      -0.432   1.127   0.064  0.00  0.00    +0.255 C 
ATOM      6  C   UNL     1      -1.792  -0.671  -0.240  0.00  0.00    +0.063 C 
ATOM      7  C   UNL     1      -1.794   0.663  -0.240  0.00  0.00    +0.063 C 
ENDROOT
BRANCH   3   8
ATOM      8  C   UNL     1       1.741   0.004   0.552  0.00  0.00    +0.102 C 
ATOM      9  C   UNL     1       2.591   0.005  -0.701  0.00  0.00    +0.024 C 
ENDBRANCH   3   8
TORSDOF 1
