REMARK  Name = 15227560
REMARK  6 active torsions:
REMARK  status: ('A' for Active; 'I' for Inactive)
REMARK    1  A    between atoms: C_1  and  N_2
REMARK    2  A    between atoms: C_1  and  C_7
REMARK    3  A    between atoms: C_1  and  C_10
REMARK    4  A    between atoms: C_7  and  O_8
REMARK    5  A    between atoms: C_10  and  C_11
REMARK    6  A    between atoms: C_11  and  C_14
REMARK                            x       y       z     vdW  Elec       q    Type
REMARK                         _______ _______ _______ _____ _____    ______ ____
ROOT
ATOM      1  C   UNK     1       1.011  -0.352  -0.364  0.00  0.00    +0.036 C 
ENDROOT
BRANCH   1   2
ATOM      2  N   UNK     1       1.066  -1.766   0.016  0.00  0.00    +0.389 N 
ATOM      3  H   UNK     1       0.192  -2.223  -0.245  0.00  0.00    -0.088 HD
ATOM      4  H   UNK     1       1.200  -1.842   1.025  0.00  0.00    -0.088 HD
ATOM      5  H   UNK     1       1.843  -2.217  -0.466  0.00  0.00    -0.088 HD
ENDBRANCH   1   2
BRANCH   1   7
ATOM      6  O   UNK     1       3.229  -0.312   0.653  0.00  0.00    -0.253 OA
ATOM      7  C   UNK     1       2.331   0.261   0.051  0.00  0.00    +0.293 C 
BRANCH   7   8
ATOM      8  O   UNK     1       2.411   1.552  -0.361  0.00  0.00    -0.482 OA
ATOM      9  H   UNK     1       1.692   1.942  -0.819  0.00  0.00    +0.295 HD
ENDBRANCH   7   8
ENDBRANCH   1   7
BRANCH   1  10
ATOM     10  C   UNK     1      -0.166   0.325   0.353  0.00  0.00    -0.008 C 
BRANCH  10  11
ATOM     11  C   UNK     1      -1.562  -0.200  -0.039  0.00  0.00    +0.034 C 
ATOM     12  C   UNK     1      -1.833  -0.071  -1.540  0.00  0.00    +0.003 C 
BRANCH  11  14
ATOM     13  F   UNK     1      -3.852   0.006   0.484  0.00  0.00    -0.234 F 
ATOM     14  C   UNK     1      -2.636   0.557   0.747  0.00  0.00    +0.193 C 
ENDBRANCH  11  14
ENDBRANCH  10  11
ENDBRANCH   1  10
TORSDOF 6
