REMARK  Name = 448475
REMARK  3 active torsions:
REMARK  status: ('A' for Active; 'I' for Inactive)
REMARK    1  A    between atoms: C_4  and  C_13
REMARK    2  A    between atoms: C_13  and  C_16
REMARK    3  A    between atoms: N_15  and  O_18
REMARK                            x       y       z     vdW  Elec       q    Type
REMARK                         _______ _______ _______ _____ _____    ______ ____
ROOT
ATOM      1  S   UNL     1      -0.604  -1.444  -1.481  0.00  0.00    -0.103 S 
ATOM      2  O   UNL     1       1.396   1.820  -1.350  0.00  0.00    -0.274 OA
ATOM      3  N   UNL     1      -0.626   1.443  -0.371  0.00  0.00    -0.283 N 
ATOM      4  C   UNL     1       0.837  -0.469  -0.985  0.00  0.00    +0.137 C 
ATOM      5  C   UNL     1       0.545   1.017  -0.955  0.00  0.00    +0.237 C 
ATOM      6  C   UNL     1      -1.834  -0.694  -0.439  0.00  0.00    +0.039 C 
ATOM      7  C   UNL     1      -1.726   0.637  -0.024  0.00  0.00    +0.056 C 
ATOM      8  C   UNL     1      -2.971  -1.434  -0.089  0.00  0.00    +0.007 C 
ATOM      9  C   UNL     1      -2.758   1.222   0.721  0.00  0.00    +0.015 C 
ATOM     10  C   UNL     1      -3.987  -0.853   0.671  0.00  0.00    +0.001 C 
ATOM     11  C   UNL     1      -3.882   0.475   1.073  0.00  0.00    +0.001 C 
ATOM     12  H   UNL     1      -0.702   2.405  -0.177  0.00  0.00    +0.155 HD
ENDROOT
BRANCH   4  13
ATOM     13  C   UNL     1       1.388  -0.938   0.358  0.00  0.00    +0.107 C 
BRANCH  13  16
ATOM     14  O   UNL     1       2.740   0.798   1.362  0.00  0.00    -0.273 OA
ATOM     15  N   UNL     1       3.772  -0.944   0.249  0.00  0.00    -0.197 N 
ATOM     16  C   UNL     1       2.685  -0.248   0.721  0.00  0.00    +0.246 C 
ATOM     17  H   UNL     1       3.676  -1.780  -0.261  0.00  0.00    +0.182 HD
BRANCH  15  18
ATOM     18  O   UNL     1       5.025  -0.388   0.539  0.00  0.00    -0.295 OA
ATOM     19  H   UNL     1       5.722  -0.949   0.166  0.00  0.00    +0.241 HD
ENDBRANCH  15  18
ENDBRANCH  13  16
ENDBRANCH   4  13
TORSDOF 3
