REMARK  Name = 448124
REMARK  9 active torsions:
REMARK  status: ('A' for Active; 'I' for Inactive)
REMARK    1  A    between atoms: C_1  and  C_3
REMARK    2  A    between atoms: C_1  and  C_10
REMARK    3  A    between atoms: C_3  and  C_4
REMARK    4  A    between atoms: C_4  and  N_6
REMARK    5  A    between atoms: C_10  and  C_11
REMARK    6  A    between atoms: C_11  and  C_12
REMARK    7  A    between atoms: C_12  and  C_13
REMARK    8  A    between atoms: C_13  and  C_15
REMARK    9  A    between atoms: C_15  and  O_16
REMARK                            x       y       z     vdW  Elec       q    Type
REMARK                         _______ _______ _______ _____ _____    ______ ____
ROOT
ATOM      1  C   UNL     1      -1.633  -0.570   0.205  0.00  0.00    +0.062 C 
ENDROOT
BRANCH   1   3
ATOM      2  O   UNL     1      -2.830   1.467  -0.281  0.00  0.00    -0.298 OA
ATOM      3  C   UNL     1      -2.886   0.279   0.037  0.00  0.00    +0.130 C 
BRANCH   3   4
ATOM      4  C   UNL     1      -4.213  -0.442   0.252  0.00  0.00    -0.006 C 
ATOM      5  C   UNL     1      -4.732  -1.004  -1.064  0.00  0.00    -0.016 C 
BRANCH   4   6
ATOM      6  N   UNL     1      -5.159   0.513   0.824  0.00  0.00    +0.386 N 
ATOM      7  H   UNL     1      -4.788   0.874   1.703  0.00  0.00    -0.089 HD
ATOM      8  H   UNL     1      -6.050   0.047   0.997  0.00  0.00    -0.089 HD
ATOM      9  H   UNL     1      -5.300   1.285   0.172  0.00  0.00    -0.089 HD
ENDBRANCH   4   6
ENDBRANCH   3   4
ENDBRANCH   1   3
BRANCH   1  10
ATOM     10  C   UNL     1      -0.351   0.219  -0.056  0.00  0.00    +0.008 C 
BRANCH  10  11
ATOM     11  C   UNL     1       0.890  -0.649   0.158  0.00  0.00    +0.001 C 
BRANCH  11  12
ATOM     12  C   UNL     1       2.174   0.156  -0.059  0.00  0.00    +0.012 C 
BRANCH  12  13
ATOM     13  C   UNL     1       3.434  -0.676   0.180  0.00  0.00    +0.109 C 
BRANCH  13  15
ATOM     14  O   UNL     1       4.785   1.275  -0.369  0.00  0.00    -0.250 OA
ATOM     15  C   UNL     1       4.714   0.100  -0.036  0.00  0.00    +0.314 C 
BRANCH  15  16
ATOM     16  O   UNL     1       5.808  -0.667   0.209  0.00  0.00    -0.480 OA
ATOM     17  H   UNL     1       5.704  -1.564   0.462  0.00  0.00    +0.295 HD
ENDBRANCH  15  16
ENDBRANCH  13  15
ENDBRANCH  12  13
ENDBRANCH  11  12
ENDBRANCH  10  11
ENDBRANCH   1  10
TORSDOF 9
