REMARK  Name = 5289613
REMARK  4 active torsions:
REMARK  status: ('A' for Active; 'I' for Inactive)
REMARK    1  A    between atoms: C_6  and  C_15
REMARK    2  A    between atoms: C_10  and  O_12
REMARK    3  A    between atoms: C_15  and  O_16
REMARK    4  A    between atoms: O_16  and  C_17
REMARK                            x       y       z     vdW  Elec       q    Type
REMARK                         _______ _______ _______ _____ _____    ______ ____
ROOT
ATOM      1  O   UNL     1       0.579  -1.543   0.247  0.00  0.00    -0.421 OA
ATOM      2  O   UNL     1      -1.656  -1.968   0.466  0.00  0.00    -0.244 OA
ATOM      3  C   UNL     1       1.341   0.748  -0.042  0.00  0.00    +0.035 C 
ATOM      4  C   UNL     1       1.620  -0.610   0.072  0.00  0.00    +0.152 C 
ATOM      5  C   UNL     1      -0.043   1.190   0.023  0.00  0.00    +0.016 C 
ATOM      6  C   UNL     1      -1.028   0.299   0.191  0.00  0.00    +0.151 C 
ATOM      7  C   UNL     1       2.401   1.641  -0.216  0.00  0.00    +0.006 C 
ATOM      8  C   UNL     1       2.924  -1.099   0.017  0.00  0.00    +0.074 C 
ATOM      9  C   UNL     1      -0.755  -1.150   0.314  0.00  0.00    +0.352 C 
ATOM     10  C   UNL     1       3.975  -0.201  -0.156  0.00  0.00    +0.137 C 
ATOM     11  C   UNL     1       3.714   1.166  -0.273  0.00  0.00    +0.037 C 
ENDROOT
BRANCH  10  12
ATOM     12  O   UNL     1       5.256  -0.656  -0.212  0.00  0.00    -0.505 OA
ATOM     13  H   UNL     1       5.432  -1.573  -0.134  0.00  0.00    +0.292 HD
ENDBRANCH  10  12
BRANCH   6  15
ATOM     14  O   UNL     1      -2.627   1.964   0.673  0.00  0.00    -0.245 OA
ATOM     15  C   UNL     1      -2.391   0.843   0.244  0.00  0.00    +0.348 C 
BRANCH  15  16
ATOM     16  O   UNL     1      -3.245  -0.081  -0.244  0.00  0.00    -0.445 OA
BRANCH  16  17
ATOM     17  C   UNL     1      -4.624   0.298  -0.266  0.00  0.00    +0.209 C 
ATOM     18  C   UNL     1      -5.440  -0.842  -0.837  0.00  0.00    +0.051 C 
ENDBRANCH  16  17
ENDBRANCH  15  16
ENDBRANCH   6  15
TORSDOF 4
