REMARK  Name = 4470790
REMARK  5 active torsions:
REMARK  status: ('A' for Active; 'I' for Inactive)
REMARK    1  A    between atoms: C_4  and  C_16
REMARK    2  A    between atoms: C_12  and  O_14
REMARK    3  A    between atoms: C_16  and  O_17
REMARK    4  A    between atoms: O_17  and  C_18
REMARK    5  A    between atoms: C_23  and  N_26
REMARK                            x       y       z     vdW  Elec       q    Type
REMARK                         _______ _______ _______ _____ _____    ______ ____
ROOT
ATOM      1  O   UNL     1      -1.002   1.955  -0.653  0.00  0.00    -0.283 OA
ATOM      2  O   UNL     1      -5.667  -0.560   0.399  0.00  0.00    -0.285 OA
ATOM      3  N   UNL     1      -3.100  -2.056   0.061  0.00  0.00    -0.326 N 
ATOM      4  C   UNL     1      -1.145  -1.082  -0.372  0.00  0.00    +0.038 A 
ATOM      5  C   UNL     1      -2.140  -0.077  -0.277  0.00  0.00    +0.062 A 
ATOM      6  C   UNL     1      -3.337  -0.709  -0.009  0.00  0.00    +0.102 A 
ATOM      7  C   UNL     1      -1.766  -2.294  -0.158  0.00  0.00    +0.037 A 
ATOM      8  C   UNL     1      -2.045   1.359  -0.415  0.00  0.00    +0.231 C 
ATOM      9  C   UNL     1      -4.589  -0.026   0.159  0.00  0.00    +0.215 C 
ATOM     10  C   UNL     1      -1.203  -3.661  -0.143  0.00  0.00    +0.050 C 
ATOM     11  C   UNL     1      -4.090  -3.078   0.326  0.00  0.00    +0.130 C 
ATOM     12  C   UNL     1      -3.349   2.084  -0.241  0.00  0.00    +0.181 C 
ATOM     13  C   UNL     1      -4.508   1.458   0.021  0.00  0.00    +0.084 C 
ENDROOT
BRANCH  12  14
ATOM     14  O   UNL     1      -3.325   3.462  -0.359  0.00  0.00    -0.468 OA
ATOM     15  C   UNL     1      -3.082   4.066   0.895  0.00  0.00    +0.253 C 
ENDBRANCH  12  14
BRANCH   4  16
ATOM     16  C   UNL     1       0.292  -0.880  -0.647  0.00  0.00    +0.233 C 
BRANCH  16  17
ATOM     17  O   UNL     1       1.055  -0.697   0.548  0.00  0.00    -0.471 OA
BRANCH  17  18
ATOM     18  C   UNL     1       2.384  -0.419   0.387  0.00  0.00    +0.139 C 
ATOM     19  C   UNL     1       2.921  -0.328  -0.894  0.00  0.00    +0.039 C 
ATOM     20  C   UNL     1       3.191  -0.228   1.504  0.00  0.00    +0.039 C 
ATOM     21  C   UNL     1       4.277  -0.045  -1.059  0.00  0.00    +0.027 C 
ATOM     22  C   UNL     1       4.547   0.055   1.340  0.00  0.00    +0.027 C 
ATOM     23  C   UNL     1       5.090   0.147   0.058  0.00  0.00    +0.143 C 
BRANCH  23  26
ATOM     24  O   UNL     1       6.938   0.514  -1.271  0.00  0.00    -0.126 OA
ATOM     25  O   UNL     1       7.184   0.605   0.909  0.00  0.00    -0.126 OA
ATOM     26  N   UNL     1       6.470   0.436  -0.109  0.00  0.00    +0.058 N 
ENDBRANCH  23  26
ENDBRANCH  17  18
ENDBRANCH  16  17
ENDBRANCH   4  16
TORSDOF 5
