REMARK  Name = 36688062
REMARK  6 active torsions:
REMARK  status: ('A' for Active; 'I' for Inactive)
REMARK    1  A    between atoms: CA_1  and  N_2
REMARK    2  A    between atoms: CA_1  and  C_8
REMARK    3  A    between atoms: CA_1  and  C_9
REMARK    4  A    between atoms: C_9  and  C_10
REMARK    5  A    between atoms: C_10  and  C_11
REMARK    6  A    between atoms: C_11  and  C_13
REMARK                            x       y       z     vdW  Elec       q    Type
REMARK                         _______ _______ _______ _____ _____    ______ ____
ROOT
ATOM      1  CA  UNL     1       1.557  -0.783  -0.294  0.00  0.00    +0.040 C 
ENDROOT
BRANCH   1   2
ATOM      2  N   UNL     1       1.524  -1.662   0.917  0.00  0.00    +0.389 N 
ATOM      3  H1  UNL     1       1.144  -2.574   0.665  0.00  0.00    -0.088 HD
ATOM      4  H2  UNL     1       0.935  -1.234   1.632  0.00  0.00    -0.088 HD
ATOM      5  H3  UNL     1       2.470  -1.777   1.280  0.00  0.00    -0.088 HD
ENDBRANCH   1   2
BRANCH   1   8
ATOM      6  O   UNL     1       2.920   0.735   0.928  0.00  0.00    -0.248 OA
ATOM      7  OXT UNL     1       1.719   1.517  -0.847  0.00  0.00    -0.248 OA
ATOM      8  C   UNL     1       2.114   0.628  -0.039  0.00  0.00    +0.345 C 
ENDBRANCH   1   8
BRANCH   1   9
ATOM      9  C   UNL     1       0.167  -0.837  -0.942  0.00  0.00    -0.010 C 
BRANCH   9  10
ATOM     10  C   UNL     1      -0.950  -0.204  -0.102  0.00  0.00    +0.007 C 
BRANCH  10  11
ATOM     11  C   UNL     1      -2.305  -0.349  -0.789  0.00  0.00    +0.072 C 
BRANCH  11  13
ATOM     12  O   UNL     1      -3.311   0.728   1.140  0.00  0.00    -0.288 OA
ATOM     13  C   UNL     1      -3.436   0.227   0.028  0.00  0.00    +0.207 C 
ENDBRANCH  11  13
ENDBRANCH  10  11
ENDBRANCH   9  10
ENDBRANCH   1   9
TORSDOF 6
