REMARK  Name = 54708743
REMARK  3 active torsions:
REMARK  status: ('A' for Active; 'I' for Inactive)
REMARK    1  A    between atoms: C_2  and  C_9
REMARK    2  A    between atoms: C_10  and  C_12
REMARK    3  A    between atoms: C_12  and  O_13
REMARK                            x       y       z     vdW  Elec       q    Type
REMARK                         _______ _______ _______ _____ _____    ______ ____
ROOT
ATOM      1  O   UNL     1       4.068  -0.698  -0.025  0.00  0.00    -0.287 OA
ATOM      2  C   UNL     1       0.275   0.778   0.030  0.00  0.00    +0.003 C 
ATOM      3  C   UNL     1       0.915   0.454   1.226  0.00  0.00    +0.003 C 
ATOM      4  C   UNL     1       0.935   0.596  -1.185  0.00  0.00    +0.003 C 
ATOM      5  C   UNL     1       2.214  -0.051   1.208  0.00  0.00    +0.042 C 
ATOM      6  C   UNL     1       2.235   0.090  -1.204  0.00  0.00    +0.042 C 
ATOM      7  C   UNL     1       2.874  -0.234  -0.008  0.00  0.00    +0.196 C 
ENDROOT
BRANCH   2   9
ATOM      8  F   UNL     1      -3.431   1.127   0.019  0.00  0.00    -0.197 F 
ATOM      9  C   UNL     1      -1.081   1.304   0.048  0.00  0.00    +0.036 C 
ATOM     10  C   UNL     1      -2.206   0.562   0.022  0.00  0.00    +0.215 C 
BRANCH  10  12
ATOM     11  O   UNL     1      -1.173  -1.595  -0.054  0.00  0.00    -0.243 OA
ATOM     12  C   UNL     1      -2.185  -0.911  -0.030  0.00  0.00    +0.366 C 
BRANCH  12  13
ATOM     13  O   UNL     1      -3.441  -1.420  -0.047  0.00  0.00    -0.476 OA
ATOM     14  H   UNL     1      -4.180  -0.845  -0.026  0.00  0.00    +0.295 HD
ENDBRANCH  12  13
ENDBRANCH  10  12
ENDBRANCH   2   9
TORSDOF 3
