REMARK  Name = 12374
REMARK  7 active torsions:
REMARK  status: ('A' for Active; 'I' for Inactive)
REMARK    1  A    between atoms: C_1  and  C_2
REMARK    2  A    between atoms: C_1  and  C_7
REMARK    3  A    between atoms: C_2  and  C_3
REMARK    4  A    between atoms: C_3  and  C_4
REMARK    5  A    between atoms: C_4  and  O_5
REMARK    6  A    between atoms: C_7  and  C_8
REMARK    7  A    between atoms: C_8  and  O_9
REMARK                            x       y       z     vdW  Elec       q    Type
REMARK                         _______ _______ _______ _____ _____    ______ ____
ROOT
ATOM      1  C   UNL     1       0.616  -0.453   0.008  0.00  0.00    +0.003 C 
ENDROOT
BRANCH   1   2
ATOM      2  C   UNL     1      -0.616   0.453   0.008  0.00  0.00    +0.003 C 
BRANCH   2   3
ATOM      3  C   UNL     1      -1.906  -0.364   0.025  0.00  0.00    +0.032 C 
BRANCH   3   4
ATOM      4  C   UNL     1      -3.138   0.529  -0.018  0.00  0.00    +0.137 C 
BRANCH   4   5
ATOM      5  O   UNL     1      -4.299  -0.289  -0.015  0.00  0.00    -0.382 OA
ATOM      6  H   UNL     1      -5.090   0.272  -0.042  0.00  0.00    +0.210 HD
ENDBRANCH   4   5
ENDBRANCH   3   4
ENDBRANCH   2   3
ENDBRANCH   1   2
BRANCH   1   7
ATOM      7  C   UNL     1       1.906   0.364   0.025  0.00  0.00    +0.032 C 
BRANCH   7   8
ATOM      8  C   UNL     1       3.138  -0.529  -0.018  0.00  0.00    +0.137 C 
BRANCH   8   9
ATOM      9  O   UNL     1       4.299   0.290  -0.015  0.00  0.00    -0.382 OA
ATOM     10  H   UNL     1       5.090  -0.271  -0.042  0.00  0.00    +0.210 HD
ENDBRANCH   8   9
ENDBRANCH   7   8
ENDBRANCH   1   7
TORSDOF 7
