REMARK  Name = 137895
REMARK  12 active torsions:
REMARK  status: ('A' for Active; 'I' for Inactive)
REMARK    1  A    between atoms: C_1  and  C_2
REMARK    2  A    between atoms: C_1  and  C_9
REMARK    3  A    between atoms: C_2  and  C_3
REMARK    4  A    between atoms: C_3  and  C_4
REMARK    5  A    between atoms: C_4  and  C_5
REMARK    6  A    between atoms: C_5  and  C_6
REMARK    7  A    between atoms: C_6  and  C_8
REMARK    8  A    between atoms: C_9  and  C_10
REMARK    9  A    between atoms: C_10  and  C_11
REMARK   10  A    between atoms: C_11  and  C_12
REMARK   11  A    between atoms: C_12  and  C_13
REMARK   12  A    between atoms: C_13  and  O_14
REMARK                            x       y       z     vdW  Elec       q    Type
REMARK                         _______ _______ _______ _____ _____    ______ ____
ROOT
ATOM      1  C   UNL     1       0.696  -0.448   0.051  0.00  0.00    +0.000 C 
ENDROOT
BRANCH   1   2
ATOM      2  C   UNL     1      -0.615   0.346   0.065  0.00  0.00    +0.000 C 
BRANCH   2   3
ATOM      3  C   UNL     1      -1.898  -0.493   0.072  0.00  0.00    +0.000 C 
BRANCH   3   4
ATOM      4  C   UNL     1      -3.174   0.352   0.105  0.00  0.00    +0.000 C 
BRANCH   4   5
ATOM      5  C   UNL     1      -4.457  -0.482   0.034  0.00  0.00    +0.001 C 
BRANCH   5   6
ATOM      6  C   UNL     1      -5.765   0.315   0.004  0.00  0.00    +0.012 C 
BRANCH   6   8
ATOM      7 BR   UNL     1      -8.602   0.537  -0.076  0.00  0.00    -0.081 Br
ATOM      8  C   UNL     1      -6.998  -0.567  -0.100  0.00  0.00    +0.068 C 
ENDBRANCH   6   8
ENDBRANCH   5   6
ENDBRANCH   4   5
ENDBRANCH   3   4
ENDBRANCH   2   3
ENDBRANCH   1   2
BRANCH   1   9
ATOM      9  C   UNL     1       1.940   0.441  -0.016  0.00  0.00    +0.000 C 
BRANCH   9  10
ATOM     10  C   UNL     1       3.252  -0.350  -0.038  0.00  0.00    +0.000 C 
BRANCH  10  11
ATOM     11  C   UNL     1       4.535   0.487  -0.046  0.00  0.00    +0.003 C 
BRANCH  11  12
ATOM     12  C   UNL     1       5.810  -0.354  -0.043  0.00  0.00    +0.032 C 
BRANCH  12  13
ATOM     13  C   UNL     1       7.059   0.518  -0.005  0.00  0.00    +0.137 C 
BRANCH  13  14
ATOM     14  O   UNL     1       8.219  -0.304  -0.006  0.00  0.00    -0.382 OA
ATOM     15  H   UNL     1       9.011   0.256   0.018  0.00  0.00    +0.210 HD
ENDBRANCH  13  14
ENDBRANCH  12  13
ENDBRANCH  11  12
ENDBRANCH  10  11
ENDBRANCH   9  10
ENDBRANCH   1   9
TORSDOF 12
