REMARK  Name = 25245501
REMARK  4 active torsions:
REMARK  status: ('A' for Active; 'I' for Inactive)
REMARK    1  A    between atoms: CA_1  and  C_2
REMARK    2  A    between atoms: CA_1  and  N_10
REMARK    3  A    between atoms: CA_1  and  C_16
REMARK    4  A    between atoms: C_7  and  O_8
REMARK                            x       y       z     vdW  Elec       q    Type
REMARK                         _______ _______ _______ _____ _____    ______ ____
ROOT
ATOM      1  CA  UNL     1       1.583   0.207   0.713  0.00  0.00    +0.064 C 
ENDROOT
BRANCH   1   2
ATOM      2  C   UNL     1       0.126   0.099   0.414  0.00  0.00    -0.032 C 
ATOM      3  C   UNL     1      -0.574  -1.058   0.760  0.00  0.00    -0.003 C 
ATOM      4  C   UNL     1      -0.538   1.155  -0.210  0.00  0.00    -0.003 C 
ATOM      5  C   UNL     1      -1.937  -1.158   0.480  0.00  0.00    +0.036 C 
ATOM      6  C   UNL     1      -1.901   1.054  -0.490  0.00  0.00    +0.036 C 
ATOM      7  C   UNL     1      -2.600  -0.102  -0.145  0.00  0.00    +0.134 C 
BRANCH   7   8
ATOM      8  O   UNL     1      -3.930  -0.200  -0.417  0.00  0.00    -0.506 OA
ATOM      9  H   UNL     1      -4.400  -0.977  -0.185  0.00  0.00    +0.292 HD
ENDBRANCH   7   8
ENDBRANCH   1   2
BRANCH   1  10
ATOM     10  N   UNL     1       2.027   1.601   1.070  0.00  0.00    +0.391 N 
ATOM     11  H1  UNL     1       1.464   1.950   1.845  0.00  0.00    -0.088 HD
ATOM     12  H2  UNL     1       1.910   2.213   0.262  0.00  0.00    -0.088 HD
ATOM     13  H3  UNL     1       3.010   1.585   1.344  0.00  0.00    -0.088 HD
ENDBRANCH   1  10
BRANCH   1  16
ATOM     14  O   UNL     1       2.225   0.158  -1.580  0.00  0.00    -0.248 OA
ATOM     15  OXT UNL     1       3.130  -1.367  -0.140  0.00  0.00    -0.248 OA
ATOM     16  C   UNL     1       2.389  -0.391  -0.455  0.00  0.00    +0.349 C 
ENDBRANCH   1  16
TORSDOF 4
