REMARK  Name = 44259
REMARK  2 active torsions:
REMARK  status: ('A' for Active; 'I' for Inactive)
REMARK    1  A    between atoms: C_7  and  O_37
REMARK    2  A    between atoms: C_9  and  N_33
REMARK                            x       y       z     vdW  Elec       q    Type
REMARK                         _______ _______ _______ _____ _____    ______ ____
ROOT
ATOM      1  O   UNL     1       1.006  -1.886   1.774  0.00  0.00    -0.319 OA
ATOM      2  O   UNL     1      -4.506   2.501  -0.384  0.00  0.00    -0.270 OA
ATOM      3  N   UNL     1       1.603   0.069   0.596  0.00  0.00    -0.305 N 
ATOM      4  N   UNL     1      -0.929  -1.542   0.546  0.00  0.00    -0.304 N 
ATOM      5  N   UNL     1      -2.795   4.093  -0.501  0.00  0.00    -0.297 N 
ATOM      6  C   UNL     1       2.082  -1.214   1.115  0.00  0.00    +0.188 C 
ATOM      7  C   UNL     1       2.735  -2.161   0.068  0.00  0.00    +0.141 C 
ATOM      8  C   UNL     1       0.051  -2.514   0.951  0.00  0.00    +0.204 C 
ATOM      9  C   UNL     1       1.760  -2.771  -0.944  0.00  0.00    -0.025 C 
ATOM     10  C   UNL     1       0.605  -3.396  -0.172  0.00  0.00    +0.035 C 
ATOM     11  C   UNL     1       0.331   0.572   0.398  0.00  0.00    +0.077 A 
ATOM     12  C   UNL     1      -0.874  -0.190   0.383  0.00  0.00    +0.078 A 
ATOM     13  C   UNL     1       0.135   1.977   0.113  0.00  0.00    +0.016 A 
ATOM     14  C   UNL     1      -2.091   0.559   0.121  0.00  0.00    +0.023 A 
ATOM     15  C   UNL     1       2.382   1.216   0.326  0.00  0.00    +0.062 A 
ATOM     16  C   UNL     1       3.054  -1.004   2.303  0.00  0.00    +0.056 C 
ATOM     17  C   UNL     1      -2.289  -1.804   0.371  0.00  0.00    +0.062 A 
ATOM     18  C   UNL     1       1.540   2.346   0.088  0.00  0.00    +0.017 A 
ATOM     19  C   UNL     1      -1.045   2.687  -0.093  0.00  0.00    +0.003 A 
ATOM     20  C   UNL     1      -2.205   1.931  -0.078  0.00  0.00    +0.053 A 
ATOM     21  C   UNL     1      -3.002  -0.592   0.133  0.00  0.00    +0.017 A 
ATOM     22  C   UNL     1      -1.353   4.120  -0.376  0.00  0.00    +0.117 C 
ATOM     23  C   UNL     1       3.783   1.391   0.277  0.00  0.00    +0.017 C 
ATOM     24  C   UNL     1      -3.335   2.821  -0.334  0.00  0.00    +0.246 C 
ATOM     25  C   UNL     1       2.145   3.607  -0.160  0.00  0.00    +0.001 C 
ATOM     26  C   UNL     1      -2.961  -3.045   0.414  0.00  0.00    +0.017 C 
ATOM     27  C   UNL     1      -4.404  -0.692  -0.059  0.00  0.00    +0.001 C 
ATOM     28  C   UNL     1       4.339   2.649   0.024  0.00  0.00    +0.001 C 
ATOM     29  C   UNL     1       3.530   3.749  -0.187  0.00  0.00    +0.000 C 
ATOM     30  C   UNL     1      -4.341  -3.089   0.220  0.00  0.00    +0.001 C 
ATOM     31  C   UNL     1      -5.056  -1.927  -0.013  0.00  0.00    +0.000 C 
ATOM     32  H   UNL     1      -3.339   4.893  -0.686  0.00  0.00    +0.150 HD
ENDROOT
BRANCH   9  33
ATOM     33  N   UNL     1       1.306  -1.829  -1.965  0.00  0.00    +0.385 N 
ATOM     34  C   UNL     1       0.440  -2.490  -2.929  0.00  0.00    -0.105 C 
ATOM     35  H   UNL     1       2.116  -1.445  -2.452  0.00  0.00    -0.084 HD
ATOM     36  H   UNL     1       0.779  -1.083  -1.511  0.00  0.00    -0.084 HD
ENDBRANCH   9  33
BRANCH   7  37
ATOM     37  O   UNL     1       3.831  -1.586  -0.628  0.00  0.00    -0.351 OA
ATOM     38  C   UNL     1       4.528  -2.556  -1.399  0.00  0.00    +0.174 C 
ENDBRANCH   7  37
TORSDOF 2
