REMARK  Name = 447199
REMARK  5 active torsions:
REMARK  status: ('A' for Active; 'I' for Inactive)
REMARK    1  A    between atoms: C_6  and  C_16
REMARK    2  A    between atoms: C_15  and  O_19
REMARK    3  A    between atoms: C_17  and  O_21
REMARK    4  A    between atoms: C_18  and  C_23
REMARK    5  A    between atoms: C_23  and  O_24
REMARK                            x       y       z     vdW  Elec       q    Type
REMARK                         _______ _______ _______ _____ _____    ______ ____
ROOT
ATOM      1  N   UNL     1       0.946  -2.042  -0.578  0.00  0.00    -0.251 N 
ATOM      2  N   UNL     1       2.276  -1.898  -0.420  0.00  0.00    -0.181 NA
ATOM      3  N   UNL     1       0.955   1.355   0.165  0.00  0.00    -0.245 NA
ATOM      4  N   UNL     1       3.428   1.458   0.422  0.00  0.00    -0.229 NA
ATOM      5  N   UNL     1       4.885  -0.446   0.145  0.00  0.00    -0.342 N 
ATOM      6  C   UNL     1       0.228  -0.900  -0.397  0.00  0.00    +0.158 C 
ATOM      7  C   UNL     1       1.160   0.047  -0.101  0.00  0.00    +0.099 C 
ATOM      8  C   UNL     1       2.444  -0.598  -0.120  0.00  0.00    +0.144 C 
ATOM      9  C   UNL     1       3.607   0.135   0.150  0.00  0.00    +0.143 C 
ATOM     10  C   UNL     1       2.152   1.965   0.412  0.00  0.00    +0.252 C 
ATOM     11  H   UNL     1       0.527  -2.904  -0.806  0.00  0.00    +0.169 HD
ATOM     12  H   UNL     1       5.677   0.104   0.340  0.00  0.00    +0.144 HD
ATOM     13  H   UNL     1       4.988  -1.405  -0.055  0.00  0.00    +0.144 HD
ENDROOT
BRANCH   6  16
ATOM     14  O   UNL     1      -1.665   0.433  -1.044  0.00  0.00    -0.349 OA
ATOM     15  C   UNL     1      -2.012  -1.025   0.788  0.00  0.00    +0.169 C 
ATOM     16  C   UNL     1      -1.275  -0.858  -0.532  0.00  0.00    +0.169 C 
ATOM     17  C   UNL     1      -3.308  -0.282   0.523  0.00  0.00    +0.169 C 
ATOM     18  C   UNL     1      -2.848   0.883  -0.345  0.00  0.00    +0.174 C 
BRANCH  15  19
ATOM     19  O   UNL     1      -2.214  -2.386   1.111  0.00  0.00    -0.379 OA
ATOM     20  H   UNL     1      -1.357  -2.811   1.269  0.00  0.00    +0.211 HD
ENDBRANCH  15  19
BRANCH  17  21
ATOM     21  O   UNL     1      -4.217  -1.095  -0.220  0.00  0.00    -0.379 OA
ATOM     22  H   UNL     1      -4.511  -1.837   0.331  0.00  0.00    +0.211 HD
ENDBRANCH  17  21
BRANCH  18  23
ATOM     23  C   UNL     1      -2.482   2.119   0.466  0.00  0.00    +0.169 C 
BRANCH  23  24
ATOM     24  O   UNL     1      -2.059   3.137  -0.424  0.00  0.00    -0.379 OA
ATOM     25  H   UNL     1      -1.822   3.930   0.082  0.00  0.00    +0.211 HD
ENDBRANCH  23  24
ENDBRANCH  18  23
ENDBRANCH   6  16
TORSDOF 5
