REMARK  Name = 5288792
REMARK  6 active torsions:
REMARK  status: ('A' for Active; 'I' for Inactive)
REMARK    1  A    between atoms: C_3  and  N_25
REMARK    2  A    between atoms: C_10  and  C_14
REMARK    3  A    between atoms: N_13  and  C_17
REMARK    4  A    between atoms: C_16  and  N_20
REMARK    5  A    between atoms: N_25  and  C_26
REMARK    6  A    between atoms: N_25  and  C_28
REMARK                            x       y       z     vdW  Elec       q    Type
REMARK                         _______ _______ _______ _____ _____    ______ ____
ROOT
ATOM      1  O   UNL     1      -0.888   0.592   0.953  0.00  0.00    -0.421 OA
ATOM      2  O   UNL     1       1.369   0.553   1.303  0.00  0.00    -0.244 OA
ATOM      3  C   UNL     1      -4.424   0.026   0.133  0.00  0.00    +0.051 C 
ATOM      4  C   UNL     1      -1.980  -1.331  -0.057  0.00  0.00    +0.035 C 
ATOM      5  C   UNL     1      -3.258   0.637   0.587  0.00  0.00    +0.052 C 
ATOM      6  C   UNL     1      -2.050  -0.052   0.485  0.00  0.00    +0.150 C 
ATOM      7  C   UNL     1      -4.373  -1.258  -0.415  0.00  0.00    +0.015 C 
ATOM      8  C   UNL     1      -3.154  -1.936  -0.511  0.00  0.00    +0.004 C 
ATOM      9  C   UNL     1      -0.687  -1.993  -0.134  0.00  0.00    +0.014 C 
ATOM     10  C   UNL     1       0.414  -1.376   0.312  0.00  0.00    +0.130 C 
ATOM     11  C   UNL     1       0.363  -0.015   0.893  0.00  0.00    +0.350 C 
ENDROOT
BRANCH  10  14
ATOM     12  O   UNL     1       1.678  -3.354   0.243  0.00  0.00    -0.270 OA
ATOM     13  N   UNL     1       2.772  -1.301   0.024  0.00  0.00    -0.278 N 
ATOM     14  C   UNL     1       1.671  -2.125   0.193  0.00  0.00    +0.256 C 
ATOM     15  H   UNL     1       2.624  -0.328   0.002  0.00  0.00    +0.155 HD
BRANCH  13  17
ATOM     16  C   UNL     1       5.095  -0.946  -0.273  0.00  0.00    +0.091 C 
ATOM     17  C   UNL     1       4.049  -1.761  -0.112  0.00  0.00    +0.081 C 
BRANCH  16  20
ATOM     18  O   UNL     1       5.196   0.879   1.974  0.00  0.00    -0.269 OA
ATOM     19  O   UNL     1       4.670   0.691  -2.624  0.00  0.00    -0.269 OA
ATOM     20  N   UNL     1       4.969   0.408  -0.314  0.00  0.00    -0.199 N 
ATOM     21  C   UNL     1       4.896   2.644   0.367  0.00  0.00    +0.063 C 
ATOM     22  C   UNL     1       4.637   2.575  -1.127  0.00  0.00    +0.063 C 
ATOM     23  C   UNL     1       5.037   1.215   0.808  0.00  0.00    +0.259 C 
ATOM     24  C   UNL     1       4.760   1.120  -1.481  0.00  0.00    +0.259 C 
ENDBRANCH  16  20
ENDBRANCH  13  17
ENDBRANCH  10  14
BRANCH   3  25
ATOM     25  N   UNL     1      -5.658   0.703   0.226  0.00  0.00    -0.307 N 
BRANCH  25  26
ATOM     26  C   UNL     1      -5.725   2.030   0.806  0.00  0.00    +0.091 C 
ATOM     27  C   UNL     1      -5.510   3.080  -0.267  0.00  0.00    +0.023 C 
ENDBRANCH  25  26
BRANCH  25  28
ATOM     28  C   UNL     1      -6.877   0.075  -0.244  0.00  0.00    +0.091 C 
ATOM     29  C   UNL     1      -6.992   0.220  -1.749  0.00  0.00    +0.023 C 
ENDBRANCH  25  28
ENDBRANCH   3  25
TORSDOF 6
