REMARK  Name = 40424802
REMARK  7 active torsions:
REMARK  status: ('A' for Active; 'I' for Inactive)
REMARK    1  A    between atoms: C_1  and  N_2
REMARK    2  A    between atoms: C_1  and  C_8
REMARK    3  A    between atoms: C_1  and  C_9
REMARK    4  A    between atoms: C_9  and  S_10
REMARK    5  A    between atoms: S_10  and  C_11
REMARK    6  A    between atoms: C_11  and  C_12
REMARK    7  A    between atoms: C_12  and  O_13
REMARK                            x       y       z     vdW  Elec       q    Type
REMARK                         _______ _______ _______ _____ _____    ______ ____
ROOT
ATOM      1  C   UNK     1       1.349   0.531   0.688  0.00  0.00    +0.051 C 
ENDROOT
BRANCH   1   2
ATOM      2  N   UNK     1       1.118   1.903   0.131  0.00  0.00    +0.389 N 
ATOM      3  H   UNK     1       0.419   2.385   0.696  0.00  0.00    -0.088 HD
ATOM      4  H   UNK     1       0.785   1.828  -0.830  0.00  0.00    -0.088 HD
ATOM      5  H   UNK     1       1.992   2.428   0.149  0.00  0.00    -0.088 HD
ENDBRANCH   1   2
BRANCH   1   8
ATOM      6  O   UNK     1       3.225   0.365  -0.754  0.00  0.00    -0.248 OA
ATOM      7  O   UNK     1       2.273  -1.558   0.023  0.00  0.00    -0.248 OA
ATOM      8  C   UNK     1       2.388  -0.304  -0.082  0.00  0.00    +0.346 C 
ENDBRANCH   1   8
BRANCH   1   9
ATOM      9  C   UNK     1      -0.027  -0.112   0.882  0.00  0.00    +0.047 C 
BRANCH   9  10
ATOM     10  S   UNK     1      -0.884  -0.487  -0.683  0.00  0.00    -0.139 S 
BRANCH  10  11
ATOM     11  C   UNK     1      -2.419  -1.134   0.015  0.00  0.00    +0.089 C 
BRANCH  11  12
ATOM     12  C   UNK     1      -3.349  -0.011   0.447  0.00  0.00    +0.149 C 
BRANCH  12  13
ATOM     13  O   UNK     1      -3.675   0.808  -0.668  0.00  0.00    -0.381 OA
ATOM     14  H   UNK     1      -4.268   1.521  -0.383  0.00  0.00    +0.210 HD
ENDBRANCH  12  13
ENDBRANCH  11  12
ENDBRANCH  10  11
ENDBRANCH   9  10
ENDBRANCH   1   9
TORSDOF 7
