REMARK  Name = 123991
REMARK  3 active torsions:
REMARK  status: ('A' for Active; 'I' for Inactive)
REMARK    1  A    between atoms: CA_1  and  N_3
REMARK    2  A    between atoms: CA_1  and  C_7
REMARK    3  A    between atoms: C_7  and  O_8
REMARK                            x       y       z     vdW  Elec       q    Type
REMARK                         _______ _______ _______ _____ _____    ______ ____
ROOT
ATOM      1  CA  ALA A   1       0.735   0.034   0.000  0.00  0.00    +0.118 C 
ATOM      2  CB  ALA A   1       1.355   1.223   0.000  0.00  0.00    +0.022 C 
ENDROOT
BRANCH   1   3
ATOM      3  N   ALA A   1       1.367  -1.175   0.000  0.00  0.00    -0.352 N 
ATOM      4  H1  ALA A   1       0.840  -2.006   0.000  0.00  0.00    +0.143 HD
ATOM      5  H2  ALA A   1       2.351  -1.215   0.000  0.00  0.00    +0.143 HD
ENDBRANCH   1   3
BRANCH   1   7
ATOM      6  OXT ALA A   1      -1.449   1.062   0.000  0.00  0.00    -0.244 OA
ATOM      7  C   ALA A   1      -0.754   0.058   0.000  0.00  0.00    +0.351 C 
BRANCH   7   8
ATOM      8  O   ALA A   1      -1.255  -1.201   0.000  0.00  0.00    -0.476 OA
ATOM      9  H   ALA A   1      -0.674  -1.937   0.000  0.00  0.00    +0.295 HD
ENDBRANCH   7   8
ENDBRANCH   1   7
TORSDOF 3
