REMARK  Name = 967
REMARK  2 active torsions:
REMARK  status: ('A' for Active; 'I' for Inactive)
REMARK    1  A    between atoms: CA_5  and  C_12
REMARK    2  A    between atoms: C_12  and  O_13
REMARK                            x       y       z     vdW  Elec       q    Type
REMARK                         _______ _______ _______ _____ _____    ______ ____
ROOT
ATOM      1  O   UNL     1      -1.866   2.353   0.000  0.00  0.00    -0.252 OA
ATOM      2  O   UNL     1      -2.052  -2.266   0.001  0.00  0.00    -0.270 OA
ATOM      3  N   UNL     1       0.089   1.138   0.000  0.00  0.00    -0.263 N 
ATOM      4  N   UNL     1      -1.983   0.047   0.000  0.00  0.00    -0.236 N 
ATOM      5  CA  UNL     1       0.727  -0.073   0.000  0.00  0.00    +0.133 C 
ATOM      6  C   UNL     1       0.071  -1.236  -0.001  0.00  0.00    +0.079 C 
ATOM      7  C   UNL     1      -1.293   1.263   0.000  0.00  0.00    +0.311 C 
ATOM      8  C   UNL     1      -1.412  -1.219   0.000  0.00  0.00    +0.254 C 
ATOM      9  H   UNL     1       0.635   1.957   0.000  0.00  0.00    +0.157 HD
ATOM     10  H   UNL     1      -2.966   0.093   0.000  0.00  0.00    +0.159 HD
ENDROOT
BRANCH   5  12
ATOM     11  OXT UNL     1       2.872  -1.098   0.000  0.00  0.00    -0.244 OA
ATOM     12  C   UNL     1       2.190  -0.088   0.000  0.00  0.00    +0.352 C 
BRANCH  12  13
ATOM     13  O   UNL     1       2.658   1.179   0.001  0.00  0.00    -0.476 OA
ATOM     14  H   UNL     1       2.059   1.899   0.000  0.00  0.00    +0.295 HD
ENDBRANCH  12  13
ENDBRANCH   5  12
TORSDOF 2
