REMARK  Name = 447260
REMARK  0 active torsions:
REMARK  status: ('A' for Active; 'I' for Inactive)
REMARK                            x       y       z     vdW  Elec       q    Type
REMARK                         _______ _______ _______ _____ _____    ______ ____
ROOT
ATOM      1  N   UNL     1      -0.768   0.920   1.160  0.00  0.00    +0.386 N 
ATOM      2  C   UNL     1       0.739  -0.527   0.002  0.00  0.00    -0.018 C 
ATOM      3  C   UNL     1       0.075   0.870  -0.069  0.00  0.00    -0.046 C 
ATOM      4  C   UNL     1      -0.643  -1.205   0.136  0.00  0.00    -0.023 C 
ATOM      5  C   UNL     1      -0.931   0.742  -1.241  0.00  0.00    -0.020 C 
ATOM      6  C   UNL     1      -1.415  -0.713  -1.111  0.00  0.00    -0.004 C 
ATOM      7  C   UNL     1      -1.256  -0.467   1.337  0.00  0.00    -0.082 C 
ATOM      8  C   UNL     1       1.537  -0.950  -1.246  0.00  0.00    -0.002 C 
ATOM      9  C   UNL     1       1.671  -0.743   1.213  0.00  0.00    -0.002 C 
ATOM     10  C   UNL     1       0.990   2.073  -0.180  0.00  0.00    -0.022 C 
ATOM     11  H   UNL     1      -1.549   1.564   1.035  0.00  0.00    -0.084 HD
ATOM     12  H   UNL     1      -0.248   1.253   1.972  0.00  0.00    -0.084 HD
ENDROOT
TORSDOF 0
