REMARK  Name = 445228
REMARK  3 active torsions:
REMARK  status: ('A' for Active; 'I' for Inactive)
REMARK    1  A    between atoms: N_3  and  O_14
REMARK    2  A    between atoms: C_6  and  O_12
REMARK    3  A    between atoms: C_10  and  O_16
REMARK                            x       y       z     vdW  Elec       q    Type
REMARK                         _______ _______ _______ _____ _____    ______ ____
ROOT
ATOM      1  O   UNL     1       0.915  -1.632  -0.135  0.00  0.00    -0.445 OA
ATOM      2  O   UNL     1       3.711   0.658  -0.013  0.00  0.00    -0.266 OA
ATOM      3  N   UNL     1       1.448   1.104  -0.023  0.00  0.00    -0.141 N 
ATOM      4  C   UNL     1       0.124   0.657   0.014  0.00  0.00    +0.115 C 
ATOM      5  C   UNL     1      -0.103  -0.722  -0.035  0.00  0.00    +0.161 C 
ATOM      6  C   UNL     1       2.159  -1.163   0.356  0.00  0.00    +0.367 C 
ATOM      7  C   UNL     1       2.542   0.287   0.069  0.00  0.00    +0.322 C 
ATOM      8  C   UNL     1      -1.405  -1.222  -0.058  0.00  0.00    +0.075 C 
ATOM      9  C   UNL     1      -0.964   1.536   0.052  0.00  0.00    +0.023 C 
ATOM     10  C   UNL     1      -2.487  -0.344  -0.008  0.00  0.00    +0.142 C 
ATOM     11  C   UNL     1      -2.266   1.032   0.047  0.00  0.00    +0.038 C 
ENDROOT
BRANCH   6  12
ATOM     12  O   UNL     1       3.220  -1.973  -0.137  0.00  0.00    -0.343 OA
ATOM     13  H   UNL     1       3.017  -2.907   0.026  0.00  0.00    +0.215 HD
ENDBRANCH   6  12
BRANCH   3  14
ATOM     14  O   UNL     1       1.683   2.482  -0.129  0.00  0.00    -0.287 OA
ATOM     15  H   UNL     1       0.836   2.951  -0.187  0.00  0.00    +0.242 HD
ENDBRANCH   3  14
BRANCH  10  16
ATOM     16  O   UNL     1      -3.759  -0.828  -0.022  0.00  0.00    -0.471 OA
ATOM     17  C   UNL     1      -4.818   0.127   0.023  0.00  0.00    +0.252 C 
ENDBRANCH  10  16
TORSDOF 3
