REMARK  Name = 17753917
REMARK  9 active torsions:
REMARK  status: ('A' for Active; 'I' for Inactive)
REMARK    1  A    between atoms: N_2  and  C_22
REMARK    2  A    between atoms: C_4  and  O_7
REMARK    3  A    between atoms: C_4  and  C_9
REMARK    4  A    between atoms: C_5  and  C_18
REMARK    5  A    between atoms: C_9  and  N_10
REMARK    6  A    between atoms: C_9  and  C_14
REMARK    7  A    between atoms: C_14  and  O_16
REMARK    8  A    between atoms: C_18  and  C_19
REMARK    9  A    between atoms: C_22  and  C_24
REMARK                            x       y       z     vdW  Elec       q    Type
REMARK                         _______ _______ _______ _____ _____    ______ ____
ROOT
ATOM      1  O   UNL     1       1.417   1.852  -1.492  0.00  0.00    -0.269 OA
ATOM      2  N   UNL     1      -0.526   1.138  -0.352  0.00  0.00    -0.232 N 
ATOM      3  N   UNL     1       0.366  -0.943   0.287  0.00  0.00    -0.232 NA
ATOM      4  C   UNL     1      -0.850  -0.083   0.368  0.00  0.00    +0.227 C 
ATOM      5  C   UNL     1       1.234  -0.261  -0.394  0.00  0.00    +0.111 C 
ATOM      6  C   UNL     1       0.746   1.081  -0.845  0.00  0.00    +0.266 C 
ENDROOT
BRANCH   4   7
ATOM      7  O   UNL     1      -1.259   0.260   1.692  0.00  0.00    -0.354 OA
ATOM      8  H   UNL     1      -0.548   0.750   2.133  0.00  0.00    +0.214 HD
ENDBRANCH   4   7
BRANCH   4   9
ATOM      9  C   UNL     1      -1.996  -0.850  -0.288  0.00  0.00    +0.029 C 
BRANCH   9  10
ATOM     10  N   UNL     1      -1.688  -1.064  -1.703  0.00  0.00    +0.387 N 
ATOM     11  H   UNL     1      -1.477  -0.169  -2.144  0.00  0.00    -0.089 HD
ATOM     12  H   UNL     1      -2.490  -1.491  -2.165  0.00  0.00    -0.089 HD
ATOM     13  H   UNL     1      -0.880  -1.681  -1.785  0.00  0.00    -0.089 HD
ENDBRANCH   9  10
BRANCH   9  14
ATOM     14  C   UNL     1      -2.319  -2.189   0.406  0.00  0.00    +0.097 C 
ATOM     15  C   UNL     1      -3.689  -2.769   0.074  0.00  0.00    +0.030 C 
BRANCH  14  16
ATOM     16  O   UNL     1      -1.339  -3.164   0.047  0.00  0.00    -0.386 OA
ATOM     17  H   UNL     1      -0.454  -2.822   0.248  0.00  0.00    +0.210 HD
ENDBRANCH  14  16
ENDBRANCH   9  14
ENDBRANCH   4   9
BRANCH   5  18
ATOM     18  C   UNL     1       2.608  -0.716  -0.732  0.00  0.00    +0.050 C 
BRANCH  18  19
ATOM     19  C   UNL     1       3.612  -0.310   0.357  0.00  0.00    +0.006 C 
ATOM     20  C   UNL     1       3.246  -0.919   1.712  0.00  0.00    +0.000 C 
ATOM     21  C   UNL     1       5.026  -0.737  -0.039  0.00  0.00    +0.000 C 
ENDBRANCH  18  19
ENDBRANCH   5  18
BRANCH   2  22
ATOM     22  C   UNL     1      -1.444   2.250  -0.509  0.00  0.00    +0.170 C 
BRANCH  22  24
ATOM     23  O   UNL     1      -1.901   4.226   0.770  0.00  0.00    -0.286 OA
ATOM     24  C   UNL     1      -1.245   3.196   0.640  0.00  0.00    +0.229 C 
ENDBRANCH  22  24
ENDBRANCH   2  22
TORSDOF 9
