REMARK  Name = 5287415
REMARK  10 active torsions:
REMARK  status: ('A' for Active; 'I' for Inactive)
REMARK    1  A    between atoms: N_1  and  S_12
REMARK    2  A    between atoms: C_2  and  N_26
REMARK    3  A    between atoms: C_3  and  C_8
REMARK    4  A    between atoms: N_7  and  O_10
REMARK    5  A    between atoms: S_12  and  C_15
REMARK    6  A    between atoms: C_20  and  O_21
REMARK    7  A    between atoms: O_21  and  C_22
REMARK    8  A    between atoms: C_22  and  C_23
REMARK    9  A    between atoms: C_23  and  C_24
REMARK   10  A    between atoms: N_26  and  S_28
REMARK                            x       y       z     vdW  Elec       q    Type
REMARK                         _______ _______ _______ _____ _____    ______ ____
ROOT
ATOM      1  N   UNL     1       2.707  -0.083   0.706  0.00  0.00    -0.147 NA
ATOM      2  C   UNL     1       1.385  -2.088   0.644  0.00  0.00    +0.095 C 
ATOM      3  C   UNL     1       2.590  -0.534  -0.708  0.00  0.00    +0.159 C 
ATOM      4  C   UNL     1       2.233  -2.014  -0.614  0.00  0.00    +0.046 C 
ATOM      5  C   UNL     1       2.068  -1.107   1.590  0.00  0.00    +0.114 C 
ENDROOT
BRANCH   3   8
ATOM      6  O   UNL     1       4.933  -0.862  -0.905  0.00  0.00    -0.272 OA
ATOM      7  N   UNL     1       3.872   0.536  -2.410  0.00  0.00    -0.196 N 
ATOM      8  C   UNL     1       3.921  -0.312  -1.335  0.00  0.00    +0.261 C 
ATOM      9  H   UNL     1       3.032   0.951  -2.713  0.00  0.00    +0.182 HD
BRANCH   7  10
ATOM     10  O   UNL     1       5.095   0.777  -3.053  0.00  0.00    -0.295 OA
ATOM     11  H   UNL     1       4.956   1.385  -3.795  0.00  0.00    +0.241 HD
ENDBRANCH   7  10
ENDBRANCH   3   8
BRANCH   1  12
ATOM     12  S   UNL     1       2.400   1.556   1.047  0.00  0.00    +0.064 S 
ATOM     13  O   UNL     1       2.961   2.381  -0.006  0.00  0.00    -0.153 OA
ATOM     14  O   UNL     1       2.712   1.823   2.438  0.00  0.00    -0.153 OA
BRANCH  12  15
ATOM     15  C   UNL     1       0.641   1.593   0.874  0.00  0.00    +0.122 C 
ATOM     16  C   UNL     1      -0.174   1.340   1.977  0.00  0.00    +0.023 C 
ATOM     17  C   UNL     1       0.069   1.875  -0.366  0.00  0.00    +0.023 C 
ATOM     18  C   UNL     1      -1.561   1.368   1.840  0.00  0.00    +0.038 C 
ATOM     19  C   UNL     1      -1.319   1.903  -0.504  0.00  0.00    +0.038 C 
ATOM     20  C   UNL     1      -2.134   1.650   0.600  0.00  0.00    +0.139 C 
BRANCH  20  21
ATOM     21  O   UNL     1      -3.488   1.678   0.466  0.00  0.00    -0.475 OA
BRANCH  21  22
ATOM     22  C   UNL     1      -4.023   1.317  -0.806  0.00  0.00    +0.205 C 
BRANCH  22  23
ATOM     23  C   UNL     1      -5.406   0.714  -0.605  0.00  0.00    +0.047 C 
BRANCH  23  24
ATOM     24  C   UNL     1      -6.033   0.288  -1.929  0.00  0.00    +0.004 C 
ATOM     25  C   UNL     1      -7.396  -0.353  -1.720  0.00  0.00    +0.000 C 
ENDBRANCH  23  24
ENDBRANCH  22  23
ENDBRANCH  21  22
ENDBRANCH  20  21
ENDBRANCH  12  15
ENDBRANCH   1  12
BRANCH   2  26
ATOM     26  N   UNL     1       0.003  -1.630   0.353  0.00  0.00    -0.183 NA
ATOM     27  H   UNL     1      -0.150  -0.779   0.894  0.00  0.00    +0.148 HD
BRANCH  26  28
ATOM     28  S   UNL     1      -1.298  -2.676   0.689  0.00  0.00    +0.043 S 
ATOM     29  O   UNL     1      -2.540  -1.929   0.716  0.00  0.00    -0.157 OA
ATOM     30  O   UNL     1      -0.919  -3.528   1.800  0.00  0.00    -0.157 OA
ATOM     31  C   UNL     1      -1.297  -3.683  -0.777  0.00  0.00    +0.196 C 
ENDBRANCH  26  28
ENDBRANCH   2  26
TORSDOF 10
