REMARK  Name = 447021
REMARK  5 active torsions:
REMARK  status: ('A' for Active; 'I' for Inactive)
REMARK    1  A    between atoms: C_5  and  N_17
REMARK    2  A    between atoms: N_17  and  C_19
REMARK    3  A    between atoms: C_19  and  C_20
REMARK    4  A    between atoms: C_21  and  O_26
REMARK    5  A    between atoms: C_23  and  O_28
REMARK                            x       y       z     vdW  Elec       q    Type
REMARK                         _______ _______ _______ _____ _____    ______ ____
ROOT
ATOM      1  N   UNL     1      -4.132  -0.641   1.106  0.00  0.00    -0.332 NA
ATOM      2  N   UNL     1      -4.328   0.992  -0.655  0.00  0.00    -0.313 NA
ATOM      3  N   UNL     1      -2.556   1.354  -2.160  0.00  0.00    -0.332 N 
ATOM      4  N   UNL     1      -6.089   0.627   0.846  0.00  0.00    -0.283 N 
ATOM      5  C   UNL     1      -0.276  -1.606  -0.151  0.00  0.00    +0.044 C 
ATOM      6  C   UNL     1      -1.002  -0.631  -0.829  0.00  0.00    +0.020 C 
ATOM      7  C   UNL     1      -2.302  -0.303  -0.407  0.00  0.00    +0.072 C 
ATOM      8  C   UNL     1      -0.846  -2.250   0.941  0.00  0.00    -0.004 C 
ATOM      9  C   UNL     1      -2.889  -0.947   0.695  0.00  0.00    +0.131 C 
ATOM     10  C   UNL     1      -2.140  -1.918   1.354  0.00  0.00    +0.087 C 
ATOM     11  C   UNL     1      -3.081   0.662  -1.040  0.00  0.00    +0.193 C 
ATOM     12  C   UNL     1      -4.784   0.312   0.409  0.00  0.00    +0.197 C 
ATOM     13  H   UNL     1      -3.099   2.038  -2.615  0.00  0.00    +0.145 HD
ATOM     14  H   UNL     1      -1.649   1.151  -2.484  0.00  0.00    +0.145 HD
ATOM     15  H   UNL     1      -6.474   0.159   1.622  0.00  0.00    +0.156 HD
ATOM     16  H   UNL     1      -6.613   1.315   0.376  0.00  0.00    +0.156 HD
ENDROOT
BRANCH   5  17
ATOM     17  N   UNL     1       1.028  -1.938  -0.569  0.00  0.00    -0.302 N 
ATOM     18  C   UNL     1       1.625  -3.202  -0.181  0.00  0.00    +0.112 C 
BRANCH  17  19
ATOM     19  C   UNL     1       1.788  -1.028  -1.403  0.00  0.00    +0.121 C 
BRANCH  19  20
ATOM     20  C   UNL     1       2.424   0.048  -0.567  0.00  0.00    +0.035 C 
ATOM     21  C   UNL     1       3.695  -0.135  -0.037  0.00  0.00    +0.137 C 
ATOM     22  C   UNL     1       1.719   1.223  -0.335  0.00  0.00    +0.037 C 
ATOM     23  C   UNL     1       2.295   2.230   0.440  0.00  0.00    +0.139 C 
ATOM     24  C   UNL     1       4.271   0.872   0.738  0.00  0.00    +0.040 C 
ATOM     25  C   UNL     1       3.571   2.055   0.976  0.00  0.00    +0.040 C 
BRANCH  21  26
ATOM     26  O   UNL     1       4.393  -1.284  -0.259  0.00  0.00    -0.472 OA
ATOM     27  C   UNL     1       5.689  -1.379   0.327  0.00  0.00    +0.252 C 
ENDBRANCH  21  26
BRANCH  23  28
ATOM     28  O   UNL     1       1.613   3.385   0.671  0.00  0.00    -0.471 OA
ATOM     29  C   UNL     1       0.313   3.498   0.093  0.00  0.00    +0.252 C 
ENDBRANCH  23  28
ENDBRANCH  19  20
ENDBRANCH  17  19
ENDBRANCH   5  17
TORSDOF 5
