REMARK  Name = 5288238
REMARK  3 active torsions:
REMARK  status: ('A' for Active; 'I' for Inactive)
REMARK    1  A    between atoms: N_1  and  O_23
REMARK    2  A    between atoms: C_3  and  C_11
REMARK    3  A    between atoms: C_4  and  C_18
REMARK                            x       y       z     vdW  Elec       q    Type
REMARK                         _______ _______ _______ _____ _____    ______ ____
ROOT
ATOM      1  N   UNL     1       1.832  -1.398   0.000  0.00  0.00    -0.182 N 
ATOM      2  N   UNL     1       2.436   2.078   0.001  0.00  0.00    -0.242 NA
ATOM      3  C   UNL     1       0.552   0.423   0.002  0.00  0.00    +0.038 A 
ATOM      4  C   UNL     1       0.534  -0.954   0.001  0.00  0.00    +0.099 A 
ATOM      5  C   UNL     1       1.910   0.826   0.001  0.00  0.00    +0.102 A 
ATOM      6  C   UNL     1       2.692  -0.327   0.000  0.00  0.00    +0.115 A 
ATOM      7  C   UNL     1       4.085  -0.257  -0.001  0.00  0.00    +0.024 C 
ATOM      8  C   UNL     1       4.636   1.021  -0.001  0.00  0.00    +0.022 C 
ATOM      9  C   UNL     1       3.787   2.120   0.000  0.00  0.00    +0.099 C 
ENDROOT
BRANCH   3  11
ATOM     10  F   UNL     1      -4.039   3.569  -0.001  0.00  0.00    -0.204 F 
ATOM     11  C   UNL     1      -0.633   1.236   0.001  0.00  0.00    +0.003 C 
ATOM     12  C   UNL     1      -1.208   1.628  -1.208  0.00  0.00    +0.002 C 
ATOM     13  C   UNL     1      -1.208   1.631   1.208  0.00  0.00    +0.002 C 
ATOM     14  C   UNL     1      -2.359   2.416  -1.208  0.00  0.00    +0.030 C 
ATOM     15  C   UNL     1      -2.358   2.419   1.208  0.00  0.00    +0.030 C 
ATOM     16  C   UNL     1      -2.934   2.812  -0.001  0.00  0.00    +0.140 C 
ENDBRANCH   3  11
BRANCH   4  18
ATOM     17  N   UNL     1      -2.741  -3.642  -0.001  0.00  0.00    -0.242 NA
ATOM     18  C   UNL     1      -0.587  -1.871   0.001  0.00  0.00    +0.022 C 
ATOM     19  C   UNL     1      -1.122  -2.308  -1.202  0.00  0.00    +0.022 C 
ATOM     20  C   UNL     1      -1.120  -2.312   1.203  0.00  0.00    +0.022 C 
ATOM     21  C   UNL     1      -2.191  -3.188  -1.149  0.00  0.00    +0.099 C 
ATOM     22  C   UNL     1      -2.190  -3.192   1.149  0.00  0.00    +0.099 C 
ENDBRANCH   4  18
BRANCH   1  23
ATOM     23  O   UNL     1       2.228  -2.730  -0.003  0.00  0.00    -0.426 OA
ATOM     24  H   UNL     1       1.583  -3.410  -0.002  0.00  0.00    +0.326 HD
ENDBRANCH   1  23
TORSDOF 3
