REMARK  Name = 777
REMARK  2 active torsions:
REMARK  status: ('A' for Active; 'I' for Inactive)
REMARK    1  A    between atoms: C_4  and  C_11
REMARK    2  A    between atoms: C_11  and  O_12
REMARK                            x       y       z     vdW  Elec       q    Type
REMARK                         _______ _______ _______ _____ _____    ______ ____
ROOT
ATOM      1  N   UNL     1       1.099  -1.064   0.076  0.00  0.00    -0.340 NA
ATOM      2  N   UNL     1       1.297   1.333  -0.074  0.00  0.00    -0.186 NA
ATOM      3  N   UNL     1      -1.026  -2.102  -0.108  0.00  0.00    -0.332 N 
ATOM      4  C   UNL     1      -0.864   0.288  -0.262  0.00  0.00    +0.071 C 
ATOM      5  C   UNL     1      -0.232  -0.928  -0.096  0.00  0.00    +0.188 C 
ATOM      6  C   UNL     1      -0.041   1.395  -0.242  0.00  0.00    +0.112 C 
ATOM      7  C   UNL     1       1.793   0.090   0.077  0.00  0.00    +0.066 C 
ATOM      8  C   UNL     1       3.268  -0.020   0.265  0.00  0.00    +0.129 C 
ATOM      9  H   UNL     1      -0.603  -2.983   0.008  0.00  0.00    +0.145 HD
ATOM     10  H   UNL     1      -2.000  -2.036  -0.232  0.00  0.00    +0.145 HD
ENDROOT
BRANCH   4  11
ATOM     11  C   UNL     1      -2.330   0.433  -0.452  0.00  0.00    +0.169 C 
BRANCH  11  12
ATOM     12  O   UNL     1      -2.964   0.577   0.815  0.00  0.00    -0.377 OA
ATOM     13  H   UNL     1      -3.921   0.672   0.689  0.00  0.00    +0.211 HD
ENDBRANCH  11  12
ENDBRANCH   4  11
TORSDOF 2
