REMARK  Name = 263
REMARK  3 active torsions:
REMARK  status: ('A' for Active; 'I' for Inactive)
REMARK    1  A    between atoms: C_1  and  C_2
REMARK    2  A    between atoms: C_1  and  C_4
REMARK    3  A    between atoms: C_4  and  O_5
REMARK                            x       y       z     vdW  Elec       q    Type
REMARK                         _______ _______ _______ _____ _____    ______ ____
ROOT
ATOM      1  C   UNL     1      -0.025   0.342   0.019  0.00  0.00    +0.032 C 
ENDROOT
BRANCH   1   2
ATOM      2  C   UNL     1       1.236  -0.518   0.006  0.00  0.00    +0.003 C 
ATOM      3  C   UNL     1       2.493   0.336  -0.013  0.00  0.00    +0.000 C 
ENDBRANCH   1   2
BRANCH   1   4
ATOM      4  C   UNL     1      -1.286  -0.509  -0.006  0.00  0.00    +0.137 C 
BRANCH   4   5
ATOM      5  O   UNL     1      -2.419   0.349  -0.007  0.00  0.00    -0.382 OA
ATOM      6  H   UNL     1      -3.229  -0.185  -0.023  0.00  0.00    +0.210 HD
ENDBRANCH   4   5
ENDBRANCH   1   4
TORSDOF 3
