REMARK  Name = 5723
REMARK  4 active torsions:
REMARK  status: ('A' for Active; 'I' for Inactive)
REMARK    1  A    between atoms: C_1  and  C_10
REMARK    2  A    between atoms: C_3  and  O_15
REMARK    3  A    between atoms: C_4  and  O_17
REMARK    4  A    between atoms: O_17  and  C_20
REMARK                            x       y       z     vdW  Elec       q    Type
REMARK                         _______ _______ _______ _____ _____    ______ ____
ROOT
ATOM      1  C   UNL     1      -0.628  -0.067   0.127  0.00  0.00    +0.022 C 
ATOM      2  C   UNL     1       0.047   1.152   0.174  0.00  0.00    +0.042 C 
ATOM      3  C   UNL     1       1.441   1.175   0.237  0.00  0.00    +0.173 C 
ATOM      4  C   UNL     1       2.158  -0.021   0.253  0.00  0.00    +0.178 C 
ATOM      5  C   UNL     1       0.089  -1.263   0.144  0.00  0.00    +0.005 C 
ATOM      6  C   UNL     1       1.482  -1.240   0.206  0.00  0.00    +0.040 C 
ENDROOT
BRANCH   1  10
ATOM      7  O   UNL     1      -6.077  -0.218  -0.128  0.00  0.00    -0.268 OA
ATOM      8  N   UNL     1      -2.782   0.880   0.596  0.00  0.00    -0.179 NA
ATOM      9  N   UNL     1      -4.133   0.821   0.519  0.00  0.00    -0.202 N 
ATOM     10  C   UNL     1      -2.114  -0.092   0.059  0.00  0.00    +0.099 C 
ATOM     11  C   UNL     1      -2.728  -1.239  -0.647  0.00  0.00    +0.025 C 
ATOM     12  C   UNL     1      -4.059  -1.268  -0.703  0.00  0.00    +0.061 C 
ATOM     13  C   UNL     1      -4.849  -0.186  -0.083  0.00  0.00    +0.265 C 
ATOM     14  H   UNL     1      -4.642   1.558   0.927  0.00  0.00    +0.178 HD
ENDBRANCH   1  10
BRANCH   3  15
ATOM     15  O   UNL     1       2.089   2.373   0.282  0.00  0.00    -0.468 OA
ATOM     16  C   UNL     1       2.455   2.959  -0.966  0.00  0.00    +0.253 C 
ENDBRANCH   3  15
BRANCH   4  17
ATOM     17  O   UNL     1       3.519  -0.011   0.316  0.00  0.00    -0.421 OA
BRANCH  17  20
ATOM     18  F   UNL     1       5.411  -0.622  -0.721  0.00  0.00    -0.155 F 
ATOM     19  F   UNL     1       4.471  -2.040   0.633  0.00  0.00    -0.155 F 
ATOM     20  C   UNL     1       4.209  -1.092  -0.299  0.00  0.00    +0.509 C 
ENDBRANCH  17  20
ENDBRANCH   4  17
TORSDOF 4
