REMARK  Name = 447249
REMARK  11 active torsions:
REMARK  status: ('A' for Active; 'I' for Inactive)
REMARK    1  A    between atoms: C_3  and  C_6
REMARK    2  A    between atoms: C_4  and  C_18
REMARK    3  A    between atoms: C_5  and  O_10
REMARK    4  A    between atoms: O_10  and  C_11
REMARK    5  A    between atoms: C_11  and  P_12
REMARK    6  A    between atoms: P_12  and  O_14
REMARK    7  A    between atoms: P_12  and  O_16
REMARK    8  A    between atoms: C_18  and  CA_19
REMARK    9  A    between atoms: CA_19  and  N_20
REMARK   10  A    between atoms: CA_19  and  C_25
REMARK   11  A    between atoms: C_25  and  O_26
REMARK                            x       y       z     vdW  Elec       q    Type
REMARK                         _______ _______ _______ _____ _____    ______ ____
ROOT
ATOM      1  O   UNL     1      -1.109  -2.249  -0.510  0.00  0.00    -0.355 OA
ATOM      2  N   UNL     1       0.269  -2.104  -0.399  0.00  0.00    -0.040 NA
ATOM      3  C   UNL     1      -1.640  -1.185   0.074  0.00  0.00    +0.153 A 
ATOM      4  C   UNL     1      -0.774  -0.328   0.573  0.00  0.00    +0.065 A 
ATOM      5  C   UNL     1       0.445  -0.951   0.251  0.00  0.00    +0.260 A 
ENDROOT
BRANCH   3   6
ATOM      6  C   UNL     1      -3.187  -1.179   0.044  0.00  0.00    +0.054 C 
ATOM      7  C   UNL     1      -3.692   0.071  -0.708  0.00  0.00    +0.008 C 
ATOM      8  C   UNL     1      -3.740  -1.168   1.486  0.00  0.00    +0.008 C 
ATOM      9  C   UNL     1      -3.789  -2.412  -0.665  0.00  0.00    +0.008 C 
ENDBRANCH   3   6
BRANCH   5  10
ATOM     10  O   UNL     1       1.694  -0.540   0.509  0.00  0.00    -0.445 OA
BRANCH  10  11
ATOM     11  C   UNL     1       2.620  -0.992  -0.486  0.00  0.00    +0.321 C 
BRANCH  11  12
ATOM     12  P   UNL     1       4.208  -0.373   0.040  0.00  0.00    +0.381 P 
ATOM     13  O   UNL     1       4.650  -0.845   1.393  0.00  0.00    -0.254 OA
BRANCH  12  14
ATOM     14  O   UNL     1       4.046   1.228  -0.107  0.00  0.00    -0.321 OA
ATOM     15  H   UNL     1       4.871   1.663   0.160  0.00  0.00    +0.220 HD
ENDBRANCH  12  14
BRANCH  12  16
ATOM     16  O   UNL     1       5.193  -0.761  -1.182  0.00  0.00    -0.321 OA
ATOM     17  H   UNL     1       6.092  -0.459  -0.981  0.00  0.00    +0.220 HD
ENDBRANCH  12  16
ENDBRANCH  11  12
ENDBRANCH  10  11
ENDBRANCH   5  10
BRANCH   4  18
ATOM     18  C   UNL     1      -0.988   0.944   1.281  0.00  0.00    +0.023 C 
BRANCH  18  19
ATOM     19  CA  UNL     1      -0.360   2.178   0.588  0.00  0.00    +0.040 C 
BRANCH  19  20
ATOM     20  N   UNL     1      -0.614   3.391   1.370  0.00  0.00    +0.389 N 
ATOM     21  H1  UNL     1      -0.215   3.285   2.302  0.00  0.00    -0.088 HD
ATOM     22  H2  UNL     1      -1.620   3.542   1.446  0.00  0.00    -0.088 HD
ATOM     23  H3  UNL     1      -0.185   4.191   0.905  0.00  0.00    -0.088 HD
ENDBRANCH  19  20
BRANCH  19  25
ATOM     24  OXT UNL     1      -1.996   3.051  -0.998  0.00  0.00    -0.253 OA
ATOM     25  C   UNL     1      -0.979   2.403  -0.782  0.00  0.00    +0.293 C 
BRANCH  25  26
ATOM     26  O   UNL     1      -0.257   1.821  -1.774  0.00  0.00    -0.482 OA
ATOM     27  H   UNL     1       0.516   1.333  -1.567  0.00  0.00    +0.295 HD
ENDBRANCH  25  26
ENDBRANCH  19  25
ENDBRANCH  18  19
ENDBRANCH   4  18
TORSDOF 11
