REMARK  Name = 6971307
REMARK  7 active torsions:
REMARK  status: ('A' for Active; 'I' for Inactive)
REMARK    1  A    between atoms: CA_1  and  N_2
REMARK    2  A    between atoms: CA_1  and  C_7
REMARK    3  A    between atoms: CA_1  and  C_10
REMARK    4  A    between atoms: C_7  and  O_8
REMARK    5  A    between atoms: C_10  and  C_11
REMARK    6  A    between atoms: C_11  and  P_12
REMARK    7  A    between atoms: P_12  and  O_15
REMARK                            x       y       z     vdW  Elec       q    Type
REMARK                         _______ _______ _______ _____ _____    ______ ____
ROOT
ATOM      1  CA  UNL     1      -1.065   0.317   0.125  0.00  0.00    +0.036 C 
ENDROOT
BRANCH   1   2
ATOM      2  N   UNL     1      -1.193   1.773   0.128  0.00  0.00    +0.389 N 
ATOM      3  H1  UNL     1      -0.265   2.196   0.120  0.00  0.00    -0.088 HD
ATOM      4  H2  UNL     1      -1.694   2.069   0.966  0.00  0.00    -0.088 HD
ATOM      5  H3  UNL     1      -1.710   2.070  -0.699  0.00  0.00    -0.088 HD
ENDBRANCH   1   2
BRANCH   1   7
ATOM      6  OXT UNL     1      -3.506   0.364   0.087  0.00  0.00    -0.253 OA
ATOM      7  C   UNL     1      -2.464  -0.276   0.138  0.00  0.00    +0.293 C 
BRANCH   7   8
ATOM      8  O   UNL     1      -2.439  -1.634   0.203  0.00  0.00    -0.482 OA
ATOM      9  H   UNL     1      -1.619  -2.086   0.241  0.00  0.00    +0.295 HD
ENDBRANCH   7   8
ENDBRANCH   1   7
BRANCH   1  10
ATOM     10  C   UNL     1      -0.292  -0.187  -1.101  0.00  0.00    -0.001 C 
BRANCH  10  11
ATOM     11  C   UNL     1       1.126   0.365  -1.207  0.00  0.00    +0.085 C 
BRANCH  11  12
ATOM     12  P   UNL     1       2.183  -0.015   0.205  0.00  0.00    +0.220 P 
ATOM     13  O   UNL     1       1.757   0.670   1.457  0.00  0.00    -0.290 OA
ATOM     14  C   UNL     1       2.252  -1.782   0.299  0.00  0.00    +0.097 C 
BRANCH  12  15
ATOM     15  O   UNL     1       3.642   0.403  -0.335  0.00  0.00    -0.343 OA
ATOM     16  H   UNL     1       3.692   1.368  -0.417  0.00  0.00    +0.218 HD
ENDBRANCH  12  15
ENDBRANCH  11  12
ENDBRANCH  10  11
ENDBRANCH   1  10
TORSDOF 7
