REMARK  Name = 473
REMARK  5 active torsions:
REMARK  status: ('A' for Active; 'I' for Inactive)
REMARK    1  A    between atoms: C_2  and  C_4
REMARK    2  A    between atoms: C_2  and  C_7
REMARK    3  A    between atoms: C_4  and  O_5
REMARK    4  A    between atoms: C_7  and  C_8
REMARK    5  A    between atoms: C_8  and  S_9
REMARK                            x       y       z     vdW  Elec       q    Type
REMARK                         _______ _______ _______ _____ _____    ______ ____
ROOT
ATOM      1  O   UNL     1       0.882   1.593   0.010  0.00  0.00    -0.284 OA
ATOM      2  C   UNL     1       0.881   0.371   0.005  0.00  0.00    +0.249 C 
ENDROOT
BRANCH   2   4
ATOM      3  O   UNL     1       2.319  -1.526   0.027  0.00  0.00    -0.242 OA
ATOM      4  C   UNL     1       2.216  -0.317  -0.013  0.00  0.00    +0.373 C 
BRANCH   4   5
ATOM      5  O   UNL     1       3.200   0.592  -0.020  0.00  0.00    -0.475 OA
ATOM      6  H   UNL     1       2.993   1.505  -0.053  0.00  0.00    +0.295 HD
ENDBRANCH   4   5
ENDBRANCH   2   4
BRANCH   2   7
ATOM      7  C   UNL     1      -0.343  -0.519  -0.005  0.00  0.00    +0.088 C 
BRANCH   7   8
ATOM      8  C   UNL     1      -1.658   0.254   0.010  0.00  0.00    +0.066 C 
BRANCH   8   9
ATOM      9  S   UNL     1      -3.101  -0.854  -0.026  0.00  0.00    -0.139 S 
ATOM     10  C   UNL     1      -4.395   0.406   0.012  0.00  0.00    +0.069 C 
ENDBRANCH   8   9
ENDBRANCH   7   8
ENDBRANCH   2   7
TORSDOF 5
