REMARK  Name = 6323416
REMARK  6 active torsions:
REMARK  status: ('A' for Active; 'I' for Inactive)
REMARK    1  A    between atoms: N_1  and  C_6
REMARK    2  A    between atoms: C_2  and  C_19
REMARK    3  A    between atoms: C_7  and  C_13
REMARK    4  A    between atoms: C_13  and  N_14
REMARK    5  A    between atoms: C_18  and  C_20
REMARK    6  A    between atoms: C_18  and  C_26
REMARK                            x       y       z     vdW  Elec       q    Type
REMARK                         _______ _______ _______ _____ _____    ______ ____
ROOT
ATOM      1  N   UNL     1      -1.164  -1.185  -0.916  0.00  0.00    -0.243 NA
ATOM      2  C   UNL     1      -0.201  -0.448  -0.458  0.00  0.00    +0.099 C 
ENDROOT
BRANCH   1   6
ATOM      3  N   UNL     1      -4.153   0.678  -1.887  0.00  0.00    -0.153 NA
ATOM      4  N   UNL     1      -4.961   0.499  -0.797  0.00  0.00    -0.153 NA
ATOM      5  C   UNL     1      -3.270  -0.813   0.267  0.00  0.00    +0.017 A 
ATOM      6  C   UNL     1      -2.450  -0.628  -0.845  0.00  0.00    +0.092 A 
ATOM      7  C   UNL     1      -2.929   0.122  -1.897  0.00  0.00    +0.076 A 
ATOM      8  C   UNL     1      -4.546  -0.223   0.258  0.00  0.00    +0.083 A 
ATOM      9  C   UNL     1      -2.848  -1.566   1.376  0.00  0.00    +0.055 C 
ATOM     10  C   UNL     1      -5.368  -0.404   1.366  0.00  0.00    +0.073 C 
ATOM     11  C   UNL     1      -3.688  -1.734   2.474  0.00  0.00    -0.025 C 
ATOM     12  C   UNL     1      -4.950  -1.153   2.469  0.00  0.00    -0.024 C 
BRANCH   7  13
ATOM     13  C   UNL     1      -2.107   0.361  -3.118  0.00  0.00    -0.035 C 
BRANCH  13  14
ATOM     14  N   UNL     1      -1.300   1.550  -3.011  0.00  0.00    +0.384 N 
ATOM     15  H   UNL     1      -0.758   1.670  -3.867  0.00  0.00    -0.089 HD
ATOM     16  H   UNL     1      -0.667   1.460  -2.217  0.00  0.00    -0.089 HD
ATOM     17  H   UNL     1      -1.904   2.360  -2.874  0.00  0.00    -0.089 HD
ENDBRANCH  13  14
ENDBRANCH   7  13
ENDBRANCH   1   6
BRANCH   2  19
ATOM     18  C   UNL     1       2.260  -0.189  -0.024  0.00  0.00    +0.002 C 
ATOM     19  C   UNL     1       1.209  -0.907  -0.473  0.00  0.00    +0.021 C 
BRANCH  18  20
ATOM     20  C   UNL     1       2.080   1.163   0.553  0.00  0.00    +0.000 C 
ATOM     21  C   UNL     1       2.147   2.263  -0.281  0.00  0.00    +0.000 C 
ATOM     22  C   UNL     1       1.848   1.288   1.909  0.00  0.00    +0.000 C 
ATOM     23  C   UNL     1       1.975   3.536   0.263  0.00  0.00    +0.000 C 
ATOM     24  C   UNL     1       1.677   2.561   2.453  0.00  0.00    +0.000 C 
ATOM     25  C   UNL     1       1.740   3.685   1.629  0.00  0.00    +0.000 C 
ENDBRANCH  18  20
BRANCH  18  26
ATOM     26  C   UNL     1       3.601  -0.824  -0.124  0.00  0.00    +0.000 C 
ATOM     27  C   UNL     1       4.053  -1.595   0.926  0.00  0.00    +0.000 C 
ATOM     28  C   UNL     1       4.347  -0.622  -1.266  0.00  0.00    +0.000 C 
ATOM     29  C   UNL     1       5.310  -2.192   0.830  0.00  0.00    +0.000 C 
ATOM     30  C   UNL     1       5.604  -1.219  -1.362  0.00  0.00    +0.000 C 
ATOM     31  C   UNL     1       6.085  -2.004  -0.314  0.00  0.00    +0.000 C 
ENDBRANCH  18  26
ENDBRANCH   2  19
TORSDOF 6
