REMARK  Name = 449096
REMARK  6 active torsions:
REMARK  status: ('A' for Active; 'I' for Inactive)
REMARK    1  A    between atoms: S_1  and  C_5
REMARK    2  A    between atoms: S_1  and  N_15
REMARK    3  A    between atoms: C_7  and  C_10
REMARK    4  A    between atoms: N_15  and  C_17
REMARK    5  A    between atoms: C_20  and  C_25
REMARK    6  A    between atoms: N_24  and  O_27
REMARK                            x       y       z     vdW  Elec       q    Type
REMARK                         _______ _______ _______ _____ _____    ______ ____
ROOT
ATOM      1  S   UNL     1      -0.528  -3.287   0.663  0.00  0.00    +0.082 S 
ATOM      2  O   UNL     1      -0.252  -4.678   0.355  0.00  0.00    -0.149 OA
ATOM      3  O   UNL     1      -0.636  -2.858   2.045  0.00  0.00    -0.149 OA
ENDROOT
BRANCH   1   5
ATOM      4  S   UNL     1       1.185  -0.924   0.812  0.00  0.00    -0.065 S 
ATOM      5  C   UNL     1       0.888  -2.387   0.010  0.00  0.00    +0.155 C 
ATOM      6  C   UNL     1       1.747  -2.664  -0.992  0.00  0.00    +0.027 C 
ATOM      7  C   UNL     1       2.525  -0.619  -0.209  0.00  0.00    +0.048 C 
ATOM      8  C   UNL     1       2.715  -1.628  -1.128  0.00  0.00    +0.010 C 
BRANCH   7  10
ATOM      9  N   UNL     1       2.567   1.633   0.458  0.00  0.00    -0.243 NA
ATOM     10  C   UNL     1       3.284   0.595  -0.021  0.00  0.00    +0.087 C 
ATOM     11  C   UNL     1       4.634   0.648  -0.319  0.00  0.00    +0.020 C 
ATOM     12  C   UNL     1       5.295   1.853  -0.110  0.00  0.00    +0.003 C 
ATOM     13  C   UNL     1       3.244   2.788   0.648  0.00  0.00    +0.099 C 
ATOM     14  C   UNL     1       4.595   2.948   0.382  0.00  0.00    +0.021 C 
ENDBRANCH   7  10
ENDBRANCH   1   5
BRANCH   1  15
ATOM     15  N   UNL     1      -1.920  -2.744  -0.230  0.00  0.00    -0.188 N 
ATOM     16  C   UNL     1      -2.154  -3.407  -1.549  0.00  0.00    +0.139 C 
BRANCH  15  17
ATOM     17  C   UNL     1      -2.215  -1.350  -0.145  0.00  0.00    +0.069 C 
ATOM     18  C   UNL     1      -2.632  -0.797   1.066  0.00  0.00    +0.016 C 
ATOM     19  C   UNL     1      -2.085  -0.540  -1.273  0.00  0.00    +0.016 C 
ATOM     20  C   UNL     1      -2.789   1.375   0.021  0.00  0.00    +0.055 C 
ATOM     21  C   UNL     1      -2.919   0.565   1.149  0.00  0.00    +0.006 C 
ATOM     22  C   UNL     1      -2.372   0.823  -1.190  0.00  0.00    +0.006 C 
BRANCH  20  25
ATOM     23  O   UNL     1      -3.908   3.223   0.942  0.00  0.00    -0.268 OA
ATOM     24  N   UNL     1      -2.438   3.636  -0.785  0.00  0.00    -0.193 N 
ATOM     25  C   UNL     1      -3.089   2.796   0.107  0.00  0.00    +0.268 C 
ATOM     26  H   UNL     1      -1.792   3.289  -1.442  0.00  0.00    +0.183 HD
BRANCH  24  27
ATOM     27  O   UNL     1      -2.743   5.002  -0.705  0.00  0.00    -0.295 OA
ATOM     28  H   UNL     1      -2.232   5.487  -1.372  0.00  0.00    +0.241 HD
ENDBRANCH  24  27
ENDBRANCH  20  25
ENDBRANCH  15  17
ENDBRANCH   1  15
TORSDOF 6
