REMARK  Name = 17753872
REMARK  6 active torsions:
REMARK  status: ('A' for Active; 'I' for Inactive)
REMARK    1  A    between atoms: C_1  and  C_3
REMARK    2  A    between atoms: C_1  and  C_6
REMARK    3  A    between atoms: C_1  and  C_11
REMARK    4  A    between atoms: C_3  and  O_4
REMARK    5  A    between atoms: C_6  and  N_7
REMARK    6  A    between atoms: C_11  and  O_12
REMARK                            x       y       z     vdW  Elec       q    Type
REMARK                         _______ _______ _______ _____ _____    ______ ____
ROOT
ATOM      1  C   UNL     1      -0.101   0.257   0.488  0.00  0.00    +0.106 C 
ENDROOT
BRANCH   1   3
ATOM      2  O   UNL     1       1.722  -0.863  -0.688  0.00  0.00    -0.250 OA
ATOM      3  C   UNL     1       1.323   0.085  -0.025  0.00  0.00    +0.314 C 
BRANCH   3   4
ATOM      4  O   UNL     1       2.130   1.112   0.349  0.00  0.00    -0.480 OA
ATOM      5  H   UNL     1       1.784   1.819   0.857  0.00  0.00    +0.295 HD
ENDBRANCH   3   4
ENDBRANCH   1   3
BRANCH   1   6
ATOM      6  C   UNL     1      -0.914   1.042  -0.552  0.00  0.00    -0.072 C 
BRANCH   6   7
ATOM      7  N   UNL     1      -2.287   1.260  -0.114  0.00  0.00    +0.381 N 
ATOM      8  H   UNL     1      -2.794   1.783  -0.829  0.00  0.00    -0.089 HD
ATOM      9  H   UNL     1      -2.286   1.790   0.757  0.00  0.00    -0.089 HD
ATOM     10  H   UNL     1      -2.743   0.360   0.036  0.00  0.00    -0.089 HD
ENDBRANCH   6   7
ENDBRANCH   1   6
BRANCH   1  11
ATOM     11  C   UNL     1      -0.709  -1.106   0.852  0.00  0.00    +0.146 C 
BRANCH  11  12
ATOM     12  O   UNL     1      -1.163  -1.788  -0.310  0.00  0.00    -0.381 OA
ATOM     13  H   UNL     1      -1.542  -2.644  -0.056  0.00  0.00    +0.210 HD
ENDBRANCH  11  12
ENDBRANCH   1  11
TORSDOF 6
