REMARK  Name = 65177
REMARK  8 active torsions:
REMARK  status: ('A' for Active; 'I' for Inactive)
REMARK    1  A    between atoms: C_2  and  O_16
REMARK    2  A    between atoms: C_3  and  O_18
REMARK    3  A    between atoms: C_4  and  C_20
REMARK    4  A    between atoms: C_5  and  N_7
REMARK    5  A    between atoms: C_20  and  O_21
REMARK    6  A    between atoms: O_21  and  P_22
REMARK    7  A    between atoms: P_22  and  O_24
REMARK    8  A    between atoms: P_22  and  O_26
REMARK                            x       y       z     vdW  Elec       q    Type
REMARK                         _______ _______ _______ _____ _____    ______ ____
ROOT
ATOM      1  O   UNL     1       0.386  -0.750   0.974  0.00  0.00    -0.332 OA
ATOM      2  C   UNL     1       0.872  -2.591  -0.470  0.00  0.00    +0.171 C 
ATOM      3  C   UNL     1      -0.479  -2.011  -0.830  0.00  0.00    +0.188 C 
ATOM      4  C   UNL     1       1.480  -1.535   0.455  0.00  0.00    +0.176 C 
ATOM      5  C   UNL     1      -0.842  -1.267   0.446  0.00  0.00    +0.236 C 
ENDROOT
BRANCH   5   7
ATOM      6  O   UNL     1      -3.637  -1.474   0.740  0.00  0.00    -0.193 OA
ATOM      7  N   UNL     1      -1.776  -0.197   0.257  0.00  0.00    -0.178 N 
ATOM      8  N   UNL     1      -4.018   0.704   0.224  0.00  0.00    -0.306 NA
ATOM      9  N   UNL     1      -4.402   2.935  -0.306  0.00  0.00    -0.332 N 
ATOM     10  C   UNL     1      -1.296   1.055  -0.102  0.00  0.00    +0.083 C 
ATOM     11  C   UNL     1      -3.175  -0.376   0.423  0.00  0.00    +0.276 C 
ATOM     12  C   UNL     1      -2.090   2.106  -0.299  0.00  0.00    +0.065 C 
ATOM     13  C   UNL     1      -3.546   1.875  -0.113  0.00  0.00    +0.193 C 
ATOM     14  H   UNL     1      -5.372   2.813  -0.190  0.00  0.00    +0.145 HD
ATOM     15  H   UNL     1      -4.044   3.817  -0.560  0.00  0.00    +0.145 HD
ENDBRANCH   5   7
BRANCH   2  16
ATOM     16  O   UNL     1       0.685  -3.790   0.280  0.00  0.00    -0.379 OA
ATOM     17  H   UNL     1       0.300  -4.472  -0.292  0.00  0.00    +0.211 HD
ENDBRANCH   2  16
BRANCH   3  18
ATOM     18  O   UNL     1      -0.311  -1.115  -1.921  0.00  0.00    -0.378 OA
ATOM     19  H   UNL     1      -0.080  -1.616  -2.719  0.00  0.00    +0.211 HD
ENDBRANCH   3  18
BRANCH   4  20
ATOM     20  C   UNL     1       2.437  -0.588  -0.256  0.00  0.00    +0.186 C 
BRANCH  20  21
ATOM     21  O   UNL     1       2.929   0.351   0.685  0.00  0.00    -0.271 OA
BRANCH  21  22
ATOM     22  P   UNL     1       3.975   1.477   0.177  0.00  0.00    +0.473 P 
ATOM     23  O   UNL     1       4.445   2.429   1.237  0.00  0.00    -0.227 OA
BRANCH  22  24
ATOM     24  O   UNL     1       3.222   2.160  -1.081  0.00  0.00    -0.303 OA
ATOM     25  H   UNL     1       2.955   1.472  -1.710  0.00  0.00    +0.222 HD
ENDBRANCH  22  24
BRANCH  22  26
ATOM     26  O   UNL     1       5.141   0.600  -0.519  0.00  0.00    -0.303 OA
ATOM     27  H   UNL     1       4.751   0.015  -1.188  0.00  0.00    +0.222 HD
ENDBRANCH  22  26
ENDBRANCH  21  22
ENDBRANCH  20  21
ENDBRANCH   4  20
TORSDOF 8
