REMARK  Name = 79014
REMARK  4 active torsions:
REMARK  status: ('A' for Active; 'I' for Inactive)
REMARK    1  A    between atoms: C_1  and  O_2
REMARK    2  A    between atoms: C_1  and  C_5
REMARK    3  A    between atoms: C_1  and  C_6
REMARK    4  A    between atoms: C_6  and  O_7
REMARK                            x       y       z     vdW  Elec       q    Type
REMARK                         _______ _______ _______ _____ _____    ______ ____
ROOT
ATOM      1  C   UNL     1      -0.045   0.572  -0.560  0.00  0.00    +0.205 C 
ENDROOT
BRANCH   1   2
ATOM      2  O   UNL     1       0.070   1.417   0.569  0.00  0.00    -0.375 OA
ATOM      3  H   UNL     1      -0.630   2.088   0.544  0.00  0.00    +0.211 HD
ENDBRANCH   1   2
BRANCH   1   5
ATOM      4  O   UNL     1       1.882  -0.559   0.387  0.00  0.00    -0.286 OA
ATOM      5  C   UNL     1       1.052  -0.471  -0.513  0.00  0.00    +0.239 C 
ENDBRANCH   1   5
BRANCH   1   6
ATOM      6  C   UNL     1      -1.411  -0.096  -0.535  0.00  0.00    +0.174 C 
BRANCH   6   7
ATOM      7  O   UNL     1      -1.548  -0.864   0.652  0.00  0.00    -0.379 OA
ATOM      8  H   UNL     1      -2.420  -1.288   0.663  0.00  0.00    +0.211 HD
ENDBRANCH   6   7
ENDBRANCH   1   6
TORSDOF 4
