REMARK  Name = 1893
REMARK  1 active torsions:
REMARK  status: ('A' for Active; 'I' for Inactive)
REMARK    1  A    between atoms: C_5  and  N_13
REMARK                            x       y       z     vdW  Elec       q    Type
REMARK                         _______ _______ _______ _____ _____    ______ ____
ROOT
ATOM      1  N   UNL     1       0.834  -1.627   0.000  0.00  0.00    -0.234 N 
ATOM      2  N   UNL     1       2.171  -1.757   0.000  0.00  0.00    -0.180 NA
ATOM      3  C   UNL     1       0.396  -0.331   0.000  0.00  0.00    +0.089 C 
ATOM      4  C   UNL     1       1.549   0.445   0.000  0.00  0.00    +0.037 C 
ATOM      5  C   UNL     1      -0.890   0.216   0.000  0.00  0.00    +0.158 C 
ATOM      6  C   UNL     1       1.437   1.846   0.000  0.00  0.00    +0.003 C 
ATOM      7  C   UNL     1      -0.985   1.611   0.000  0.00  0.00    +0.025 C 
ATOM      8  C   UNL     1       2.603  -0.494   0.000  0.00  0.00    +0.119 C 
ATOM      9  C   UNL     1       0.157   2.414   0.000  0.00  0.00    +0.002 C 
ATOM     10  H   UNL     1       0.222  -2.399   0.000  0.00  0.00    +0.174 HD
ENDROOT
BRANCH   5  13
ATOM     11  O   UNL     1      -3.189   0.038   0.000  0.00  0.00    -0.126 OA
ATOM     12  O   UNL     1      -1.998  -1.806   0.000  0.00  0.00    -0.126 OA
ATOM     13  N   UNL     1      -2.084  -0.555   0.000  0.00  0.00    +0.059 N 
ENDBRANCH   5  13
TORSDOF 1
