REMARK  Name = 444862
REMARK  14 active torsions:
REMARK  status: ('A' for Active; 'I' for Inactive)
REMARK    1  A    between atoms: C_2  and  C_10
REMARK    2  A    between atoms: C_3  and  C_23
REMARK    3  A    between atoms: C_4  and  O_8
REMARK    4  A    between atoms: C_10  and  N_11
REMARK    5  A    between atoms: N_11  and  CA_14
REMARK    6  A    between atoms: CA_14  and  C_16
REMARK    7  A    between atoms: CA_14  and  C_19
REMARK    8  A    between atoms: C_16  and  O_17
REMARK    9  A    between atoms: C_19  and  C_20
REMARK   10  A    between atoms: C_20  and  C_21
REMARK   11  A    between atoms: C_23  and  O_24
REMARK   12  A    between atoms: O_24  and  P_25
REMARK   13  A    between atoms: P_25  and  O_27
REMARK   14  A    between atoms: P_25  and  O_29
REMARK                            x       y       z     vdW  Elec       q    Type
REMARK                         _______ _______ _______ _____ _____    ______ ____
ROOT
ATOM      1  N   UNL     1       3.787   2.158  -0.757  0.00  0.00    -0.245 NA
ATOM      2  C   UNL     1       1.356   1.197   0.235  0.00  0.00    -0.009 C 
ATOM      3  C   UNL     1       2.196   0.357  -0.489  0.00  0.00    +0.024 C 
ATOM      4  C   UNL     1       1.731   2.517   0.463  0.00  0.00    +0.141 C 
ATOM      5  C   UNL     1       2.945   2.944  -0.049  0.00  0.00    +0.092 C 
ATOM      6  C   UNL     1       3.389   0.881  -0.959  0.00  0.00    +0.096 C 
ATOM      7  C   UNL     1       3.395   4.352   0.167  0.00  0.00    +0.055 C 
ENDROOT
BRANCH   4   8
ATOM      8  O   UNL     1       0.930   3.360   1.167  0.00  0.00    -0.505 OA
ATOM      9  H   UNL     1       0.112   3.054   1.506  0.00  0.00    +0.292 HD
ENDBRANCH   4   8
BRANCH   2  10
ATOM     10  C   UNL     1       0.046   0.683   0.771  0.00  0.00    -0.051 C 
BRANCH  10  11
ATOM     11  N   UNL     1      -1.038   0.871  -0.179  0.00  0.00    +0.395 N 
ATOM     12  H1  UNL     1      -1.137   1.865  -0.383  0.00  0.00    -0.083 HD
ATOM     13  H2  UNL     1      -0.820   0.355  -1.032  0.00  0.00    -0.083 HD
BRANCH  11  14
ATOM     14  CA  UNL     1      -2.298   0.363   0.369  0.00  0.00    +0.040 C 
BRANCH  14  16
ATOM     15  OXT UNL     1      -2.242  -1.722  -0.890  0.00  0.00    -0.253 OA
ATOM     16  C   UNL     1      -2.275  -1.144   0.189  0.00  0.00    +0.293 C 
BRANCH  16  17
ATOM     17  O   UNL     1      -2.324  -1.805   1.375  0.00  0.00    -0.482 OA
ATOM     18  H   UNL     1      -2.348  -1.324   2.178  0.00  0.00    +0.295 HD
ENDBRANCH  16  17
ENDBRANCH  14  16
BRANCH  14  19
ATOM     19  C   UNL     1      -3.475   0.997  -0.382  0.00  0.00    -0.010 C 
BRANCH  19  20
ATOM     20  C   UNL     1      -4.834   0.461   0.081  0.00  0.00    -0.002 C 
BRANCH  20  21
ATOM     21  C   UNL     1      -5.979   1.094  -0.713  0.00  0.00    -0.000 C 
ATOM     22  C   UNL     1      -7.332   0.594  -0.233  0.00  0.00    -0.000 C 
ENDBRANCH  20  21
ENDBRANCH  19  20
ENDBRANCH  14  19
ENDBRANCH  11  14
ENDBRANCH  10  11
ENDBRANCH   2  10
BRANCH   3  23
ATOM     23  C   UNL     1       1.845  -1.064  -0.763  0.00  0.00    +0.181 C 
BRANCH  23  24
ATOM     24  O   UNL     1       2.344  -1.886   0.286  0.00  0.00    -0.268 OA
BRANCH  24  25
ATOM     25  P   UNL     1       2.081  -3.479   0.202  0.00  0.00    +0.473 P 
ATOM     26  O   UNL     1       2.637  -4.277   1.345  0.00  0.00    -0.227 OA
BRANCH  25  27
ATOM     27  O   UNL     1       0.476  -3.566   0.025  0.00  0.00    -0.303 OA
ATOM     28  H   UNL     1       0.204  -3.025  -0.732  0.00  0.00    +0.222 HD
ENDBRANCH  25  27
BRANCH  25  29
ATOM     29  O   UNL     1       2.639  -3.885  -1.261  0.00  0.00    -0.303 OA
ATOM     30  H   UNL     1       2.227  -3.320  -1.932  0.00  0.00    +0.222 HD
ENDBRANCH  25  29
ENDBRANCH  24  25
ENDBRANCH  23  24
ENDBRANCH   3  23
TORSDOF 14
