REMARK  Name = 448658
REMARK  7 active torsions:
REMARK  status: ('A' for Active; 'I' for Inactive)
REMARK    1  A    between atoms: N_2  and  C_18
REMARK    2  A    between atoms: C_3  and  C_6
REMARK    3  A    between atoms: C_7  and  O_12
REMARK    4  A    between atoms: O_12  and  C_13
REMARK    5  A    between atoms: C_13  and  C_15
REMARK    6  A    between atoms: C_15  and  O_16
REMARK    7  A    between atoms: C_18  and  C_24
REMARK                            x       y       z     vdW  Elec       q    Type
REMARK                         _______ _______ _______ _____ _____    ______ ____
ROOT
ATOM      1  O   UNL     1       1.928  -2.799  -0.075  0.00  0.00    -0.270 OA
ATOM      2  N   UNL     1       1.298  -1.061  -1.474  0.00  0.00    -0.294 N 
ATOM      3  C   UNL     1       2.121  -1.683  -0.549  0.00  0.00    +0.249 C 
ATOM      4  H   UNL     1       1.539  -0.162  -1.796  0.00  0.00    +0.150 HD
ENDROOT
BRANCH   3   6
ATOM      5  F   UNL     1       6.593   1.209   1.134  0.00  0.00    -0.204 F 
ATOM      6  C   UNL     1       3.302  -0.899  -0.104  0.00  0.00    +0.087 C 
ATOM      7  C   UNL     1       3.239   0.479  -0.072  0.00  0.00    +0.146 C 
ATOM      8  C   UNL     1       4.438  -1.591   0.266  0.00  0.00    +0.010 C 
ATOM      9  C   UNL     1       4.359   1.196   0.349  0.00  0.00    +0.067 C 
ATOM     10  C   UNL     1       5.558  -0.874   0.688  0.00  0.00    +0.030 C 
ATOM     11  C   UNL     1       5.518   0.520   0.729  0.00  0.00    +0.143 C 
BRANCH   7  12
ATOM     12  O   UNL     1       2.115   1.158  -0.437  0.00  0.00    -0.464 OA
BRANCH  12  13
ATOM     13  C   UNL     1       1.510   1.989   0.551  0.00  0.00    +0.314 C 
BRANCH  13  15
ATOM     14  O   UNL     1      -0.134   2.515  -1.159  0.00  0.00    -0.246 OA
ATOM     15  C   UNL     1       0.282   2.643  -0.017  0.00  0.00    +0.359 C 
BRANCH  15  16
ATOM     16  O   UNL     1      -0.318   3.412   0.927  0.00  0.00    -0.478 OA
ATOM     17  H   UNL     1       0.050   3.471   1.786  0.00  0.00    +0.295 HD
ENDBRANCH  15  16
ENDBRANCH  13  15
ENDBRANCH  12  13
ENDBRANCH   7  12
ENDBRANCH   3   6
BRANCH   2  18
ATOM     18  C   UNL     1       0.097  -1.684  -1.985  0.00  0.00    +0.156 C 
BRANCH  18  24
ATOM     19  S   UNL     1      -1.570  -2.273   0.124  0.00  0.00    -0.072 S 
ATOM     20  F   UNL     1      -3.979   1.729  -1.451  0.00  0.00    -0.199 F 
ATOM     21  F   UNL     1      -3.908  -2.284   2.304  0.00  0.00    -0.207 F 
ATOM     22  F   UNL     1      -5.910   1.594   0.469  0.00  0.00    -0.202 F 
ATOM     23  N   UNL     1      -1.877  -0.283  -1.488  0.00  0.00    -0.399 NA
ATOM     24  C   UNL     1      -1.111  -1.315  -1.216  0.00  0.00    +0.155 C 
ATOM     25  C   UNL     1      -2.919  -0.225  -0.575  0.00  0.00    +0.155 C 
ATOM     26  C   UNL     1      -2.921  -1.236   0.391  0.00  0.00    +0.158 C 
ATOM     27  C   UNL     1      -3.946   0.743  -0.544  0.00  0.00    +0.194 C 
ATOM     28  C   UNL     1      -3.912  -1.312   1.383  0.00  0.00    +0.137 C 
ATOM     29  C   UNL     1      -4.936   0.674   0.441  0.00  0.00    +0.172 C 
ATOM     30  C   UNL     1      -4.917  -0.341   1.391  0.00  0.00    +0.058 C 
ENDBRANCH  18  24
ENDBRANCH   2  18
TORSDOF 7
