REMARK  Name = 4471188
REMARK  5 active torsions:
REMARK  status: ('A' for Active; 'I' for Inactive)
REMARK    1  A    between atoms: C_8  and  O_16
REMARK    2  A    between atoms: C_9  and  C_20
REMARK    3  A    between atoms: C_13  and  O_18
REMARK    4  A    between atoms: C_20  and  C_22
REMARK    5  A    between atoms: C_22  and  O_23
REMARK                            x       y       z     vdW  Elec       q    Type
REMARK                         _______ _______ _______ _____ _____    ______ ____
ROOT
ATOM      1  O   UNL     1      -0.791  -2.060   0.284  0.00  0.00    -0.286 OA
ATOM      2  C   UNL     1      -1.388   2.054  -0.048  0.00  0.00    +0.053 C 
ATOM      3  C   UNL     1      -0.022   1.456   0.154  0.00  0.00    -0.012 C 
ATOM      4  C   UNL     1       0.183   0.077   0.267  0.00  0.00    +0.069 C 
ATOM      5  C   UNL     1      -2.523   1.070  -0.123  0.00  0.00    -0.012 C 
ATOM      6  C   UNL     1      -2.327  -0.311  -0.011  0.00  0.00    +0.069 C 
ATOM      7  C   UNL     1      -0.965  -0.852   0.187  0.00  0.00    +0.201 C 
ATOM      8  C   UNL     1       1.473  -0.436   0.454  0.00  0.00    +0.133 C 
ATOM      9  C   UNL     1       2.564   0.429   0.530  0.00  0.00    +0.023 C 
ATOM     10  C   UNL     1       1.086   2.314   0.233  0.00  0.00    -0.004 C 
ATOM     11  C   UNL     1       2.371   1.804   0.420  0.00  0.00    -0.001 C 
ATOM     12  C   UNL     1      -3.827   1.555  -0.311  0.00  0.00    -0.004 C 
ATOM     13  C   UNL     1      -3.414  -1.191  -0.087  0.00  0.00    +0.136 C 
ATOM     14  C   UNL     1      -4.910   0.679  -0.386  0.00  0.00    +0.003 C 
ATOM     15  C   UNL     1      -4.703  -0.693  -0.274  0.00  0.00    +0.037 C 
ENDROOT
BRANCH   8  16
ATOM     16  O   UNL     1       1.717  -1.774   0.569  0.00  0.00    -0.506 OA
ATOM     17  H   UNL     1       1.008  -2.385   0.523  0.00  0.00    +0.292 HD
ENDBRANCH   8  16
BRANCH  13  18
ATOM     18  O   UNL     1      -3.284  -2.545   0.015  0.00  0.00    -0.505 OA
ATOM     19  H   UNL     1      -2.437  -2.925   0.141  0.00  0.00    +0.292 HD
ENDBRANCH  13  18
BRANCH   9  20
ATOM     20  C   UNL     1       3.949  -0.093   0.730  0.00  0.00    +0.139 C 
BRANCH  20  22
ATOM     21  O   UNL     1       4.193  -0.271  -1.687  0.00  0.00    -0.250 OA
ATOM     22  C   UNL     1       4.673  -0.392  -0.568  0.00  0.00    +0.318 C 
BRANCH  22  23
ATOM     23  O   UNL     1       5.944  -0.820  -0.349  0.00  0.00    -0.480 OA
ATOM     24  H   UNL     1       6.268  -0.897   0.527  0.00  0.00    +0.295 HD
ENDBRANCH  22  23
ENDBRANCH  20  22
ENDBRANCH   9  20
TORSDOF 5
