REMARK  Name = 447867
REMARK  14 active torsions:
REMARK  status: ('A' for Active; 'I' for Inactive)
REMARK    1  A    between atoms: C_1  and  N_3
REMARK    2  A    between atoms: C_1  and  C_15
REMARK    3  A    between atoms: C_1  and  C_22
REMARK    4  A    between atoms: C_4  and  C_6
REMARK    5  A    between atoms: C_6  and  C_7
REMARK    6  A    between atoms: C_7  and  C_8
REMARK    7  A    between atoms: C_8  and  N_9
REMARK    8  A    between atoms: N_14  and  CA_17
REMARK    9  A    between atoms: CA_17  and  C_19
REMARK   10  A    between atoms: C_19  and  O_20
REMARK   11  A    between atoms: C_22  and  S_23
REMARK   12  A    between atoms: S_23  and  C_24
REMARK   13  A    between atoms: C_24  and  C_25
REMARK   14  A    between atoms: C_30  and  O_31
REMARK                            x       y       z     vdW  Elec       q    Type
REMARK                         _______ _______ _______ _____ _____    ______ ____
ROOT
ATOM      1  C   UNK A   1      -2.187   1.084   0.693  0.00  0.00    +0.159 C 
ENDROOT
BRANCH   1   3
ATOM      2  O   UNK A   0      -4.085  -0.900   1.581  0.00  0.00    -0.275 OA
ATOM      3  N   UNK A   1      -2.772   0.025  -0.097  0.00  0.00    -0.298 N 
ATOM      4  C   UNK A   0      -3.681  -0.886   0.421  0.00  0.00    +0.223 C 
ATOM      5  H   UNK A   1      -2.514  -0.053  -1.044  0.00  0.00    +0.150 HD
BRANCH   4   6
ATOM      6  C   UNK A   0      -4.108  -1.905  -0.623  0.00  0.00    +0.083 C 
BRANCH   6   7
ATOM      7  C   UNK A   0      -5.111  -2.936  -0.104  0.00  0.00    -0.014 C 
BRANCH   7   8
ATOM      8  C   UNK A   0      -5.457  -3.988  -1.159  0.00  0.00    -0.086 C 
BRANCH   8   9
ATOM      9  N   UNK A   0      -6.399  -4.958  -0.612  0.00  0.00    +0.380 N 
ATOM     10  H   UNK A   0      -6.622  -5.654  -1.324  0.00  0.00    -0.089 HD
ATOM     11  H   UNK A   0      -7.253  -4.479  -0.326  0.00  0.00    -0.089 HD
ATOM     12  H   UNK A   0      -5.981  -5.420   0.196  0.00  0.00    -0.089 HD
ENDBRANCH   8   9
ENDBRANCH   7   8
ENDBRANCH   6   7
ENDBRANCH   4   6
ENDBRANCH   1   3
BRANCH   1  15
ATOM     13  O   UNK A   1      -2.201   2.303  -1.405  0.00  0.00    -0.273 OA
ATOM     14  N   GLY A   2      -1.534   3.409   0.523  0.00  0.00    -0.294 N 
ATOM     15  C   UNK A   1      -1.992   2.312  -0.193  0.00  0.00    +0.242 C 
ATOM     16  H   GLY A   2      -1.398   3.316   1.494  0.00  0.00    +0.150 HD
BRANCH  14  17
ATOM     17  CA  GLY A   2      -1.250   4.681  -0.098  0.00  0.00    +0.200 C 
BRANCH  17  19
ATOM     18  OXT GLY A   2       0.622   5.799  -1.119  0.00  0.00    -0.248 OA
ATOM     19  C   GLY A   2       0.175   4.797  -0.573  0.00  0.00    +0.334 C 
BRANCH  19  20
ATOM     20  O   GLY A   2       0.915   3.688  -0.341  0.00  0.00    -0.479 OA
ATOM     21  H   GLY A   2       0.527   2.946   0.080  0.00  0.00    +0.295 HD
ENDBRANCH  19  20
ENDBRANCH  17  19
ENDBRANCH  14  17
ENDBRANCH   1  15
BRANCH   1  22
ATOM     22  C   UNK A   1      -0.908   0.640   1.407  0.00  0.00    +0.087 C 
BRANCH  22  23
ATOM     23  S   UNK A   1       0.440   0.170   0.273  0.00  0.00    -0.133 S 
BRANCH  23  24
ATOM     24  C   UNK A   1       1.651  -0.338   1.512  0.00  0.00    +0.084 C 
BRANCH  24  25
ATOM     25  C   UNK A   1       2.939  -0.804   0.890  0.00  0.00    -0.011 C 
ATOM     26  C   UNK A   1       3.965   0.108   0.644  0.00  0.00    -0.000 C 
ATOM     27  C   UNK A   1       3.106  -2.149   0.559  0.00  0.00    -0.000 C 
ATOM     28  C   UNK A   1       5.159  -0.325   0.067  0.00  0.00    +0.037 C 
ATOM     29  C   UNK A   1       4.300  -2.582  -0.018  0.00  0.00    +0.037 C 
ATOM     30  C   UNK A   1       5.326  -1.670  -0.264  0.00  0.00    +0.139 C 
BRANCH  30  31
ATOM     31  O   UNK A   1       6.491  -2.093  -0.826  0.00  0.00    -0.471 OA
ATOM     32  C   UNK A   1       6.595  -3.481  -1.139  0.00  0.00    +0.252 C 
ENDBRANCH  30  31
ENDBRANCH  24  25
ENDBRANCH  23  24
ENDBRANCH  22  23
ENDBRANCH   1  22
TORSDOF 14
