REMARK  Name = 77022
REMARK  0 active torsions:
REMARK  status: ('A' for Active; 'I' for Inactive)
REMARK                            x       y       z     vdW  Elec       q    Type
REMARK                         _______ _______ _______ _____ _____    ______ ____
ROOT
ATOM      1  I   UNL     1      -2.685  -0.067   0.000  0.00  0.00    -0.039 I 
ATOM      2  N   UNL     1       1.426   0.670   0.000  0.00  0.00    -0.234 N 
ATOM      3  N   UNL     1       1.525  -0.670   0.000  0.00  0.00    -0.179 NA
ATOM      4  C   UNL     1       0.141   1.128   0.000  0.00  0.00    +0.087 C 
ATOM      5  C   UNL     1      -0.656   0.009   0.000  0.00  0.00    +0.067 C 
ATOM      6  C   UNL     1       0.250  -1.069   0.000  0.00  0.00    +0.125 C 
ATOM      7  H   UNL     1       2.209   1.267  -0.001  0.00  0.00    +0.174 HD
ENDROOT
TORSDOF 0
