REMARK  Name = 446127
REMARK  5 active torsions:
REMARK  status: ('A' for Active; 'I' for Inactive)
REMARK    1  A    between atoms: C_1  and  C_2
REMARK    2  A    between atoms: C_1  and  C_8
REMARK    3  A    between atoms: C_8  and  O_9
REMARK    4  A    between atoms: C_8  and  C_11
REMARK    5  A    between atoms: C_11  and  O_12
REMARK                            x       y       z     vdW  Elec       q    Type
REMARK                         _______ _______ _______ _____ _____    ______ ____
ROOT
ATOM      1  C   UNL     1       0.752   0.173   0.999  0.00  0.00    +0.058 C 
ENDROOT
BRANCH   1   2
ATOM      2  C   UNL     1      -0.662   0.116   0.469  0.00  0.00    -0.020 C 
ATOM      3  C   UNL     1      -1.283   1.286   0.065  0.00  0.00    -0.004 C 
ATOM      4  C   UNL     1      -1.310  -1.107   0.397  0.00  0.00    -0.004 C 
ATOM      5  C   UNL     1      -2.588   1.233  -0.424  0.00  0.00    -0.000 C 
ATOM      6  C   UNL     1      -2.615  -1.160  -0.092  0.00  0.00    -0.000 C 
ATOM      7  C   UNL     1      -3.254   0.010  -0.503  0.00  0.00    -0.000 C 
ENDBRANCH   1   2
BRANCH   1   8
ATOM      8  C   UNL     1       1.794   0.008  -0.112  0.00  0.00    +0.144 C 
BRANCH   8   9
ATOM      9  O   UNL     1       1.881  -1.377  -0.452  0.00  0.00    -0.382 OA
ATOM     10  H   UNL     1       1.014  -1.692  -0.752  0.00  0.00    +0.210 HD
ENDBRANCH   8   9
BRANCH   8  11
ATOM     11  C   UNL     1       3.171   0.475   0.356  0.00  0.00    +0.167 C 
BRANCH  11  12
ATOM     12  O   UNL     1       4.113   0.343  -0.703  0.00  0.00    -0.379 OA
ATOM     13  H   UNL     1       4.985   0.640  -0.400  0.00  0.00    +0.211 HD
ENDBRANCH  11  12
ENDBRANCH   8  11
ENDBRANCH   1   8
TORSDOF 5
