REMARK  Name = 5287494
REMARK  9 active torsions:
REMARK  status: ('A' for Active; 'I' for Inactive)
REMARK    1  A    between atoms: C_1  and  N_2
REMARK    2  A    between atoms: C_1  and  C_13
REMARK    3  A    between atoms: N_3  and  C_10
REMARK    4  A    between atoms: C_10  and  C_11
REMARK    5  A    between atoms: C_13  and  C_14
REMARK    6  A    between atoms: C_14  and  C_15
REMARK    7  A    between atoms: C_15  and  N_16
REMARK    8  A    between atoms: C_15  and  C_21
REMARK    9  A    between atoms: C_21  and  O_22
REMARK                            x       y       z     vdW  Elec       q    Type
REMARK                         _______ _______ _______ _____ _____    ______ ____
ROOT
ATOM      1  C   UNK     1      -0.240   1.245  -0.603  0.00  0.00    +0.100 C 
ENDROOT
BRANCH   1   2
ATOM      2  N   UNK     1       0.880   0.366  -0.296  0.00  0.00    -0.347 N 
ATOM      3  N   UNK     1       3.200  -0.081   0.172  0.00  0.00    -0.347 N 
ATOM      4  N   UNK     1       2.471   2.203  -0.230  0.00  0.00    -0.371 N 
ATOM      5  C   UNK     1       2.188   0.841  -0.118  0.00  0.00    +0.170 C 
ATOM      6  H   UNK     1       0.712  -0.600  -0.211  0.00  0.00    +0.163 HD
ATOM      7  H   UNK     1       2.967  -1.035   0.243  0.00  0.00    +0.163 HD
ATOM      8  H   UNK     1       1.750   2.840  -0.435  0.00  0.00    +0.159 HD
ATOM      9  H   UNK     1       3.393   2.526  -0.104  0.00  0.00    +0.159 HD
BRANCH   3  10
ATOM     10  C   UNK     1       4.592   0.320   0.374  0.00  0.00    +0.100 C 
BRANCH  10  11
ATOM     11  C   UNK     1       5.494  -0.873   0.666  0.00  0.00    +0.024 C 
ATOM     12  C   UNK     1       5.512  -1.879  -0.476  0.00  0.00    +0.002 C 
ENDBRANCH  10  11
ENDBRANCH   3  10
ENDBRANCH   1   2
BRANCH   1  13
ATOM     13  C   UNK     1      -1.553   0.478  -0.724  0.00  0.00    +0.022 C 
BRANCH  13  14
ATOM     14  C   UNK     1      -1.918  -0.247   0.580  0.00  0.00    -0.009 C 
BRANCH  14  15
ATOM     15  C   UNK     1      -3.261  -0.991   0.541  0.00  0.00    +0.036 C 
BRANCH  15  16
ATOM     16  N   UNK     1      -3.245  -2.076  -0.440  0.00  0.00    +0.389 N 
ATOM     17  H   UNK     1      -2.476  -2.712  -0.230  0.00  0.00    -0.088 HD
ATOM     18  H   UNK     1      -3.121  -1.688  -1.374  0.00  0.00    -0.088 HD
ATOM     19  H   UNK     1      -4.128  -2.585  -0.397  0.00  0.00    -0.088 HD
ENDBRANCH  15  16
BRANCH  15  21
ATOM     20  O   UNK     1      -5.151  -0.171  -0.770  0.00  0.00    -0.253 OA
ATOM     21  C   UNK     1      -4.415  -0.064   0.203  0.00  0.00    +0.293 C 
BRANCH  21  22
ATOM     22  O   UNK     1      -4.555   0.928   1.121  0.00  0.00    -0.482 OA
ATOM     23  H   UNK     1      -3.971   0.975   1.853  0.00  0.00    +0.295 HD
ENDBRANCH  21  22
ENDBRANCH  15  21
ENDBRANCH  14  15
ENDBRANCH  13  14
ENDBRANCH   1  13
TORSDOF 9
