REMARK  Name = 448748
REMARK  2 active torsions:
REMARK  status: ('A' for Active; 'I' for Inactive)
REMARK    1  A    between atoms: C_1  and  C_7
REMARK    2  A    between atoms: C_7  and  N_8
REMARK                            x       y       z     vdW  Elec       q    Type
REMARK                         _______ _______ _______ _____ _____    ______ ____
ROOT
ATOM      1  C   UNL     1      -0.609   0.277  -0.248  0.00  0.00    -0.022 C 
ATOM      2  C   UNL     1       0.383   1.373   0.165  0.00  0.00    -0.002 C 
ATOM      3  C   UNL     1      -0.152  -1.095   0.267  0.00  0.00    -0.002 C 
ATOM      4  C   UNL     1       1.805   1.044  -0.283  0.00  0.00    -0.000 C 
ATOM      5  C   UNL     1       1.271  -1.420  -0.181  0.00  0.00    -0.000 C 
ATOM      6  C   UNL     1       2.252  -0.324   0.223  0.00  0.00    -0.000 C 
ENDROOT
BRANCH   1   7
ATOM      7  C   UNL     1      -2.013   0.602   0.257  0.00  0.00    -0.086 C 
BRANCH   7   8
ATOM      8  N   UNL     1      -2.937  -0.456  -0.199  0.00  0.00    +0.380 N 
ATOM      9  H   UNL     1      -3.880  -0.250   0.133  0.00  0.00    -0.089 HD
ATOM     10  H   UNL     1      -2.634  -1.356   0.175  0.00  0.00    -0.089 HD
ATOM     11  H   UNL     1      -2.935  -0.493  -1.218  0.00  0.00    -0.089 HD
ENDBRANCH   7   8
ENDBRANCH   1   7
TORSDOF 2
