REMARK  Name = 440271
REMARK  7 active torsions:
REMARK  status: ('A' for Active; 'I' for Inactive)
REMARK    1  A    between atoms: C_2  and  O_12
REMARK    2  A    between atoms: C_3  and  N_8
REMARK    3  A    between atoms: C_4  and  O_14
REMARK    4  A    between atoms: C_5  and  C_18
REMARK    5  A    between atoms: C_6  and  O_16
REMARK    6  A    between atoms: C_18  and  O_19
REMARK    7  A    between atoms: O_19  and  S_20
REMARK                            x       y       z     vdW  Elec       q    Type
REMARK                         _______ _______ _______ _____ _____    ______ ____
ROOT
ATOM      1  O   UNL     1       0.089  -1.515  -0.223  0.00  0.00    -0.327 OA
ATOM      2  C   UNL     1       1.132   1.041   0.553  0.00  0.00    +0.162 C 
ATOM      3  C   UNL     1       2.047  -0.074   0.035  0.00  0.00    +0.158 C 
ATOM      4  C   UNL     1      -0.302   0.860   0.050  0.00  0.00    +0.169 C 
ATOM      5  C   UNL     1      -0.791  -0.554   0.371  0.00  0.00    +0.179 C 
ATOM      6  C   UNL     1       1.419  -1.452   0.291  0.00  0.00    +0.253 C 
ENDROOT
BRANCH   3   8
ATOM      7  O   UNL     1       4.610   0.368  -1.258  0.00  0.00    -0.275 OA
ATOM      8  N   UNL     1       3.348   0.012   0.666  0.00  0.00    -0.299 N 
ATOM      9  C   UNL     1       4.518   0.226  -0.041  0.00  0.00    +0.223 C 
ATOM     10  C   UNL     1       5.721   0.297   0.860  0.00  0.00    +0.095 C 
ATOM     11  H   UNL     1       3.403  -0.087   1.644  0.00  0.00    +0.150 HD
ENDBRANCH   3   8
BRANCH   2  12
ATOM     12  O   UNL     1       1.635   2.305   0.129  0.00  0.00    -0.380 OA
ATOM     13  H   UNL     1       2.543   2.416   0.450  0.00  0.00    +0.211 HD
ENDBRANCH   2  12
BRANCH   4  14
ATOM     14  O   UNL     1      -0.341   1.056  -1.366  0.00  0.00    -0.379 OA
ATOM     15  H   UNL     1      -0.032   1.951  -1.577  0.00  0.00    +0.211 HD
ENDBRANCH   4  14
BRANCH   6  16
ATOM     16  O   UNL     1       2.224  -2.435  -0.359  0.00  0.00    -0.359 OA
ATOM     17  H   UNL     1       1.844  -3.315  -0.210  0.00  0.00    +0.213 HD
ENDBRANCH   6  16
BRANCH   5  18
ATOM     18  C   UNL     1      -2.190  -0.821  -0.171  0.00  0.00    +0.209 C 
BRANCH  18  19
ATOM     19  O   UNL     1      -3.088   0.100   0.421  0.00  0.00    -0.198 OA
BRANCH  19  20
ATOM     20  S   UNL     1      -4.678   0.058   0.030  0.00  0.00    +0.239 S 
ATOM     21  O   UNL     1      -5.292   1.366   0.786  0.00  0.00    -0.022 OA
ATOM     22  O   UNL     1      -4.786   0.287  -1.399  0.00  0.00    -0.116 OA
ATOM     23  O   UNL     1      -5.275  -1.123   0.625  0.00  0.00    -0.116 OA
ENDBRANCH  19  20
ENDBRANCH  18  19
ENDBRANCH   5  18
TORSDOF 7
