REMARK  Name = 439811
REMARK  6 active torsions:
REMARK  status: ('A' for Active; 'I' for Inactive)
REMARK    1  A    between atoms: C_1  and  P_2
REMARK    2  A    between atoms: C_1  and  C_9
REMARK    3  A    between atoms: P_2  and  O_4
REMARK    4  A    between atoms: P_2  and  O_6
REMARK    5  A    between atoms: C_9  and  C_11
REMARK    6  A    between atoms: C_11  and  O_12
REMARK                            x       y       z     vdW  Elec       q    Type
REMARK                         _______ _______ _______ _____ _____    ______ ____
ROOT
ATOM      1  C   UNL     1      -0.286   0.775   0.081  0.00  0.00    +0.191 C 
ENDROOT
BRANCH   1   2
ATOM      2  P   UNL     1      -1.931   0.033   0.081  0.00  0.00    +0.345 P 
ATOM      3  O   UNL     1      -2.173  -0.888   1.226  0.00  0.00    -0.258 OA
BRANCH   2   4
ATOM      4  O   UNL     1      -2.019  -0.621  -1.388  0.00  0.00    -0.323 OA
ATOM      5  H   UNL     1      -2.880  -1.055  -1.497  0.00  0.00    +0.220 HD
ENDBRANCH   2   4
BRANCH   2   6
ATOM      6  O   UNL     1      -2.894   1.321  -0.009  0.00  0.00    -0.323 OA
ATOM      7  H   UNL     1      -3.820   1.032  -0.016  0.00  0.00    +0.220 HD
ENDBRANCH   2   6
ENDBRANCH   1   2
BRANCH   1   9
ATOM      8  O   UNL     1       0.677  -1.446  -0.022  0.00  0.00    -0.284 OA
ATOM      9  C   UNL     1       0.824  -0.234   0.011  0.00  0.00    +0.260 C 
BRANCH   9  11
ATOM     10  O   UNL     1       2.471   1.484   0.073  0.00  0.00    -0.242 OA
ATOM     11  C   UNL     1       2.230   0.296  -0.003  0.00  0.00    +0.374 C 
BRANCH  11  12
ATOM     12  O   UNL     1       3.102  -0.719  -0.050  0.00  0.00    -0.475 OA
ATOM     13  H   UNL     1       2.792  -1.601  -0.109  0.00  0.00    +0.295 HD
ENDBRANCH  11  12
ENDBRANCH   9  11
ENDBRANCH   1   9
TORSDOF 6
