REMARK  Name = 9543528
REMARK  3 active torsions:
REMARK  status: ('A' for Active; 'I' for Inactive)
REMARK    1  A    between atoms: C_3  and  C_7
REMARK    2  A    between atoms: C_7  and  C_8
REMARK    3  A    between atoms: C_8  and  C_9
REMARK                            x       y       z     vdW  Elec       q    Type
REMARK                         _______ _______ _______ _____ _____    ______ ____
ROOT
ATOM      1  S   UNL     1      -2.649   0.740   0.536  0.00  0.00    +0.042 S 
ATOM      2  O   UNL     1      -3.000   1.704  -0.560  0.00  0.00    -0.256 OA
ATOM      3  C   UNL     1      -0.382  -0.490  -0.271  0.00  0.00    +0.014 C 
ATOM      4  C   UNL     1      -1.399  -1.595  -0.007  0.00  0.00    +0.015 C 
ATOM      5  C   UNL     1      -0.821   0.663   0.624  0.00  0.00    +0.092 C 
ATOM      6  C   UNL     1      -2.761  -0.944  -0.175  0.00  0.00    +0.092 C 
ENDROOT
BRANCH   3   7
ATOM      7  C   UNL     1       1.043  -0.933   0.024  0.00  0.00    +0.001 C 
BRANCH   7   8
ATOM      8  C   UNL     1       2.041   0.200  -0.210  0.00  0.00    +0.000 C 
BRANCH   8   9
ATOM      9  C   UNL     1       3.468  -0.240   0.119  0.00  0.00    +0.000 C 
ATOM     10  C   UNL     1       4.460   0.894  -0.080  0.00  0.00    +0.000 C 
ENDBRANCH   8   9
ENDBRANCH   7   8
ENDBRANCH   3   7
TORSDOF 3
