REMARK  Name = 5288660
REMARK  8 active torsions:
REMARK  status: ('A' for Active; 'I' for Inactive)
REMARK    1  A    between atoms: CA_1  and  C_4
REMARK    2  A    between atoms: CA_1  and  N_15
REMARK    3  A    between atoms: CA_1  and  C_25
REMARK    4  A    between atoms: CA_7  and  C_11
REMARK    5  A    between atoms: C_11  and  O_12
REMARK    6  A    between atoms: C_16  and  C_18
REMARK    7  A    between atoms: C_18  and  C_20
REMARK    8  A    between atoms: C_25  and  O_26
REMARK                            x       y       z     vdW  Elec       q    Type
REMARK                         _______ _______ _______ _____ _____    ______ ____
ROOT
ATOM      1  CA  UNL     1      -2.377  -0.245   0.532  0.00  0.00    +0.200 C 
ENDROOT
BRANCH   1   4
ATOM      2  S   UNL     1      -1.546   1.104  -1.695  0.00  0.00    -0.115 S 
ATOM      3  N   UNL     1      -0.417   1.179   0.754  0.00  0.00    -0.319 N 
ATOM      4  C   UNL     1      -1.714   1.062   0.117  0.00  0.00    +0.148 C 
ATOM      5  C   UNL     1      -0.543   2.612  -1.821  0.00  0.00    +0.083 C 
ATOM      6  C   UNL     1       0.616   2.678  -0.843  0.00  0.00    -0.014 C 
ATOM      7  CA  UNL     1       0.617   1.978   0.315  0.00  0.00    +0.115 C 
ATOM      8  C   UNL     1       1.707   3.613  -1.305  0.00  0.00    +0.029 C 
ATOM      9  H   UNL     1      -0.262   0.644   1.565  0.00  0.00    +0.148 HD
BRANCH   7  11
ATOM     10  OXT UNL     1       2.927   2.167   0.842  0.00  0.00    -0.244 OA
ATOM     11  C   UNL     1       1.784   2.012   1.215  0.00  0.00    +0.351 C 
BRANCH  11  12
ATOM     12  O   UNL     1       1.369   1.845   2.485  0.00  0.00    -0.476 OA
ATOM     13  H   UNL     1       0.458   1.733   2.669  0.00  0.00    +0.295 HD
ENDBRANCH  11  12
ENDBRANCH   7  11
ENDBRANCH   1   4
BRANCH   1  15
ATOM     14  O   UNL     1      -0.375  -1.398   2.247  0.00  0.00    -0.275 OA
ATOM     15  N   UNL     1      -1.522  -1.361   0.228  0.00  0.00    -0.294 N 
ATOM     16  C   UNL     1      -0.580  -1.851   1.123  0.00  0.00    +0.228 C 
ATOM     17  H   UNL     1      -1.609  -1.796  -0.651  0.00  0.00    +0.150 HD
BRANCH  16  18
ATOM     18  C   UNL     1       0.190  -3.042   0.587  0.00  0.00    +0.118 C 
BRANCH  18  20
ATOM     19  S   UNL     1       1.629  -2.892  -1.763  0.00  0.00    -0.090 S 
ATOM     20  C   UNL     1       1.431  -2.554  -0.108  0.00  0.00    +0.016 C 
ATOM     21  C   UNL     1       2.464  -1.847   0.430  0.00  0.00    +0.003 C 
ATOM     22  C   UNL     1       3.462  -1.566  -0.546  0.00  0.00    +0.007 C 
ATOM     23  C   UNL     1       3.135  -2.077  -1.783  0.00  0.00    +0.035 C 
ENDBRANCH  18  20
ENDBRANCH  16  18
ENDBRANCH   1  15
BRANCH   1  25
ATOM     24  OXT UNL     1      -4.646   0.428   0.041  0.00  0.00    -0.248 OA
ATOM     25  C   UNL     1      -3.737  -0.377  -0.130  0.00  0.00    +0.334 C 
BRANCH  25  26
ATOM     26  O   UNL     1      -3.876  -1.469  -0.921  0.00  0.00    -0.479 OA
ATOM     27  H   UNL     1      -3.160  -2.063  -1.029  0.00  0.00    +0.295 HD
ENDBRANCH  25  26
ENDBRANCH   1  25
TORSDOF 8
