REMARK  Name = 2138
REMARK  5 active torsions:
REMARK  status: ('A' for Active; 'I' for Inactive)
REMARK    1  A    between atoms: C_1  and  C_13
REMARK    2  A    between atoms: C_4  and  C_9
REMARK    3  A    between atoms: C_13  and  C_15
REMARK    4  A    between atoms: C_15  and  C_17
REMARK    5  A    between atoms: C_17  and  O_18
REMARK                            x       y       z     vdW  Elec       q    Type
REMARK                         _______ _______ _______ _____ _____    ______ ____
ROOT
ATOM      1  C   UNL     1       0.243  -0.052  -0.638  0.00  0.00    -0.014 C 
ATOM      2  C   UNL     1      -0.452   1.157  -0.619  0.00  0.00    -0.004 C 
ATOM      3  C   UNL     1      -0.426  -1.245  -0.363  0.00  0.00    -0.004 C 
ATOM      4  C   UNL     1      -2.484  -0.019  -0.050  0.00  0.00    +0.031 C 
ATOM      5  C   UNL     1      -1.815   1.174  -0.325  0.00  0.00    +0.002 C 
ATOM      6  C   UNL     1      -1.789  -1.228  -0.069  0.00  0.00    +0.002 C 
ENDROOT
BRANCH   4   9
ATOM      7  N   UNL     1      -4.627   1.190   0.282  0.00  0.00    -0.343 N 
ATOM      8  N   UNL     1      -4.536  -1.133   0.520  0.00  0.00    -0.285 NA
ATOM      9  C   UNL     1      -3.905  -0.002   0.256  0.00  0.00    +0.117 C 
ATOM     10  H   UNL     1      -5.589   1.179   0.492  0.00  0.00    +0.144 HD
ATOM     11  H   UNL     1      -4.175   2.044   0.091  0.00  0.00    +0.144 HD
ATOM     12  H   UNL     1      -5.498  -1.123   0.727  0.00  0.00    +0.188 HD
ENDBRANCH   4   9
BRANCH   1  13
ATOM     13  C   UNL     1       1.701  -0.070  -0.952  0.00  0.00    +0.102 C 
BRANCH  13  15
ATOM     14  O   UNL     1       2.189   0.228   1.421  0.00  0.00    -0.284 OA
ATOM     15  C   UNL     1       2.581   0.070   0.274  0.00  0.00    +0.252 C 
BRANCH  15  17
ATOM     16  O   UNL     1       4.552  -0.201  -1.032  0.00  0.00    -0.242 OA
ATOM     17  C   UNL     1       4.066  -0.001   0.062  0.00  0.00    +0.374 C 
BRANCH  17  18
ATOM     18  O   UNL     1       4.701   0.131   1.233  0.00  0.00    -0.475 OA
ATOM     19  H   UNL     1       4.212   0.285   2.017  0.00  0.00    +0.295 HD
ENDBRANCH  17  18
ENDBRANCH  15  17
ENDBRANCH  13  15
ENDBRANCH   1  13
TORSDOF 5
