REMARK  Name = 7478
REMARK  3 active torsions:
REMARK  status: ('A' for Active; 'I' for Inactive)
REMARK    1  A    between atoms: C_1  and  C_10
REMARK    2  A    between atoms: C_2  and  O_7
REMARK    3  A    between atoms: C_10  and  O_11
REMARK                            x       y       z     vdW  Elec       q    Type
REMARK                         _______ _______ _______ _____ _____    ______ ____
ROOT
ATOM      1  C   UNL     1      -1.074   0.043   0.000  0.00  0.00    +0.076 C 
ATOM      2  C   UNL     1       1.705   0.292   0.000  0.00  0.00    +0.139 C 
ATOM      3  C   UNL     1      -0.487   1.308   0.000  0.00  0.00    +0.010 C 
ATOM      4  C   UNL     1      -0.271  -1.098   0.001  0.00  0.00    +0.010 C 
ATOM      5  C   UNL     1       0.902   1.433   0.000  0.00  0.00    +0.037 C 
ATOM      6  C   UNL     1       1.118  -0.974   0.001  0.00  0.00    +0.037 C 
ENDROOT
BRANCH   2   7
ATOM      7  O   UNL     1       3.061   0.413  -0.001  0.00  0.00    -0.471 OA
ATOM      8  C   UNL     1       3.821  -0.794   0.000  0.00  0.00    +0.252 C 
ENDBRANCH   2   7
BRANCH   1  10
ATOM      9  O   UNL     1      -3.325   0.851   0.000  0.00  0.00    -0.245 OA
ATOM     10  C   UNL     1      -2.522  -0.087   0.000  0.00  0.00    +0.338 C 
BRANCH  10  11
ATOM     11  O   UNL     1      -2.928  -1.387  -0.001  0.00  0.00    -0.477 OA
ATOM     12  H   UNL     1      -2.293  -2.076  -0.001  0.00  0.00    +0.295 HD
ENDBRANCH  10  11
ENDBRANCH   1  10
TORSDOF 3
