REMARK  Name = 5326608
REMARK  8 active torsions:
REMARK  status: ('A' for Active; 'I' for Inactive)
REMARK    1  A    between atoms: N_3  and  S_29
REMARK    2  A    between atoms: C_5  and  C_13
REMARK    3  A    between atoms: N_12  and  C_15
REMARK    4  A    between atoms: C_15  and  C_19
REMARK    5  A    between atoms: N_18  and  C_24
REMARK    6  A    between atoms: N_18  and  O_27
REMARK    7  A    between atoms: S_29  and  C_32
REMARK    8  A    between atoms: C_32  and  C_33
REMARK                            x       y       z     vdW  Elec       q    Type
REMARK                         _______ _______ _______ _____ _____    ______ ____
ROOT
ATOM      1  O   UNL     1      -0.310   0.519  -0.536  0.00  0.00    -0.273 OA
ATOM      2  N   UNL     1       0.517  -1.624  -0.345  0.00  0.00    -0.272 N 
ATOM      3  N   UNL     1       2.960  -0.676   0.587  0.00  0.00    -0.148 NA
ATOM      4  C   UNL     1       1.601  -2.546  -0.052  0.00  0.00    +0.094 C 
ATOM      5  C   UNL     1      -0.647  -2.329  -0.868  0.00  0.00    +0.152 C 
ATOM      6  C   UNL     1       1.326  -3.714  -0.992  0.00  0.00    +0.024 C 
ATOM      7  C   UNL     1      -0.199  -3.786  -1.009  0.00  0.00    +0.031 C 
ATOM      8  C   UNL     1       2.959  -1.905  -0.245  0.00  0.00    +0.116 C 
ATOM      9  C   UNL     1       0.617  -0.249  -0.265  0.00  0.00    +0.244 C 
ATOM     10  C   UNL     1       1.959   0.315   0.132  0.00  0.00    +0.180 C 
ENDROOT
BRANCH   5  13
ATOM     11  O   UNL     1      -1.498  -2.116   1.350  0.00  0.00    -0.273 OA
ATOM     12  N   UNL     1      -2.997  -2.220  -0.428  0.00  0.00    -0.303 N 
ATOM     13  C   UNL     1      -1.739  -2.203   0.149  0.00  0.00    +0.241 C 
ATOM     14  H   UNL     1      -3.063  -2.293  -1.407  0.00  0.00    +0.149 HD
BRANCH  12  15
ATOM     15  C   UNL     1      -4.219  -2.135   0.339  0.00  0.00    +0.089 C 
BRANCH  15  18
ATOM     16  N   UNL     1      -6.572   1.440   0.156  0.00  0.00    -0.279 N 
ATOM     17  N   UNL     1      -8.785   1.197  -0.263  0.00  0.00    -0.370 N 
ATOM     18  C   UNL     1      -4.662  -0.686   0.527  0.00  0.00    +0.023 C 
ATOM     19  C   UNL     1      -4.848   0.010  -0.829  0.00  0.00    +0.023 C 
ATOM     20  C   UNL     1      -5.963  -0.613   1.340  0.00  0.00    +0.023 C 
ATOM     21  C   UNL     1      -5.356   1.440  -0.654  0.00  0.00    +0.094 C 
ATOM     22  C   UNL     1      -6.451   0.829   1.477  0.00  0.00    +0.094 C 
ATOM     23  C   UNL     1      -7.708   2.049  -0.253  0.00  0.00    +0.215 C 
ATOM     24  H   UNL     1      -8.672   0.258   0.010  0.00  0.00    +0.159 HD
ATOM     25  H   UNL     1      -9.670   1.526  -0.543  0.00  0.00    +0.159 HD
BRANCH  23  26
ATOM     26  N   UNL     1      -7.832   3.300  -0.611  0.00  0.00    -0.101 NA
BRANCH  26  27
ATOM     27  O   UNL     1      -6.601   3.955  -0.515  0.00  0.00    -0.263 OA
ATOM     28  H   UNL     1      -6.533   4.862  -0.740  0.00  0.00    +0.247 HD
ENDBRANCH  26  27
ENDBRANCH  23  26
ENDBRANCH  15  18
ENDBRANCH  12  15
ENDBRANCH   5  13
BRANCH   3  29
ATOM     29  S   UNL     1       4.498  -0.045   0.990  0.00  0.00    +0.049 S 
ATOM     30  O   UNL     1       5.402  -1.146   1.244  0.00  0.00    -0.157 OA
ATOM     31  O   UNL     1       4.326   1.032   1.941  0.00  0.00    -0.157 OA
BRANCH  29  32
ATOM     32  C   UNL     1       4.932   0.669  -0.575  0.00  0.00    +0.195 C 
BRANCH  32  33
ATOM     33  C   UNL     1       6.287   1.293  -0.432  0.00  0.00    +0.003 C 
ATOM     34  C   UNL     1       7.432   0.541  -0.698  0.00  0.00    -0.003 C 
ATOM     35  C   UNL     1       6.403   2.624  -0.033  0.00  0.00    -0.003 C 
ATOM     36  C   UNL     1       8.693   1.122  -0.565  0.00  0.00    -0.000 C 
ATOM     37  C   UNL     1       7.665   3.204   0.100  0.00  0.00    -0.000 C 
ATOM     38  C   UNL     1       8.810   2.453  -0.166  0.00  0.00    -0.000 C 
ENDBRANCH  32  33
ENDBRANCH  29  32
ENDBRANCH   3  29
TORSDOF 8
