REMARK  Name = 15624
REMARK  3 active torsions:
REMARK  status: ('A' for Active; 'I' for Inactive)
REMARK    1  A    between atoms: C_1  and  C_9
REMARK    2  A    between atoms: C_2  and  O_7
REMARK    3  A    between atoms: C_9  and  C_10
REMARK                            x       y       z     vdW  Elec       q    Type
REMARK                         _______ _______ _______ _____ _____    ______ ____
ROOT
ATOM      1  C   UNL     1      -0.051  -0.329   0.379  0.00  0.00    +0.016 C 
ATOM      2  C   UNL     1       0.447   0.953   0.144  0.00  0.00    +0.130 C 
ATOM      3  C   UNL     1       0.777  -1.439   0.214  0.00  0.00    -0.001 C 
ATOM      4  C   UNL     1       1.773   1.124  -0.255  0.00  0.00    +0.036 C 
ATOM      5  C   UNL     1       2.103  -1.268  -0.185  0.00  0.00    -0.000 C 
ATOM      6  C   UNL     1       2.601   0.013  -0.419  0.00  0.00    +0.003 C 
ENDROOT
BRANCH   2   7
ATOM      7  O   UNL     1      -0.347   2.049   0.300  0.00  0.00    -0.506 OA
ATOM      8  H   UNL     1      -1.240   1.946   0.567  0.00  0.00    +0.292 HD
ENDBRANCH   2   7
BRANCH   1   9
ATOM      9  C   UNL     1      -1.467  -0.531   0.806  0.00  0.00    +0.055 C 
BRANCH   9  10
ATOM     10  C   UNL     1      -2.413  -0.702  -0.354  0.00  0.00    -0.021 C 
ATOM     11  C   UNL     1      -3.422   0.130  -0.629  0.00  0.00    -0.005 C 
ENDBRANCH   9  10
ENDBRANCH   1   9
TORSDOF 3
