REMARK  Name = 77982
REMARK  11 active torsions:
REMARK  status: ('A' for Active; 'I' for Inactive)
REMARK    1  A    between atoms: C_1  and  O_2
REMARK    2  A    between atoms: C_1  and  C_4
REMARK    3  A    between atoms: C_1  and  C_12
REMARK    4  A    between atoms: C_4  and  O_5
REMARK    5  A    between atoms: C_4  and  C_7
REMARK    6  A    between atoms: C_7  and  O_8
REMARK    7  A    between atoms: C_7  and  C_11
REMARK    8  A    between atoms: C_12  and  O_13
REMARK    9  A    between atoms: O_13  and  P_14
REMARK   10  A    between atoms: P_14  and  O_16
REMARK   11  A    between atoms: P_14  and  O_18
REMARK                            x       y       z     vdW  Elec       q    Type
REMARK                         _______ _______ _______ _____ _____    ______ ____
ROOT
ATOM      1  C   UNL     1       0.459   0.977  -0.238  0.00  0.00    +0.170 C 
ENDROOT
BRANCH   1   2
ATOM      2  O   UNL     1       0.403   1.934   0.820  0.00  0.00    -0.379 OA
ATOM      3  H   UNL     1       1.301   2.126   1.130  0.00  0.00    +0.211 HD
ENDBRANCH   1   2
BRANCH   1   4
ATOM      4  C   UNL     1       1.175  -0.293   0.246  0.00  0.00    +0.174 C 
BRANCH   4   5
ATOM      5  O   UNL     1       1.158  -1.264  -0.801  0.00  0.00    -0.379 OA
ATOM      6  H   UNL     1       0.245  -1.408  -1.094  0.00  0.00    +0.211 HD
ENDBRANCH   4   5
BRANCH   4   7
ATOM      7  C   UNL     1       2.619  -0.063   0.713  0.00  0.00    +0.205 C 
BRANCH   7   8
ATOM      8  O   UNL     1       3.172  -1.313   1.101  0.00  0.00    -0.375 OA
ATOM      9  H   UNL     1       2.623  -1.706   1.798  0.00  0.00    +0.211 HD
ENDBRANCH   7   8
BRANCH   7  11
ATOM     10  O   UNL     1       4.468  -0.028  -0.860  0.00  0.00    -0.286 OA
ATOM     11  C   UNL     1       3.491   0.533  -0.375  0.00  0.00    +0.239 C 
ENDBRANCH   7  11
ENDBRANCH   4   7
ENDBRANCH   1   4
BRANCH   1  12
ATOM     12  C   UNL     1      -0.967   0.690  -0.711  0.00  0.00    +0.185 C 
BRANCH  12  13
ATOM     13  O   UNL     1      -1.702   0.111   0.363  0.00  0.00    -0.271 OA
BRANCH  13  14
ATOM     14  P   UNL     1      -3.247  -0.284   0.107  0.00  0.00    +0.473 P 
ATOM     15  O   UNL     1      -3.953  -0.889   1.285  0.00  0.00    -0.227 OA
BRANCH  14  16
ATOM     16  O   UNL     1      -3.195  -1.210  -1.218  0.00  0.00    -0.303 OA
ATOM     17  H   UNL     1      -2.722  -0.740  -1.922  0.00  0.00    +0.222 HD
ENDBRANCH  14  16
BRANCH  14  18
ATOM     18  O   UNL     1      -3.883   1.101  -0.433  0.00  0.00    -0.303 OA
ATOM     19  H   UNL     1      -3.368   1.420  -1.190  0.00  0.00    +0.222 HD
ENDBRANCH  14  18
ENDBRANCH  13  14
ENDBRANCH  12  13
ENDBRANCH   1  12
TORSDOF 11
