REMARK  Name = 447994
REMARK  10 active torsions:
REMARK  status: ('A' for Active; 'I' for Inactive)
REMARK    1  A    between atoms: C_2  and  C_10
REMARK    2  A    between atoms: C_3  and  C_17
REMARK    3  A    between atoms: C_12  and  C_14
REMARK    4  A    between atoms: C_14  and  O_15
REMARK    5  A    between atoms: C_18  and  C_19
REMARK    6  A    between atoms: C_19  and  O_20
REMARK    7  A    between atoms: O_20  and  C_21
REMARK    8  A    between atoms: C_22  and  C_30
REMARK    9  A    between atoms: C_23  and  O_27
REMARK   10  A    between atoms: C_30  and  O_31
REMARK                            x       y       z     vdW  Elec       q    Type
REMARK                         _______ _______ _______ _____ _____    ______ ____
ROOT
ATOM      1  F   UNL     1       4.365   2.461  -1.133  0.00  0.00    -0.204 F 
ATOM      2  C   UNL     1       3.152   0.738  -0.031  0.00  0.00    +0.065 C 
ATOM      3  C   UNL     1       0.802   1.067   0.423  0.00  0.00    +0.000 C 
ATOM      4  C   UNL     1       1.946   0.273   0.493  0.00  0.00    +0.005 C 
ATOM      5  C   UNL     1       3.214   1.999  -0.625  0.00  0.00    +0.143 C 
ATOM      6  C   UNL     1       0.864   2.328  -0.171  0.00  0.00    +0.002 C 
ATOM      7  C   UNL     1       2.070   2.794  -0.695  0.00  0.00    +0.030 C 
ENDROOT
BRANCH   2  10
ATOM      8  O   UNL     1       4.109  -1.422   0.019  0.00  0.00    -0.353 OA
ATOM      9  N   UNL     1       5.328  -2.085   0.096  0.00  0.00    -0.070 NA
ATOM     10  C   UNL     1       4.333  -0.087   0.043  0.00  0.00    +0.179 C 
ATOM     11  C   UNL     1       5.670   0.166   0.133  0.00  0.00    +0.069 C 
ATOM     12  C   UNL     1       6.245  -1.116   0.163  0.00  0.00    +0.198 C 
BRANCH  12  14
ATOM     13  O   UNL     1       8.093  -2.606   0.275  0.00  0.00    -0.243 OA
ATOM     14  C   UNL     1       7.636  -1.452   0.252  0.00  0.00    +0.359 C 
BRANCH  14  15
ATOM     15  O   UNL     1       8.490  -0.379   0.316  0.00  0.00    -0.476 OA
ATOM     16  H   UNL     1       8.149   0.494   0.298  0.00  0.00    +0.295 HD
ENDBRANCH  14  15
ENDBRANCH  12  14
ENDBRANCH   2  10
BRANCH   3  17
ATOM     17  C   UNL     1      -0.456   0.582   0.969  0.00  0.00    -0.001 C 
ATOM     18  C   UNL     1      -1.517   1.346   1.315  0.00  0.00    +0.021 C 
BRANCH  18  19
ATOM     19  C   UNL     1      -2.797   0.799   1.860  0.00  0.00    +0.232 C 
BRANCH  19  20
ATOM     20  O   UNL     1      -3.852   1.136   0.971  0.00  0.00    -0.470 OA
BRANCH  20  21
ATOM     21  C   UNL     1      -4.905   0.261   0.899  0.00  0.00    +0.148 C 
ATOM     22  C   UNL     1      -5.237  -0.354  -0.303  0.00  0.00    +0.143 C 
ATOM     23  C   UNL     1      -6.311  -1.241  -0.353  0.00  0.00    +0.143 C 
ATOM     24  C   UNL     1      -5.636  -0.002   2.053  0.00  0.00    +0.037 C 
ATOM     25  C   UNL     1      -7.048  -1.510   0.800  0.00  0.00    +0.037 C 
ATOM     26  C   UNL     1      -6.710  -0.890   2.003  0.00  0.00    +0.006 C 
BRANCH  23  27
ATOM     27  O   UNL     1      -6.657  -1.859  -1.518  0.00  0.00    -0.505 OA
ATOM     28  H   UNL     1      -6.171  -1.689  -2.301  0.00  0.00    +0.292 HD
ENDBRANCH  23  27
BRANCH  22  30
ATOM     29  O   UNL     1      -4.726   0.833  -2.308  0.00  0.00    -0.245 OA
ATOM     30  C   UNL     1      -4.465  -0.074  -1.510  0.00  0.00    +0.347 C 
BRANCH  30  31
ATOM     31  O   UNL     1      -3.418  -0.941  -1.644  0.00  0.00    -0.441 OA
ATOM     32  C   UNL     1      -2.582  -0.766  -2.793  0.00  0.00    +0.256 C 
ENDBRANCH  30  31
ENDBRANCH  22  30
ENDBRANCH  20  21
ENDBRANCH  19  20
ENDBRANCH  18  19
ENDBRANCH   3  17
TORSDOF 10
