REMARK  Name = 5180213
REMARK  11 active torsions:
REMARK  status: ('A' for Active; 'I' for Inactive)
REMARK    1  A    between atoms: N_2  and  C_7
REMARK    2  A    between atoms: C_4  and  C_18
REMARK    3  A    between atoms: C_7  and  C_9
REMARK    4  A    between atoms: C_10  and  N_15
REMARK    5  A    between atoms: C_18  and  C_19
REMARK    6  A    between atoms: C_19  and  O_20
REMARK    7  A    between atoms: O_20  and  P_21
REMARK    8  A    between atoms: P_21  and  O_23
REMARK    9  A    between atoms: P_21  and  O_25
REMARK   10  A    between atoms: O_25  and  P_26
REMARK   11  A    between atoms: P_26  and  O_29
REMARK                            x       y       z     vdW  Elec       q    Type
REMARK                         _______ _______ _______ _____ _____    ______ ____
ROOT
ATOM      1  S   UNL     1      -0.694   2.673   2.116  0.00  0.00    -0.095 S 
ATOM      2  N   UNL     1       1.238   2.247   0.577  0.00  0.00    -0.297 N 
ATOM      3  C   UNL     1       0.151   2.367  -0.261  0.00  0.00    +0.028 C 
ATOM      4  C   UNL     1      -0.982   2.602   0.439  0.00  0.00    +0.016 C 
ATOM      5  C   UNL     1       0.972   2.381   1.858  0.00  0.00    +0.154 C 
ATOM      6  C   UNL     1       0.368   2.228  -1.709  0.00  0.00    +0.047 C 
ENDROOT
BRANCH   2   7
ATOM      7  C   UNL     1       2.580   1.994   0.110  0.00  0.00    +0.121 C 
BRANCH   7   9
ATOM      8  N   UNL     1       2.596  -1.629   1.122  0.00  0.00    -0.248 NA
ATOM      9  C   UNL     1       2.821   0.510   0.045  0.00  0.00    +0.030 C 
ATOM     10  C   UNL     1       3.436  -0.077  -1.046  0.00  0.00    +0.042 C 
ATOM     11  C   UNL     1       2.421  -0.289   1.095  0.00  0.00    +0.097 C 
ATOM     12  C   UNL     1       3.634  -1.453  -1.054  0.00  0.00    +0.029 C 
ATOM     13  C   UNL     1       3.200  -2.178   0.044  0.00  0.00    +0.061 C 
ATOM     14  C   UNL     1       3.395  -3.657   0.069  0.00  0.00    +0.052 C 
BRANCH  10  15
ATOM     15  N   UNL     1       3.866   0.692  -2.148  0.00  0.00    -0.357 N 
ATOM     16  H   UNL     1       3.731   1.667  -2.151  0.00  0.00    +0.142 HD
ATOM     17  H   UNL     1       4.302   0.253  -2.914  0.00  0.00    +0.142 HD
ENDBRANCH  10  15
ENDBRANCH   7   9
ENDBRANCH   2   7
BRANCH   4  18
ATOM     18  C   UNL     1      -2.389   2.796  -0.074  0.00  0.00    +0.066 C 
BRANCH  18  19
ATOM     19  C   UNL     1      -3.151   1.477  -0.171  0.00  0.00    +0.159 C 
BRANCH  19  20
ATOM     20  O   UNL     1      -2.508   0.590  -1.069  0.00  0.00    -0.273 OA
BRANCH  20  21
ATOM     21  P   UNL     1      -3.131  -0.879  -1.339  0.00  0.00    +0.484 P 
ATOM     22  O   UNL     1      -2.357  -1.723  -2.310  0.00  0.00    -0.227 OA
BRANCH  21  23
ATOM     23  O   UNL     1      -4.662  -0.594  -1.776  0.00  0.00    -0.302 OA
ATOM     24  H   UNL     1      -5.094  -0.046  -1.102  0.00  0.00    +0.222 HD
ENDBRANCH  21  23
BRANCH  21  25
ATOM     25  O   UNL     1      -3.281  -1.534   0.132  0.00  0.00    -0.185 OA
BRANCH  25  26
ATOM     26  P   UNL     1      -2.144  -1.975   1.215  0.00  0.00    +0.511 P 
ATOM     27  O   UNL     1      -2.808  -2.693   2.369  0.00  0.00    -0.116 OA
ATOM     28  O   UNL     1      -1.221  -0.802   1.460  0.00  0.00    -0.225 OA
BRANCH  26  29
ATOM     29  O   UNL     1      -1.352  -3.076   0.306  0.00  0.00    -0.301 OA
ATOM     30  H   UNL     1      -1.932  -3.836   0.141  0.00  0.00    +0.222 HD
ENDBRANCH  26  29
ENDBRANCH  25  26
ENDBRANCH  21  25
ENDBRANCH  20  21
ENDBRANCH  19  20
ENDBRANCH  18  19
ENDBRANCH   4  18
TORSDOF 11
