REMARK  Name = 445005
REMARK  9 active torsions:
REMARK  status: ('A' for Active; 'I' for Inactive)
REMARK    1  A    between atoms: C_2  and  C_10
REMARK    2  A    between atoms: C_3  and  C_21
REMARK    3  A    between atoms: C_4  and  O_8
REMARK    4  A    between atoms: C_10  and  N_11
REMARK    5  A    between atoms: N_11  and  C_17
REMARK    6  A    between atoms: C_21  and  O_22
REMARK    7  A    between atoms: O_22  and  P_23
REMARK    8  A    between atoms: P_23  and  O_25
REMARK    9  A    between atoms: P_23  and  O_27
REMARK                            x       y       z     vdW  Elec       q    Type
REMARK                         _______ _______ _______ _____ _____    ______ ____
ROOT
ATOM      1  N   UNL     1       3.793   0.879  -0.756  0.00  0.00    -0.245 NA
ATOM      2  C   UNL     1       1.210   0.811   0.283  0.00  0.00    -0.009 C 
ATOM      3  C   UNL     1       1.679  -0.257  -0.464  0.00  0.00    +0.024 C 
ATOM      4  C   UNL     1       2.016   1.913   0.516  0.00  0.00    +0.141 C 
ATOM      5  C   UNL     1       3.293   1.898  -0.022  0.00  0.00    +0.092 C 
ATOM      6  C   UNL     1       2.971  -0.175  -0.958  0.00  0.00    +0.096 C 
ATOM      7  C   UNL     1       4.211   3.057   0.193  0.00  0.00    +0.055 C 
ENDROOT
BRANCH   4   8
ATOM      8  O   UNL     1       1.575   2.972   1.245  0.00  0.00    -0.505 OA
ATOM      9  H   UNL     1       0.708   2.966   1.602  0.00  0.00    +0.292 HD
ENDBRANCH   4   8
BRANCH   2  10
ATOM     10  C   UNL     1      -0.186   0.778   0.846  0.00  0.00    -0.050 C 
BRANCH  10  11
ATOM     11  N   UNL     1      -1.159   1.349  -0.080  0.00  0.00    +0.395 N 
ATOM     12  H   UNL     1      -0.915   2.323  -0.260  0.00  0.00    -0.083 HD
ATOM     13  H   UNL     1      -1.139   0.807  -0.944  0.00  0.00    -0.083 HD
BRANCH  11  17
ATOM     14  O   UNL     1      -4.440  -0.002   0.439  0.00  0.00    -0.268 OA
ATOM     15  O   UNL     1      -3.319   2.875  -1.184  0.00  0.00    -0.275 OA
ATOM     16  N   UNL     1      -4.604   1.074  -0.460  0.00  0.00    -0.195 N 
ATOM     17  C   UNL     1      -2.500   1.292   0.466  0.00  0.00    +0.052 C 
ATOM     18  C   UNL     1      -3.024  -0.126   0.588  0.00  0.00    +0.159 C 
ATOM     19  C   UNL     1      -3.479   1.872  -0.506  0.00  0.00    +0.227 C 
ATOM     20  H   UNL     1      -5.419   1.235  -0.988  0.00  0.00    +0.182 HD
ENDBRANCH  11  17
ENDBRANCH  10  11
ENDBRANCH   2  10
BRANCH   3  21
ATOM     21  C   UNL     1       0.849  -1.463  -0.740  0.00  0.00    +0.181 C 
BRANCH  21  22
ATOM     22  O   UNL     1       1.050  -2.424   0.290  0.00  0.00    -0.268 OA
BRANCH  22  23
ATOM     23  P   UNL     1       0.246  -3.823   0.200  0.00  0.00    +0.473 P 
ATOM     24  O   UNL     1       0.511  -4.782   1.323  0.00  0.00    -0.227 OA
BRANCH  23  25
ATOM     25  O   UNL     1       0.598  -4.375  -1.279  0.00  0.00    -0.303 OA
ATOM     26  H   UNL     1       0.396  -3.691  -1.936  0.00  0.00    +0.222 HD
ENDBRANCH  23  25
BRANCH  23  27
ATOM     27  O   UNL     1      -1.292  -3.342   0.061  0.00  0.00    -0.303 OA
ATOM     28  H   UNL     1      -1.372  -2.728  -0.685  0.00  0.00    +0.222 HD
ENDBRANCH  23  27
ENDBRANCH  22  23
ENDBRANCH  21  22
ENDBRANCH   3  21
TORSDOF 9
