REMARK  Name = 4564
REMARK  3 active torsions:
REMARK  status: ('A' for Active; 'I' for Inactive)
REMARK    1  A    between atoms: C_6  and  O_15
REMARK    2  A    between atoms: O_15  and  C_16
REMARK    3  A    between atoms: C_16  and  C_17
REMARK                            x       y       z     vdW  Elec       q    Type
REMARK                         _______ _______ _______ _____ _____    ______ ____
ROOT
ATOM      1  N   UNL     1      -1.237  -1.430   0.049  0.00  0.00    -0.293 NA
ATOM      2  N   UNL     1      -2.113   2.129  -0.252  0.00  0.00    -0.266 NA
ATOM      3  N   UNL     1      -3.629  -0.975   0.205  0.00  0.00    -0.316 NA
ATOM      4  N   UNL     1      -4.197   1.380   0.004  0.00  0.00    -0.296 N 
ATOM      5  N   UNL     1      -2.791  -3.154   0.363  0.00  0.00    -0.283 N 
ATOM      6  C   UNL     1      -0.955  -0.119  -0.114  0.00  0.00    +0.288 C 
ATOM      7  C   UNL     1      -2.006   0.774  -0.118  0.00  0.00    +0.215 C 
ATOM      8  C   UNL     1      -3.313   0.332   0.040  0.00  0.00    +0.196 C 
ATOM      9  C   UNL     1      -2.539  -1.773   0.196  0.00  0.00    +0.200 C 
ATOM     10  C   UNL     1      -3.444   2.445  -0.172  0.00  0.00    +0.164 C 
ATOM     11  H   UNL     1      -1.371   2.762  -0.382  0.00  0.00    +0.126 HD
ATOM     12  H   UNL     1      -5.177   1.344   0.092  0.00  0.00    +0.150 HD
ATOM     13  H   UNL     1      -2.043  -3.794   0.367  0.00  0.00    +0.156 HD
ATOM     14  H   UNL     1      -3.714  -3.476   0.476  0.00  0.00    +0.156 HD
ENDROOT
BRANCH   6  15
ATOM     15  O   UNL     1       0.356   0.263  -0.265  0.00  0.00    -0.453 OA
BRANCH  15  16
ATOM     16  C   UNL     1       1.331  -0.762  -0.240  0.00  0.00    +0.208 C 
BRANCH  16  17
ATOM     17  C   UNL     1       2.708  -0.125  -0.419  0.00  0.00    +0.044 C 
ATOM     18  C   UNL     1       2.988   0.884   0.702  0.00  0.00    +0.004 C 
ATOM     19  C   UNL     1       3.801  -1.202  -0.471  0.00  0.00    +0.004 C 
ATOM     20  C   UNL     1       4.381   1.496   0.574  0.00  0.00    +0.000 C 
ATOM     21  C   UNL     1       5.193  -0.586  -0.596  0.00  0.00    +0.000 C 
ATOM     22  C   UNL     1       5.464   0.423   0.515  0.00  0.00    +0.000 C 
ENDBRANCH  16  17
ENDBRANCH  15  16
ENDBRANCH   6  15
TORSDOF 3
