REMARK  Name = 100714
REMARK  5 active torsions:
REMARK  status: ('A' for Active; 'I' for Inactive)
REMARK    1  A    between atoms: CA_1  and  N_2
REMARK    2  A    between atoms: CA_1  and  C_7
REMARK    3  A    between atoms: CA_1  and  C_11
REMARK    4  A    between atoms: C_7  and  O_8
REMARK    5  A    between atoms: C_11  and  O_12
REMARK                            x       y       z     vdW  Elec       q    Type
REMARK                         _______ _______ _______ _____ _____    ______ ____
ROOT
ATOM      1  CA  UNL     1       0.045   0.481   0.454  0.00  0.00    +0.136 C 
ENDROOT
BRANCH   1   2
ATOM      2  N   UNL     1       0.099   1.819  -0.126  0.00  0.00    +0.396 N 
ATOM      3  H1  UNL     1       1.000   2.247   0.087  0.00  0.00    -0.088 HD
ATOM      4  H2  UNL     1      -0.650   2.390   0.267  0.00  0.00    -0.088 HD
ATOM      5  H3  UNL     1      -0.017   1.756  -1.138  0.00  0.00    -0.088 HD
ENDBRANCH   1   2
BRANCH   1   7
ATOM      6  O   UNL     1       1.188  -1.322  -0.732  0.00  0.00    -0.252 OA
ATOM      7  C   UNL     1       1.234  -0.294  -0.073  0.00  0.00    +0.304 C 
BRANCH   7   8
ATOM      8  O   UNL     1       2.402   0.279   0.325  0.00  0.00    -0.481 OA
ATOM      9  H   UNL     1       2.388   1.068   0.830  0.00  0.00    +0.295 HD
ENDBRANCH   7   8
ENDBRANCH   1   7
BRANCH   1  11
ATOM     10  OXT UNL     1      -2.181   0.482  -0.539  0.00  0.00    -0.252 OA
ATOM     11  C   UNL     1      -1.311  -0.093   0.101  0.00  0.00    +0.304 C 
BRANCH  11  12
ATOM     12  O   UNL     1      -1.475  -1.351   0.591  0.00  0.00    -0.481 OA
ATOM     13  H   UNL     1      -0.785  -1.758   1.077  0.00  0.00    +0.295 HD
ENDBRANCH  11  12
ENDBRANCH   1  11
TORSDOF 5
