REMARK  Name = 447098
REMARK  3 active torsions:
REMARK  status: ('A' for Active; 'I' for Inactive)
REMARK    1  A    between atoms: C_6  and  O_17
REMARK    2  A    between atoms: O_17  and  C_18
REMARK    3  A    between atoms: C_21  and  O_24
REMARK                            x       y       z     vdW  Elec       q    Type
REMARK                         _______ _______ _______ _____ _____    ______ ____
ROOT
ATOM      1  N   UNL     1      -3.880  -0.247   0.886  0.00  0.00    -0.332 NA
ATOM      2  N   UNL     1      -3.220   1.759  -0.274  0.00  0.00    -0.317 NA
ATOM      3  N   UNL     1      -1.188   1.892  -1.410  0.00  0.00    -0.335 N 
ATOM      4  N   UNL     1      -5.267   1.646   0.860  0.00  0.00    -0.283 N 
ATOM      5  C   UNL     1      -1.776  -0.179  -0.261  0.00  0.00    +0.177 C 
ATOM      6  C   UNL     1      -0.581  -0.815  -0.641  0.00  0.00    +0.137 C 
ATOM      7  C   UNL     1      -2.734  -0.846   0.518  0.00  0.00    +0.137 C 
ATOM      8  C   UNL     1      -2.083   1.129  -0.625  0.00  0.00    +0.181 C 
ATOM      9  C   UNL     1      -0.335  -2.126  -0.243  0.00  0.00    +0.034 C 
ATOM     10  C   UNL     1      -2.462  -2.157   0.902  0.00  0.00    +0.030 C 
ATOM     11  C   UNL     1      -1.276  -2.797   0.529  0.00  0.00    +0.005 C 
ATOM     12  C   UNL     1      -4.061   1.023   0.470  0.00  0.00    +0.197 C 
ATOM     13  H   UNL     1      -1.417   2.816  -1.661  0.00  0.00    +0.144 HD
ATOM     14  H   UNL     1      -0.335   1.500  -1.705  0.00  0.00    +0.144 HD
ATOM     15  H   UNL     1      -5.921   1.153   1.407  0.00  0.00    +0.156 HD
ATOM     16  H   UNL     1      -5.454   2.572   0.585  0.00  0.00    +0.156 HD
ENDROOT
BRANCH   6  17
ATOM     17  O   UNL     1       0.385  -0.217  -1.395  0.00  0.00    -0.457 OA
BRANCH  17  18
ATOM     18  C   UNL     1       1.646  -0.092  -0.839  0.00  0.00    +0.145 C 
ATOM     19  C   UNL     1       2.569  -1.106  -1.025  0.00  0.00    +0.041 C 
ATOM     20  C   UNL     1       1.952   1.043  -0.109  0.00  0.00    +0.041 C 
ATOM     21  C   UNL     1       4.167   0.156   0.276  0.00  0.00    +0.139 C 
ATOM     22  C   UNL     1       3.840  -0.981  -0.463  0.00  0.00    +0.040 C 
ATOM     23  C   UNL     1       3.223   1.168   0.453  0.00  0.00    +0.040 C 
BRANCH  21  24
ATOM     24  O   UNL     1       5.407   0.278   0.824  0.00  0.00    -0.471 OA
ATOM     25  C   UNL     1       5.674   1.466   1.567  0.00  0.00    +0.252 C 
ENDBRANCH  21  24
ENDBRANCH  17  18
ENDBRANCH   6  17
TORSDOF 3
