REMARK  Name = 449500
REMARK  11 active torsions:
REMARK  status: ('A' for Active; 'I' for Inactive)
REMARK    1  A    between atoms: N_2  and  C_5
REMARK    2  A    between atoms: C_3  and  C_23
REMARK    3  A    between atoms: C_5  and  P_6
REMARK    4  A    between atoms: C_5  and  C_12
REMARK    5  A    between atoms: P_6  and  O_8
REMARK    6  A    between atoms: P_6  and  O_10
REMARK    7  A    between atoms: C_12  and  C_14
REMARK    8  A    between atoms: C_23  and  N_25
REMARK    9  A    between atoms: C_23  and  C_33
REMARK   10  A    between atoms: C_26  and  C_29
REMARK   11  A    between atoms: C_33  and  C_34
REMARK                            x       y       z     vdW  Elec       q    Type
REMARK                         _______ _______ _______ _____ _____    ______ ____
ROOT
ATOM      1  O   UNL     1       0.393   1.777  -1.746  0.00  0.00    -0.273 OA
ATOM      2  N   UNL     1      -1.221   1.160  -0.195  0.00  0.00    -0.294 N 
ATOM      3  C   UNL     1       0.073   1.452  -0.605  0.00  0.00    +0.241 C 
ATOM      4  H   UNL     1      -1.367   0.909   0.746  0.00  0.00    +0.150 HD
ENDROOT
BRANCH   2   5
ATOM      5  C   UNL     1      -2.373   1.205  -1.084  0.00  0.00    +0.181 C 
BRANCH   5   6
ATOM      6  P   UNL     1      -2.896   2.925  -1.127  0.00  0.00    +0.355 P 
ATOM      7  O   UNL     1      -1.834   3.881  -1.587  0.00  0.00    -0.256 OA
BRANCH   6   8
ATOM      8  O   UNL     1      -3.466   3.206   0.360  0.00  0.00    -0.323 OA
ATOM      9  H   UNL     1      -3.772   4.125   0.421  0.00  0.00    +0.220 HD
ENDBRANCH   6   8
BRANCH   6  10
ATOM     10  O   UNL     1      -4.229   2.904  -2.042  0.00  0.00    -0.323 OA
ATOM     11  H   UNL     1      -4.583   3.804  -2.120  0.00  0.00    +0.220 HD
ENDBRANCH   6  10
ENDBRANCH   5   6
BRANCH   5  12
ATOM     12  C   UNL     1      -3.484   0.259  -0.610  0.00  0.00    +0.060 C 
BRANCH  12  14
ATOM     13  N   UNL     1      -2.689  -3.288  -1.149  0.00  0.00    -0.312 N 
ATOM     14  C   UNL     1      -3.066  -1.182  -0.559  0.00  0.00    -0.004 C 
ATOM     15  C   UNL     1      -2.486  -1.858   0.551  0.00  0.00    +0.011 C 
ATOM     16  C   UNL     1      -2.260  -3.177   0.154  0.00  0.00    +0.048 C 
ATOM     17  C   UNL     1      -3.178  -2.087  -1.589  0.00  0.00    +0.058 C 
ATOM     18  C   UNL     1      -2.130  -1.472   1.859  0.00  0.00    +0.001 C 
ATOM     19  C   UNL     1      -1.693  -4.135   1.004  0.00  0.00    +0.015 C 
ATOM     20  C   UNL     1      -1.563  -2.419   2.719  0.00  0.00    +0.000 C 
ATOM     21  C   UNL     1      -1.349  -3.729   2.296  0.00  0.00    +0.001 C 
ATOM     22  H   UNL     1      -2.651  -4.112  -1.687  0.00  0.00    +0.152 HD
ENDBRANCH  12  14
ENDBRANCH   5  12
ENDBRANCH   2   5
BRANCH   3  23
ATOM     23  C   UNL     1       1.081   1.271   0.524  0.00  0.00    +0.149 C 
BRANCH  23  25
ATOM     24  O   UNL     1       1.617  -1.461   0.077  0.00  0.00    -0.267 OA
ATOM     25  N   UNL     1       2.282   0.734  -0.061  0.00  0.00    -0.292 N 
ATOM     26  C   UNL     1       2.472  -0.636  -0.250  0.00  0.00    +0.281 C 
ATOM     27  H   UNL     1       2.994   1.355  -0.339  0.00  0.00    +0.150 HD
BRANCH  26  29
ATOM     28  O   UNL     1       4.603  -0.040  -1.241  0.00  0.00    -0.446 OA
ATOM     29  C   UNL     1       3.736  -1.026  -0.891  0.00  0.00    +0.198 C 
ATOM     30  C   UNL     1       4.247  -2.259  -1.225  0.00  0.00    +0.045 C 
ATOM     31  C   UNL     1       5.508  -2.015  -1.819  0.00  0.00    +0.044 C 
ATOM     32  C   UNL     1       5.678  -0.650  -1.805  0.00  0.00    +0.180 C 
ENDBRANCH  26  29
ENDBRANCH  23  25
BRANCH  23  33
ATOM     33  C   UNL     1       1.327   2.609   1.233  0.00  0.00    +0.029 C 
BRANCH  33  34
ATOM     34  C   UNL     1       2.371   2.557   2.367  0.00  0.00    +0.002 C 
ATOM     35  C   UNL     1       2.614   3.929   2.998  0.00  0.00    +0.000 C 
ATOM     36  C   UNL     1       1.916   1.567   3.443  0.00  0.00    +0.000 C 
ENDBRANCH  33  34
ENDBRANCH  23  33
ENDBRANCH   3  23
TORSDOF 11
