REMARK  Name = 447414
REMARK  1 active torsions:
REMARK  status: ('A' for Active; 'I' for Inactive)
REMARK    1  A    between atoms: C_6  and  O_12
REMARK                            x       y       z     vdW  Elec       q    Type
REMARK                         _______ _______ _______ _____ _____    ______ ____
ROOT
ATOM      1  O   UNL     1       2.545   1.042  -0.063  0.00  0.00    -0.296 OA
ATOM      2  C   UNL     1      -0.279  -0.972   0.376  0.00  0.00    +0.009 C 
ATOM      3  C   UNL     1       0.533  -0.215  -0.710  0.00  0.00    +0.054 C 
ATOM      4  C   UNL     1      -0.715   0.356   1.069  0.00  0.00    +0.035 C 
ATOM      5  C   UNL     1      -0.494   0.776  -1.315  0.00  0.00    +0.036 C 
ATOM      6  C   UNL     1      -1.335   1.191  -0.085  0.00  0.00    +0.111 C 
ATOM      7  C   UNL     1       0.627   1.040   1.432  0.00  0.00    +0.067 C 
ATOM      8  C   UNL     1       1.408   0.670   0.185  0.00  0.00    +0.150 C 
ATOM      9  C   UNL     1      -1.440  -1.829  -0.163  0.00  0.00    +0.001 C 
ATOM     10  C   UNL     1       0.561  -1.905   1.275  0.00  0.00    +0.001 C 
ATOM     11  C   UNL     1       1.295  -1.039  -1.720  0.00  0.00    +0.007 C 
ENDROOT
BRANCH   6  12
ATOM     12  O   UNL     1      -2.705   0.885  -0.282  0.00  0.00    -0.384 OA
ATOM     13  H   UNL     1      -3.212   1.153   0.500  0.00  0.00    +0.210 HD
ENDBRANCH   6  12
TORSDOF 1
