REMARK  Name = 445227
REMARK  8 active torsions:
REMARK  status: ('A' for Active; 'I' for Inactive)
REMARK    1  A    between atoms: C_3  and  O_8
REMARK    2  A    between atoms: C_4  and  O_10
REMARK    3  A    between atoms: C_5  and  C_25
REMARK    4  A    between atoms: C_7  and  O_12
REMARK    5  A    between atoms: O_12  and  C_13
REMARK    6  A    between atoms: C_14  and  N_21
REMARK    7  A    between atoms: C_18  and  N_24
REMARK    8  A    between atoms: C_25  and  O_26
REMARK                            x       y       z     vdW  Elec       q    Type
REMARK                         _______ _______ _______ _____ _____    ______ ____
ROOT
ATOM      1  F   UNL     1       2.783  -1.869   1.936  0.00  0.00    -0.228 F 
ATOM      2  O   UNL     1       1.409   0.499  -0.397  0.00  0.00    -0.316 OA
ATOM      3  C   UNL     1       3.819   0.797  -0.382  0.00  0.00    +0.170 C 
ATOM      4  C   UNL     1       3.947  -0.233   0.740  0.00  0.00    +0.179 C 
ATOM      5  C   UNL     1       2.448   1.478  -0.334  0.00  0.00    +0.177 C 
ATOM      6  C   UNL     1       2.747  -1.169   0.766  0.00  0.00    +0.259 C 
ATOM      7  C   UNL     1       1.431  -0.401   0.710  0.00  0.00    +0.324 C 
ENDROOT
BRANCH   3   8
ATOM      8  O   UNL     1       4.840   1.780  -0.237  0.00  0.00    -0.379 OA
ATOM      9  H   UNL     1       5.709   1.351  -0.266  0.00  0.00    +0.211 HD
ENDBRANCH   3   8
BRANCH   4  10
ATOM     10  O   UNL     1       5.130  -0.999   0.516  0.00  0.00    -0.379 OA
ATOM     11  H   UNL     1       5.900  -0.408   0.498  0.00  0.00    +0.211 HD
ENDBRANCH   4  10
BRANCH   7  12
ATOM     12  O   UNL     1       0.340  -1.315   0.616  0.00  0.00    -0.449 OA
BRANCH  12  13
ATOM     13  C   UNL     1      -0.914  -0.770   0.569  0.00  0.00    +0.164 C 
ATOM     14  C   UNL     1      -1.751  -0.994  -0.520  0.00  0.00    +0.178 C 
ATOM     15  C   UNL     1      -1.343   0.016   1.636  0.00  0.00    +0.040 C 
ATOM     16  C   UNL     1      -3.026  -0.429  -0.544  0.00  0.00    +0.051 C 
ATOM     17  C   UNL     1      -2.618   0.581   1.613  0.00  0.00    +0.027 C 
ATOM     18  C   UNL     1      -3.459   0.359   0.523  0.00  0.00    +0.145 C 
BRANCH  14  21
ATOM     19  O   UNL     1      -2.110  -1.974  -2.577  0.00  0.00    -0.126 OA
ATOM     20  O   UNL     1      -0.178  -2.300  -1.587  0.00  0.00    -0.126 OA
ATOM     21  N   UNL     1      -1.325  -1.796  -1.615  0.00  0.00    +0.061 N 
ENDBRANCH  14  21
BRANCH  18  24
ATOM     22  O   UNL     1      -5.128   1.637   1.470  0.00  0.00    -0.126 OA
ATOM     23  O   UNL     1      -5.499   0.721  -0.490  0.00  0.00    -0.126 OA
ATOM     24  N   UNL     1      -4.758   0.933   0.500  0.00  0.00    +0.058 N 
ENDBRANCH  18  24
ENDBRANCH  12  13
ENDBRANCH   7  12
BRANCH   5  25
ATOM     25  C   UNL     1       2.252   2.432  -1.508  0.00  0.00    +0.169 C 
BRANCH  25  26
ATOM     26  O   UNL     1       0.965   3.015  -1.405  0.00  0.00    -0.379 OA
ATOM     27  H   UNL     1       0.826   3.625  -2.147  0.00  0.00    +0.211 HD
ENDBRANCH  25  26
ENDBRANCH   5  25
TORSDOF 8
