REMARK  Name = 5280881
REMARK  14 active torsions:
REMARK  status: ('A' for Active; 'I' for Inactive)
REMARK    1  A    between atoms: C_3  and  C_7
REMARK    2  A    between atoms: C_4  and  C_17
REMARK    3  A    between atoms: C_8  and  C_9
REMARK    4  A    between atoms: C_9  and  O_10
REMARK    5  A    between atoms: C_9  and  C_12
REMARK    6  A    between atoms: C_12  and  C_13
REMARK    7  A    between atoms: C_13  and  C_14
REMARK    8  A    between atoms: C_14  and  C_15
REMARK    9  A    between atoms: C_17  and  C_18
REMARK   10  A    between atoms: C_19  and  C_20
REMARK   11  A    between atoms: C_20  and  C_21
REMARK   12  A    between atoms: C_21  and  C_22
REMARK   13  A    between atoms: C_22  and  C_24
REMARK   14  A    between atoms: C_24  and  O_25
REMARK                            x       y       z     vdW  Elec       q    Type
REMARK                         _______ _______ _______ _____ _____    ______ ____
ROOT
ATOM      1  O   UNL     1       4.618   0.295   1.069  0.00  0.00    -0.287 OA
ATOM      2  C   UNL     1       1.695  -1.575   1.827  0.00  0.00    +0.003 C 
ATOM      3  C   UNL     1       1.708  -1.330   0.346  0.00  0.00    -0.001 C 
ATOM      4  C   UNL     1       2.759  -0.630  -0.099  0.00  0.00    +0.021 C 
ATOM      5  C   UNL     1       2.959  -0.903   2.345  0.00  0.00    +0.042 C 
ATOM      6  C   UNL     1       3.571  -0.336   1.099  0.00  0.00    +0.192 C 
ENDROOT
BRANCH   3   7
ATOM      7  C   UNL     1       0.630  -1.847  -0.448  0.00  0.00    -0.002 C 
ATOM      8  C   UNL     1      -0.396  -2.542   0.061  0.00  0.00    +0.003 C 
BRANCH   8   9
ATOM      9  C   UNL     1      -1.526  -3.084  -0.771  0.00  0.00    +0.132 C 
BRANCH   9  10
ATOM     10  O   UNL     1      -1.512  -4.508  -0.681  0.00  0.00    -0.380 OA
ATOM     11  H   UNL     1      -2.237  -4.872  -1.213  0.00  0.00    +0.211 HD
ENDBRANCH   9  10
BRANCH   9  12
ATOM     12  C   UNL     1      -2.879  -2.541  -0.291  0.00  0.00    +0.034 C 
BRANCH  12  13
ATOM     13  C   UNL     1      -2.952  -1.013  -0.387  0.00  0.00    +0.003 C 
BRANCH  13  14
ATOM     14  C   UNL     1      -4.319  -0.494   0.063  0.00  0.00    +0.000 C 
BRANCH  14  15
ATOM     15  C   UNL     1      -4.384   1.032  -0.004  0.00  0.00    +0.000 C 
ATOM     16  C   UNL     1      -5.729   1.554   0.474  0.00  0.00    +0.000 C 
ENDBRANCH  14  15
ENDBRANCH  13  14
ENDBRANCH  12  13
ENDBRANCH   9  12
ENDBRANCH   8   9
ENDBRANCH   3   7
BRANCH   4  17
ATOM     17  C   UNL     1       3.158  -0.174  -1.452  0.00  0.00    +0.055 C 
BRANCH  17  18
ATOM     18  C   UNL     1       3.244   1.318  -1.649  0.00  0.00    -0.026 C 
ATOM     19  C   UNL     1       2.255   2.153  -2.005  0.00  0.00    -0.030 C 
BRANCH  19  20
ATOM     20  C   UNL     1       0.846   1.705  -2.273  0.00  0.00    +0.026 C 
BRANCH  20  21
ATOM     21  C   UNL     1      -0.177   2.367  -1.345  0.00  0.00    +0.016 C 
BRANCH  21  22
ATOM     22  C   UNL     1       0.060   2.048   0.132  0.00  0.00    +0.110 C 
BRANCH  22  24
ATOM     23  O   UNL     1      -1.892   3.412   0.640  0.00  0.00    -0.250 OA
ATOM     24  C   UNL     1      -0.974   2.700   1.022  0.00  0.00    +0.314 C 
BRANCH  24  25
ATOM     25  O   UNL     1      -0.765   2.395   2.329  0.00  0.00    -0.480 OA
ATOM     26  H   UNL     1      -0.047   1.845   2.574  0.00  0.00    +0.295 HD
ENDBRANCH  24  25
ENDBRANCH  22  24
ENDBRANCH  21  22
ENDBRANCH  20  21
ENDBRANCH  19  20
ENDBRANCH  17  18
ENDBRANCH   4  17
TORSDOF 14
