REMARK  Name = 11861988
REMARK  2 active torsions:
REMARK  status: ('A' for Active; 'I' for Inactive)
REMARK    1  A    between atoms: C_1  and  C_4
REMARK    2  A    between atoms: C_2  and  N_10
REMARK                            x       y       z     vdW  Elec       q    Type
REMARK                         _______ _______ _______ _____ _____    ______ ____
ROOT
ATOM      1  C   UNL     1       1.296  -0.103  -0.581  0.00  0.00    +0.000 C 
ATOM      2  C   UNL     1       2.274   0.151   0.524  0.00  0.00    -0.061 C 
ATOM      3  C   UNL     1       2.089  -1.238  -0.013  0.00  0.00    -0.019 C 
ENDROOT
BRANCH   1   4
ATOM      4  C   UNL     1      -0.164  -0.020  -0.290  0.00  0.00    -0.025 C 
ATOM      5  C   UNL     1      -0.793   1.224  -0.226  0.00  0.00    -0.004 C 
ATOM      6  C   UNL     1      -0.900  -1.186  -0.080  0.00  0.00    -0.004 C 
ATOM      7  C   UNL     1      -2.158   1.301   0.048  0.00  0.00    -0.000 C 
ATOM      8  C   UNL     1      -2.266  -1.108   0.195  0.00  0.00    -0.000 C 
ATOM      9  C   UNL     1      -2.895   0.135   0.258  0.00  0.00    -0.000 C 
ENDBRANCH   1   4
BRANCH   2  10
ATOM     10  N   UNL     1       3.516   0.844   0.166  0.00  0.00    +0.382 N 
ATOM     11  H   UNL     1       3.522   1.772   0.589  0.00  0.00    -0.089 HD
ATOM     12  H   UNL     1       3.576   0.932  -0.849  0.00  0.00    -0.089 HD
ATOM     13  H   UNL     1       4.315   0.309   0.508  0.00  0.00    -0.089 HD
ENDBRANCH   2  10
TORSDOF 2
