REMARK  Name = 65077
REMARK  3 active torsions:
REMARK  status: ('A' for Active; 'I' for Inactive)
REMARK    1  A    between atoms: C_3  and  N_17
REMARK    2  A    between atoms: C_4  and  S_11
REMARK    3  A    between atoms: S_11  and  N_14
REMARK                            x       y       z     vdW  Elec       q    Type
REMARK                         _______ _______ _______ _____ _____    ______ ____
ROOT
ATOM      1  C   UNL     1       0.878   0.344  -0.015  0.00  0.00    +0.015 C 
ATOM      2  C   UNL     1      -0.385  -0.295  -0.040  0.00  0.00    +0.020 C 
ATOM      3  C   UNL     1       2.044  -0.439   0.002  0.00  0.00    +0.048 C 
ATOM      4  C   UNL     1      -1.550   0.488  -0.057  0.00  0.00    +0.122 C 
ATOM      5  C   UNL     1       0.937   1.747  -0.007  0.00  0.00    +0.001 C 
ATOM      6  C   UNL     1      -0.444  -1.698  -0.048  0.00  0.00    +0.001 C 
ATOM      7  C   UNL     1       1.966  -1.832  -0.006  0.00  0.00    +0.015 C 
ATOM      8  C   UNL     1      -1.473   1.881  -0.049  0.00  0.00    +0.020 C 
ATOM      9  C   UNL     1       0.725  -2.460  -0.031  0.00  0.00    +0.001 C 
ATOM     10  C   UNL     1      -0.231   2.509  -0.025  0.00  0.00    +0.001 C 
ENDROOT
BRANCH   4  11
ATOM     11  S   UNL     1      -3.164  -0.208  -0.088  0.00  0.00    +0.057 S 
ATOM     12  O   UNL     1      -4.064   0.775  -0.668  0.00  0.00    -0.153 OA
ATOM     13  O   UNL     1      -3.070  -1.540  -0.658  0.00  0.00    -0.153 OA
BRANCH  11  14
ATOM     14  N   UNL     1      -3.482  -0.340   1.583  0.00  0.00    -0.203 NA
ATOM     15  H   UNL     1      -4.410  -0.739   1.722  0.00  0.00    +0.144 HD
ATOM     16  H   UNL     1      -3.443   0.586   2.011  0.00  0.00    +0.144 HD
ENDBRANCH  11  14
ENDBRANCH   4  11
BRANCH   3  17
ATOM     17  N   UNL     1       3.332   0.150   0.027  0.00  0.00    -0.304 N 
ATOM     18  C   UNL     1       4.016   0.458  -1.210  0.00  0.00    +0.112 C 
ATOM     19  C   UNL     1       3.966   0.459   1.290  0.00  0.00    +0.112 C 
ENDBRANCH   3  17
TORSDOF 3
