REMARK  Name = 136449
REMARK  5 active torsions:
REMARK  status: ('A' for Active; 'I' for Inactive)
REMARK    1  A    between atoms: C_1  and  C_4
REMARK    2  A    between atoms: C_1  and  C_7
REMARK    3  A    between atoms: C_7  and  C_8
REMARK    4  A    between atoms: C_8  and  C_9
REMARK    5  A    between atoms: C_9  and  C_10
REMARK                            x       y       z     vdW  Elec       q    Type
REMARK                         _______ _______ _______ _____ _____    ______ ____
ROOT
ATOM      1  C   UNL     1       1.539   0.673  -0.012  0.00  0.00    +0.085 C 
ENDROOT
BRANCH   1   4
ATOM      2  O   UNL     1       2.886  -1.345   0.012  0.00  0.00    -0.275 OA
ATOM      3  N   UNL     1       3.944   0.697  -0.016  0.00  0.00    -0.329 N 
ATOM      4  C   UNL     1       2.832  -0.118  -0.005  0.00  0.00    +0.219 C 
ATOM      5  H   UNL     1       4.845   0.300  -0.013  0.00  0.00    +0.145 HD
ATOM      6  H   UNL     1       3.837   1.675  -0.028  0.00  0.00    +0.145 HD
ENDBRANCH   1   4
BRANCH   1   7
ATOM      7  C   UNL     1       0.306  -0.227   0.000  0.00  0.00    +0.010 C 
BRANCH   7   8
ATOM      8  C   UNL     1      -0.984   0.595   0.032  0.00  0.00    +0.001 C 
BRANCH   8   9
ATOM      9  C   UNL     1      -2.218  -0.310   0.012  0.00  0.00    +0.000 C 
BRANCH   9  10
ATOM     10  C   UNL     1      -3.538   0.465   0.011  0.00  0.00    +0.000 C 
ATOM     11  C   UNL     1      -4.767  -0.429  -0.034  0.00  0.00    +0.000 C 
ENDBRANCH   9  10
ENDBRANCH   8   9
ENDBRANCH   7   8
ENDBRANCH   1   7
TORSDOF 5
