REMARK  Name = 447652
REMARK  1 active torsions:
REMARK  status: ('A' for Active; 'I' for Inactive)
REMARK    1  A    between atoms: C_5  and  C_14
REMARK                            x       y       z     vdW  Elec       q    Type
REMARK                         _______ _______ _______ _____ _____    ______ ____
ROOT
ATOM      1  O   UNL     1       2.605   2.056  -1.168  0.00  0.00    -0.274 OA
ATOM      2  N   UNL     1       1.326  -0.139  -0.049  0.00  0.00    -0.340 NA
ATOM      3  N   UNL     1       2.796  -1.513   1.276  0.00  0.00    -0.170 NA
ATOM      4  N   UNL     1       3.585   0.410   0.203  0.00  0.00    -0.218 N 
ATOM      5  C   UNL     1       0.329  -0.995   0.248  0.00  0.00    +0.148 C 
ATOM      6  C   UNL     1       0.478  -2.113   1.037  0.00  0.00    +0.052 C 
ATOM      7  C   UNL     1       2.518  -0.455   0.491  0.00  0.00    +0.150 C 
ATOM      8  C   UNL     1       1.749  -2.325   1.530  0.00  0.00    +0.114 C 
ATOM      9  C   UNL     1       3.563   1.567  -0.578  0.00  0.00    +0.235 C 
ATOM     10  C   UNL     1       4.922   2.219  -0.637  0.00  0.00    +0.096 C 
ATOM     11  H   UNL     1       4.454   0.173   0.600  0.00  0.00    +0.167 HD
ENDROOT
BRANCH   5  14
ATOM     12  N   UNL     1      -1.892   0.141   0.265  0.00  0.00    -0.251 N 
ATOM     13  N   UNL     1      -2.743  -0.471  -1.711  0.00  0.00    -0.393 NA
ATOM     14  C   UNL     1      -0.949  -0.654  -0.334  0.00  0.00    +0.181 C 
ATOM     15  C   UNL     1      -2.968   0.223  -0.615  0.00  0.00    +0.187 C 
ATOM     16  C   UNL     1      -1.495  -1.016  -1.543  0.00  0.00    +0.114 C 
ATOM     17  C   UNL     1      -1.857   0.778   1.502  0.00  0.00    +0.068 C 
ATOM     18  C   UNL     1      -4.084   1.008  -0.200  0.00  0.00    +0.048 C 
ATOM     19  C   UNL     1      -0.915  -1.866  -2.596  0.00  0.00    +0.064 C 
ATOM     20  C   UNL     1      -2.912   1.516   1.885  0.00  0.00    +0.016 C 
ATOM     21  C   UNL     1      -4.057   1.627   0.996  0.00  0.00    +0.005 C 
ENDBRANCH   5  14
TORSDOF 1
