REMARK  Name = 447765
REMARK  2 active torsions:
REMARK  status: ('A' for Active; 'I' for Inactive)
REMARK    1  A    between atoms: C_1  and  C_4
REMARK    2  A    between atoms: C_1  and  O_6
REMARK                            x       y       z     vdW  Elec       q    Type
REMARK                         _______ _______ _______ _____ _____    ______ ____
ROOT
ATOM      1  C   UNL     1      -0.723   0.155  -0.401  0.00  0.00    +0.167 C 
ATOM      2  C   UNL     1      -1.299   1.266   0.458  0.00  0.00    +0.040 C 
ENDROOT
BRANCH   1   4
ATOM      3  O   UNL     1       1.078  -1.238   0.401  0.00  0.00    -0.294 OA
ATOM      4  C   UNL     1       0.724  -0.141  -0.033  0.00  0.00    +0.178 C 
ATOM      5  C   UNL     1       1.724   0.970  -0.230  0.00  0.00    +0.075 C 
ENDBRANCH   1   4
BRANCH   1   6
ATOM      6  O   UNL     1      -1.504  -1.012  -0.195  0.00  0.00    -0.377 OA
ATOM      7  H   UNL     1      -1.152  -1.736  -0.736  0.00  0.00    +0.211 HD
ENDBRANCH   1   6
TORSDOF 2
