REMARK  Name = 445062
REMARK  11 active torsions:
REMARK  status: ('A' for Active; 'I' for Inactive)
REMARK    1  A    between atoms: C_2  and  C_10
REMARK    2  A    between atoms: C_3  and  C_19
REMARK    3  A    between atoms: C_4  and  O_8
REMARK    4  A    between atoms: C_10  and  N_11
REMARK    5  A    between atoms: N_11  and  C_14
REMARK    6  A    between atoms: C_14  and  C_16
REMARK    7  A    between atoms: C_16  and  O_17
REMARK    8  A    between atoms: C_19  and  O_20
REMARK    9  A    between atoms: O_20  and  P_21
REMARK   10  A    between atoms: P_21  and  O_23
REMARK   11  A    between atoms: P_21  and  O_25
REMARK                            x       y       z     vdW  Elec       q    Type
REMARK                         _______ _______ _______ _____ _____    ______ ____
ROOT
ATOM      1  N   UNL     1      -0.887   3.390   0.809  0.00  0.00    -0.245 NA
ATOM      2  C   UNL     1       0.291   1.113  -0.306  0.00  0.00    -0.009 C 
ATOM      3  C   UNL     1      -0.869   0.999   0.453  0.00  0.00    +0.024 C 
ATOM      4  C   UNL     1       0.862   2.365  -0.508  0.00  0.00    +0.141 C 
ATOM      5  C   UNL     1       0.240   3.462   0.066  0.00  0.00    +0.092 C 
ATOM      6  C   UNL     1      -1.413   2.157   0.984  0.00  0.00    +0.096 C 
ATOM      7  C   UNL     1       0.812   4.829  -0.120  0.00  0.00    +0.055 C 
ENDROOT
BRANCH   4   8
ATOM      8  O   UNL     1       1.995   2.506  -1.245  0.00  0.00    -0.505 OA
ATOM      9  H   UNL     1       2.403   1.754  -1.627  0.00  0.00    +0.292 HD
ENDBRANCH   4   8
BRANCH   2  10
ATOM     10  C   UNL     1       0.923  -0.102  -0.904  0.00  0.00    -0.051 C 
BRANCH  10  11
ATOM     11  N   UNL     1       1.905  -0.713  -0.009  0.00  0.00    +0.394 N 
ATOM     12  H   UNL     1       1.445  -0.979   0.862  0.00  0.00    -0.083 HD
ATOM     13  H   UNL     1       2.647  -0.037   0.174  0.00  0.00    -0.083 HD
BRANCH  11  14
ATOM     14  C   UNL     1       2.491  -1.897  -0.619  0.00  0.00    +0.031 C 
BRANCH  14  16
ATOM     15  O   UNL     1       3.739  -2.014   1.440  0.00  0.00    -0.253 OA
ATOM     16  C   UNL     1       3.489  -2.487   0.339  0.00  0.00    +0.292 C 
BRANCH  16  17
ATOM     17  O   UNL     1       4.120  -3.580  -0.161  0.00  0.00    -0.482 OA
ATOM     18  H   UNL     1       3.893  -3.904  -1.010  0.00  0.00    +0.295 HD
ENDBRANCH  16  17
ENDBRANCH  14  16
ENDBRANCH  11  14
ENDBRANCH  10  11
ENDBRANCH   2  10
BRANCH   3  19
ATOM     19  C   UNL     1      -1.523  -0.316   0.702  0.00  0.00    +0.181 C 
BRANCH  19  20
ATOM     20  O   UNL     1      -2.473  -0.575  -0.326  0.00  0.00    -0.268 OA
BRANCH  20  21
ATOM     21  P   UNL     1      -3.312  -1.955  -0.264  0.00  0.00    +0.473 P 
ATOM     22  O   UNL     1      -4.292  -2.155  -1.383  0.00  0.00    -0.227 OA
BRANCH  21  23
ATOM     23  O   UNL     1      -3.950  -1.952   1.222  0.00  0.00    -0.303 OA
ATOM     24  H   UNL     1      -3.246  -1.817   1.875  0.00  0.00    +0.222 HD
ENDBRANCH  21  23
BRANCH  21  25
ATOM     25  O   UNL     1      -2.149  -3.075  -0.167  0.00  0.00    -0.303 OA
ATOM     26  H   UNL     1      -1.564  -2.870   0.579  0.00  0.00    +0.222 HD
ENDBRANCH  21  25
ENDBRANCH  20  21
ENDBRANCH  19  20
ENDBRANCH   3  19
TORSDOF 11
