REMARK  Name = 3870203
REMARK  4 active torsions:
REMARK  status: ('A' for Active; 'I' for Inactive)
REMARK    1  A    between atoms: C_1  and  N_9
REMARK    2  A    between atoms: C_2  and  N_12
REMARK    3  A    between atoms: C_3  and  O_13
REMARK    4  A    between atoms: C_5  and  O_15
REMARK                            x       y       z     vdW  Elec       q    Type
REMARK                         _______ _______ _______ _____ _____    ______ ____
ROOT
ATOM      1  C   UNL     1       0.985   0.451  -0.001  0.00  0.00    +0.181 C 
ATOM      2  C   UNL     1      -1.404   0.091  -0.001  0.00  0.00    +0.148 C 
ATOM      3  C   UNL     1       1.193  -0.929  -0.001  0.00  0.00    +0.190 C 
ATOM      4  C   UNL     1      -0.313   0.961  -0.001  0.00  0.00    +0.051 C 
ATOM      5  C   UNL     1       0.102  -1.798   0.000  0.00  0.00    +0.171 C 
ATOM      6  C   UNL     1      -1.196  -1.288   0.000  0.00  0.00    +0.064 C 
ENDROOT
BRANCH   1   9
ATOM      7  O   UNL     1       1.857   2.585   0.001  0.00  0.00    -0.126 OA
ATOM      8  O   UNL     1       3.249   0.888   0.000  0.00  0.00    -0.126 OA
ATOM      9  N   UNL     1       2.085   1.353   0.000  0.00  0.00    +0.061 N 
ENDBRANCH   1   9
BRANCH   2  12
ATOM     10  O   UNL     1      -2.890   1.854   0.001  0.00  0.00    -0.126 OA
ATOM     11  O   UNL     1      -3.692  -0.190   0.000  0.00  0.00    -0.126 OA
ATOM     12  N   UNL     1      -2.726   0.610   0.000  0.00  0.00    +0.058 N 
ENDBRANCH   2  12
BRANCH   3  13
ATOM     13  O   UNL     1       2.459  -1.439   0.001  0.00  0.00    -0.502 OA
ATOM     14  H   UNL     1       3.197  -0.862   0.001  0.00  0.00    +0.292 HD
ENDBRANCH   3  13
BRANCH   5  15
ATOM     15  O   UNL     1       0.290  -3.147   0.001  0.00  0.00    -0.503 OA
ATOM     16  H   UNL     1       1.159  -3.499   0.001  0.00  0.00    +0.292 HD
ENDBRANCH   5  15
TORSDOF 4
