REMARK  Name = 5289509
REMARK  4 active torsions:
REMARK  status: ('A' for Active; 'I' for Inactive)
REMARK    1  A    between atoms: C_3  and  C_13
REMARK    2  A    between atoms: C_5  and  C_6
REMARK    3  A    between atoms: C_6  and  N_9
REMARK    4  A    between atoms: C_13  and  O_14
REMARK                            x       y       z     vdW  Elec       q    Type
REMARK                         _______ _______ _______ _____ _____    ______ ____
ROOT
ATOM      1  S   UNK     1      -0.163  -2.072   0.369  0.00  0.00    -0.092 S 
ATOM      2  N   UNK     1       0.260   0.359  -0.483  0.00  0.00    -0.253 NA
ATOM      3  C   UNK     1       1.571  -0.321  -0.459  0.00  0.00    +0.213 C 
ATOM      4  C   UNK     1       1.537  -1.489   0.516  0.00  0.00    +0.099 C 
ATOM      5  C   UNK     1      -0.658  -0.477  -0.134  0.00  0.00    +0.115 C 
ENDROOT
BRANCH   5   6
ATOM      6  C   UNK     1      -2.094  -0.198  -0.093  0.00  0.00    +0.061 C 
ATOM      7  C   UNK     1      -2.427   1.080   0.171  0.00  0.00    -0.010 C 
ATOM      8  C   UNK     1      -3.815   1.628   0.266  0.00  0.00    +0.032 C 
BRANCH   6   9
ATOM      9  N   UNK     1      -2.926  -1.252  -0.325  0.00  0.00    -0.356 N 
ATOM     10  H   UNK     1      -2.551  -2.144  -0.507  0.00  0.00    +0.142 HD
ATOM     11  H   UNK     1      -3.901  -1.122  -0.311  0.00  0.00    +0.142 HD
ENDBRANCH   6   9
ENDBRANCH   5   6
BRANCH   3  13
ATOM     12  O   UNK     1       2.314   1.858   0.264  0.00  0.00    -0.248 OA
ATOM     13  C   UNK     1       2.575   0.704  -0.042  0.00  0.00    +0.337 C 
BRANCH  13  14
ATOM     14  O   UNK     1       3.825   0.181  -0.051  0.00  0.00    -0.479 OA
ATOM     15  H   UNK     1       3.957  -0.714  -0.296  0.00  0.00    +0.295 HD
ENDBRANCH  13  14
ENDBRANCH   3  13
TORSDOF 4
