REMARK  Name = 2733981
REMARK  2 active torsions:
REMARK  status: ('A' for Active; 'I' for Inactive)
REMARK    1  A    between atoms: C_5  and  N_12
REMARK    2  A    between atoms: C_8  and  O_15
REMARK                            x       y       z     vdW  Elec       q    Type
REMARK                         _______ _______ _______ _____ _____    ______ ____
ROOT
ATOM      1  O   UNL     1      -1.115   2.303  -0.001  0.00  0.00    -0.273 OA
ATOM      2  N   UNL     1       0.901   1.192   0.000  0.00  0.00    -0.246 N 
ATOM      3  N   UNL     1       1.020  -1.152   0.000  0.00  0.00    -0.341 NA
ATOM      4  N   UNL     1       2.981   0.134   0.000  0.00  0.00    -0.321 N 
ATOM      5  C   UNL     1      -1.146  -0.080   0.000  0.00  0.00    +0.218 C 
ATOM      6  C   UNL     1      -0.478   1.254   0.000  0.00  0.00    +0.253 C 
ATOM      7  C   UNL     1       1.617   0.006   0.000  0.00  0.00    +0.241 C 
ATOM      8  C   UNL     1      -0.354  -1.168   0.000  0.00  0.00    +0.275 C 
ATOM      9  H   UNL     1       1.403   2.039   0.001  0.00  0.00    +0.159 HD
ATOM     10  H   UNL     1       3.391   1.029  -0.001  0.00  0.00    +0.146 HD
ATOM     11  H   UNL     1       3.550  -0.669   0.000  0.00  0.00    +0.146 HD
ENDROOT
BRANCH   5  12
ATOM     12  N   UNL     1      -2.511  -0.050   0.000  0.00  0.00    -0.307 NA
ATOM     13  H   UNL     1      -2.984   0.813   0.000  0.00  0.00    +0.120 HD
ATOM     14  H   UNL     1      -3.022  -0.892   0.000  0.00  0.00    +0.120 HD
ENDBRANCH   5  12
BRANCH   8  15
ATOM     15  O   UNL     1      -0.914  -2.440   0.000  0.00  0.00    -0.485 OA
ATOM     16  H   UNL     1      -0.360  -3.196  -0.001  0.00  0.00    +0.295 HD
ENDBRANCH   8  15
TORSDOF 2
