REMARK  Name = 124992
REMARK  11 active torsions:
REMARK  status: ('A' for Active; 'I' for Inactive)
REMARK    1  A    between atoms: C_1  and  N_3
REMARK    2  A    between atoms: C_1  and  C_13
REMARK    3  A    between atoms: C_4  and  C_6
REMARK    4  A    between atoms: C_6  and  P_7
REMARK    5  A    between atoms: P_7  and  O_9
REMARK    6  A    between atoms: P_7  and  O_11
REMARK    7  A    between atoms: C_13  and  C_14
REMARK    8  A    between atoms: C_14  and  CA_15
REMARK    9  A    between atoms: CA_15  and  N_16
REMARK   10  A    between atoms: CA_15  and  C_21
REMARK   11  A    between atoms: C_21  and  O_22
REMARK                            x       y       z     vdW  Elec       q    Type
REMARK                         _______ _______ _______ _____ _____    ______ ____
ROOT
ATOM      1  C   UNL     1      -0.538  -1.838   0.079  0.00  0.00    +0.089 C 
ENDROOT
BRANCH   1   3
ATOM      2  O   UNL     1       1.847  -0.746   1.310  0.00  0.00    -0.274 OA
ATOM      3  N   UNL     1       0.606  -1.277  -0.586  0.00  0.00    -0.304 N 
ATOM      4  C   UNL     1       1.712  -0.774   0.089  0.00  0.00    +0.235 C 
ATOM      5  H   UNL     1       0.607  -1.248  -1.570  0.00  0.00    +0.149 HD
BRANCH   4   6
ATOM      6  C   UNL     1       2.766  -0.251  -0.853  0.00  0.00    +0.200 C 
BRANCH   6   7
ATOM      7  P   UNL     1       4.210   0.443  -0.024  0.00  0.00    +0.346 P 
ATOM      8  O   UNL     1       4.928  -0.530   0.846  0.00  0.00    -0.258 OA
BRANCH   7   9
ATOM      9  O   UNL     1       3.602   1.738   0.715  0.00  0.00    -0.323 OA
ATOM     10  H   UNL     1       4.307   2.195   1.200  0.00  0.00    +0.220 HD
ENDBRANCH   7   9
BRANCH   7  11
ATOM     11  O   UNL     1       5.056   1.057  -1.249  0.00  0.00    -0.323 OA
ATOM     12  H   UNL     1       5.869   1.463  -0.910  0.00  0.00    +0.220 HD
ENDBRANCH   7  11
ENDBRANCH   6   7
ENDBRANCH   4   6
ENDBRANCH   1   3
BRANCH   1  13
ATOM     13  C   UNL     1      -1.608  -0.794   0.388  0.00  0.00    +0.020 C 
BRANCH  13  14
ATOM     14  C   UNL     1      -2.154  -0.124  -0.884  0.00  0.00    -0.009 C 
BRANCH  14  15
ATOM     15  CA  UNL     1      -3.275   0.896  -0.636  0.00  0.00    +0.036 C 
BRANCH  15  16
ATOM     16  N   UNL     1      -2.802   2.034   0.151  0.00  0.00    +0.389 N 
ATOM     17  H1  UNL     1      -2.007   2.466  -0.320  0.00  0.00    -0.088 HD
ATOM     18  H2  UNL     1      -2.516   1.713   1.076  0.00  0.00    -0.088 HD
ATOM     19  H3  UNL     1      -3.553   2.718   0.246  0.00  0.00    -0.088 HD
ENDBRANCH  15  16
BRANCH  15  21
ATOM     20  OXT UNL     1      -4.881   0.627   1.184  0.00  0.00    -0.253 OA
ATOM     21  C   UNL     1      -4.456   0.277   0.091  0.00  0.00    +0.293 C 
BRANCH  21  22
ATOM     22  O   UNL     1      -5.013  -0.739  -0.620  0.00  0.00    -0.482 OA
ATOM     23  H   UNL     1      -4.659  -0.977  -1.454  0.00  0.00    +0.295 HD
ENDBRANCH  21  22
ENDBRANCH  15  21
ENDBRANCH  14  15
ENDBRANCH  13  14
ENDBRANCH   1  13
TORSDOF 11
