REMARK  Name = 8094
REMARK  6 active torsions:
REMARK  status: ('A' for Active; 'I' for Inactive)
REMARK    1  A    between atoms: C_1  and  C_2
REMARK    2  A    between atoms: C_1  and  C_6
REMARK    3  A    between atoms: C_2  and  C_3
REMARK    4  A    between atoms: C_3  and  C_4
REMARK    5  A    between atoms: C_6  and  C_8
REMARK    6  A    between atoms: C_8  and  O_9
REMARK                            x       y       z     vdW  Elec       q    Type
REMARK                         _______ _______ _______ _____ _____    ______ ____
ROOT
ATOM      1  C   UNL     1      -0.301  -0.215  -0.015  0.00  0.00    +0.012 C 
ENDROOT
BRANCH   1   2
ATOM      2  C   UNL     1       0.995   0.603  -0.052  0.00  0.00    +0.001 C 
BRANCH   2   3
ATOM      3  C   UNL     1       2.224  -0.308   0.004  0.00  0.00    +0.000 C 
BRANCH   3   4
ATOM      4  C   UNL     1       3.548   0.459   0.007  0.00  0.00    +0.000 C 
ATOM      5  C   UNL     1       4.772  -0.443   0.036  0.00  0.00    +0.000 C 
ENDBRANCH   3   4
ENDBRANCH   2   3
ENDBRANCH   1   2
BRANCH   1   6
ATOM      6  C   UNL     1      -1.550   0.668  -0.030  0.00  0.00    +0.109 C 
BRANCH   6   8
ATOM      7  O   UNL     1      -2.927  -1.342  -0.013  0.00  0.00    -0.250 OA
ATOM      8  C   UNL     1      -2.839  -0.122  -0.002  0.00  0.00    +0.314 C 
BRANCH   8   9
ATOM      9  O   UNL     1      -3.921   0.698   0.064  0.00  0.00    -0.480 OA
ATOM     10  H   UNL     1      -3.805   1.627   0.070  0.00  0.00    +0.295 HD
ENDBRANCH   8   9
ENDBRANCH   6   8
ENDBRANCH   1   6
TORSDOF 6
