REMARK  Name = 4628823
REMARK  4 active torsions:
REMARK  status: ('A' for Active; 'I' for Inactive)
REMARK    1  A    between atoms: C_8  and  C_19
REMARK    2  A    between atoms: N_18  and  C_21
REMARK    3  A    between atoms: C_21  and  C_22
REMARK    4  A    between atoms: C_22  and  N_23
REMARK                            x       y       z     vdW  Elec       q    Type
REMARK                         _______ _______ _______ _____ _____    ______ ____
ROOT
ATOM      1 BR   UNL     1       0.473   3.490   0.607  0.00  0.00    -0.048 Br
ATOM      2  N   UNL     1       0.887   0.435   0.255  0.00  0.00    -0.312 N 
ATOM      3  C   UNL     1       0.796  -0.905   0.155  0.00  0.00    +0.053 C 
ATOM      4  C   UNL     1       1.952  -1.655  -0.141  0.00  0.00    +0.013 C 
ATOM      5  C   UNL     1       3.163  -0.977  -0.323  0.00  0.00    -0.001 C 
ATOM      6  C   UNL     1       3.220   0.418  -0.211  0.00  0.00    -0.004 C 
ATOM      7  C   UNL     1       2.034   1.120   0.087  0.00  0.00    +0.051 C 
ATOM      8  C   UNL     1      -0.434  -1.545   0.344  0.00  0.00    +0.067 C 
ATOM      9  C   UNL     1       1.846  -3.052  -0.243  0.00  0.00    +0.001 C 
ATOM     10  C   UNL     1      -0.521  -2.933   0.239  0.00  0.00    +0.006 C 
ATOM     11  C   UNL     1       4.411   1.140  -0.385  0.00  0.00    +0.054 C 
ATOM     12  C   UNL     1       2.050   2.514   0.206  0.00  0.00    +0.047 C 
ATOM     13  C   UNL     1       0.616  -3.684  -0.054  0.00  0.00    +0.000 C 
ATOM     14  C   UNL     1       4.419   2.531  -0.264  0.00  0.00    -0.021 C 
ATOM     15  C   UNL     1       3.241   3.216   0.031  0.00  0.00    +0.004 C 
ATOM     16  H   UNL     1       0.070   0.942   0.462  0.00  0.00    +0.152 HD
ENDROOT
BRANCH   8  19
ATOM     17  O   UNL     1      -1.591   0.274   1.264  0.00  0.00    -0.270 OA
ATOM     18  N   UNL     1      -2.856  -1.355   0.204  0.00  0.00    -0.303 N 
ATOM     19  C   UNL     1      -1.651  -0.804   0.651  0.00  0.00    +0.247 C 
ATOM     20  H   UNL     1      -2.827  -2.214  -0.276  0.00  0.00    +0.150 HD
BRANCH  18  21
ATOM     21  C   UNL     1      -4.142  -0.728   0.409  0.00  0.00    +0.067 C 
BRANCH  21  22
ATOM     22  C   UNL     1      -4.492   0.202  -0.742  0.00  0.00    -0.056 C 
BRANCH  22  23
ATOM     23  N   UNL     1      -5.803   0.801  -0.529  0.00  0.00    +0.385 N 
ATOM     24  C   UNL     1      -6.164   1.669  -1.653  0.00  0.00    -0.101 C 
ATOM     25  C   UNL     1      -5.829   1.557   0.724  0.00  0.00    -0.101 C 
ATOM     26  H   UNL     1      -6.489   0.048  -0.468  0.00  0.00    -0.080 HD
ENDBRANCH  22  23
ENDBRANCH  21  22
ENDBRANCH  18  21
ENDBRANCH   8  19
TORSDOF 4
REMARK  Name = 4628823
REMARK  4 active torsions:
REMARK  status: ('A' for Active; 'I' for Inactive)
REMARK    1  A    between atoms: C_8  and  C_19
REMARK    2  A    between atoms: N_18  and  C_21
REMARK    3  A    between atoms: C_21  and  C_22
REMARK    4  A    between atoms: C_22  and  N_23
REMARK                            x       y       z     vdW  Elec       q    Type
REMARK                         _______ _______ _______ _____ _____    ______ ____
ROOT
ATOM      1  N   UNL     1       4.374  -1.728  -0.630  0.00  0.00    -0.344 NA
ATOM      2  H   UNL     1       4.338  -2.709  -0.709  0.00  0.00    +0.115 HD
ATOM      3  H   UNL     1       5.228  -1.255  -0.758  0.00  0.00    +0.115 HD
ATOM      4  H   UNL     1       3.707  -1.843   0.085  0.00  0.00    +0.115 HD
ENDROOT
TORSDOF 0
