REMARK  Name = 4354
REMARK  6 active torsions:
REMARK  status: ('A' for Active; 'I' for Inactive)
REMARK    1  A    between atoms: O_1  and  P_2
REMARK    2  A    between atoms: O_1  and  C_8
REMARK    3  A    between atoms: P_2  and  O_4
REMARK    4  A    between atoms: P_2  and  O_6
REMARK    5  A    between atoms: C_8  and  C_9
REMARK    6  A    between atoms: C_9  and  N_12
REMARK                            x       y       z     vdW  Elec       q    Type
REMARK                         _______ _______ _______ _____ _____    ______ ____
ROOT
ATOM      1  O   UNL     1       0.914   0.092  -0.352  0.00  0.00    -0.272 OA
ENDROOT
BRANCH   1   2
ATOM      2  P   UNL     1       2.413   0.278   0.224  0.00  0.00    +0.473 P 
ATOM      3  O   UNL     1       2.840   1.701   0.437  0.00  0.00    -0.227 OA
BRANCH   2   4
ATOM      4  O   UNL     1       3.329  -0.571  -0.804  0.00  0.00    -0.303 OA
ATOM      5  H   UNL     1       2.979  -1.473  -0.878  0.00  0.00    +0.222 HD
ENDBRANCH   2   4
BRANCH   2   6
ATOM      6  O   UNL     1       2.401  -0.638   1.556  0.00  0.00    -0.303 OA
ATOM      7  H   UNL     1       2.115  -1.537   1.328  0.00  0.00    +0.222 HD
ENDBRANCH   2   6
ENDBRANCH   1   2
BRANCH   1   8
ATOM      8  C   UNL     1       0.438  -1.228  -0.580  0.00  0.00    +0.176 C 
BRANCH   8   9
ATOM      9  C   UNL     1      -0.981  -1.167  -1.116  0.00  0.00    +0.138 C 
BRANCH   9  12
ATOM     10 BR   UNL     1      -2.714  -1.735   1.061  0.00  0.00    +0.040 Br
ATOM     11  O   UNL     1      -1.576   1.613  -0.959  0.00  0.00    -0.274 OA
ATOM     12  N   UNL     1      -1.885  -0.541  -0.165  0.00  0.00    -0.224 N 
ATOM     13  C   UNL     1      -2.110   0.831  -0.169  0.00  0.00    +0.235 C 
ATOM     14  C   UNL     1      -3.070   1.367   0.866  0.00  0.00    +0.096 C 
ENDBRANCH   9  12
ENDBRANCH   8   9
ENDBRANCH   1   8
TORSDOF 6
