REMARK  Name = 449593
REMARK  6 active torsions:
REMARK  status: ('A' for Active; 'I' for Inactive)
REMARK    1  A    between atoms: C_1  and  C_2
REMARK    2  A    between atoms: C_1  and  C_8
REMARK    3  A    between atoms: C_2  and  C_3
REMARK    4  A    between atoms: C_3  and  C_5
REMARK    5  A    between atoms: C_5  and  O_6
REMARK    6  A    between atoms: C_8  and  N_9
REMARK                            x       y       z     vdW  Elec       q    Type
REMARK                         _______ _______ _______ _____ _____    ______ ____
ROOT
ATOM      1  C   UNL     1      -1.619  -0.443   0.022  0.00  0.00    -0.023 C 
ENDROOT
BRANCH   1   2
ATOM      2  C   UNL     1      -0.284   0.303   0.041  0.00  0.00    +0.009 C 
BRANCH   2   3
ATOM      3  C   UNL     1       0.896  -0.667   0.011  0.00  0.00    +0.109 C 
BRANCH   3   5
ATOM      4  O   UNL     1       2.368   1.272  -0.020  0.00  0.00    -0.250 OA
ATOM      5  C   UNL     1       2.222   0.058  -0.009  0.00  0.00    +0.314 C 
BRANCH   5   6
ATOM      6  O   UNL     1       3.264  -0.815  -0.013  0.00  0.00    -0.480 OA
ATOM      7  H   UNL     1       3.102  -1.737  -0.005  0.00  0.00    +0.295 HD
ENDBRANCH   5   6
ENDBRANCH   3   5
ENDBRANCH   2   3
ENDBRANCH   1   2
BRANCH   1   8
ATOM      8  C   UNL     1      -2.789   0.529   0.016  0.00  0.00    -0.086 C 
BRANCH   8   9
ATOM      9  N   UNL     1      -4.057  -0.237  -0.048  0.00  0.00    +0.380 N 
ATOM     10  H   UNL     1      -4.845   0.410  -0.052  0.00  0.00    -0.089 HD
ATOM     11  H   UNL     1      -4.125  -0.850   0.764  0.00  0.00    -0.089 HD
ATOM     12  H   UNL     1      -4.072  -0.797  -0.900  0.00  0.00    -0.089 HD
ENDBRANCH   8   9
ENDBRANCH   1   8
TORSDOF 6
