REMARK  Name = 936
REMARK  1 active torsions:
REMARK  status: ('A' for Active; 'I' for Inactive)
REMARK    1  A    between atoms: C_2  and  C_9
REMARK                            x       y       z     vdW  Elec       q    Type
REMARK                         _______ _______ _______ _____ _____    ______ ____
ROOT
ATOM      1  N   UNL     1       1.761  -1.228  -0.003  0.00  0.00    -0.242 NA
ATOM      2  C   UNL     1      -0.297   0.040   0.002  0.00  0.00    +0.072 C 
ATOM      3  C   UNL     1       0.426   1.227   0.004  0.00  0.00    +0.008 C 
ATOM      4  C   UNL     1       0.412  -1.151  -0.001  0.00  0.00    +0.103 C 
ATOM      5  C   UNL     1       1.816   1.189   0.002  0.00  0.00    +0.021 C 
ATOM      6  C   UNL     1       2.430  -0.053  -0.002  0.00  0.00    +0.099 C 
ENDROOT
BRANCH   2   9
ATOM      7  O   UNL     1      -2.394   1.112  -0.009  0.00  0.00    -0.270 OA
ATOM      8  N   UNL     1      -2.405  -1.181   0.003  0.00  0.00    -0.325 N 
ATOM      9  C   UNL     1      -1.749   0.047   0.004  0.00  0.00    +0.244 C 
ATOM     10  H   UNL     1      -3.389  -1.214   0.004  0.00  0.00    +0.145 HD
ATOM     11  H   UNL     1      -1.885  -2.017   0.000  0.00  0.00    +0.145 HD
ENDBRANCH   2   9
TORSDOF 1
