REMARK  Name = 449225
REMARK  10 active torsions:
REMARK  status: ('A' for Active; 'I' for Inactive)
REMARK    1  A    between atoms: C_1  and  O_2
REMARK    2  A    between atoms: C_1  and  C_4
REMARK    3  A    between atoms: C_1  and  C_12
REMARK    4  A    between atoms: C_4  and  O_5
REMARK    5  A    between atoms: C_4  and  C_8
REMARK    6  A    between atoms: C_8  and  C_9
REMARK    7  A    between atoms: C_9  and  O_10
REMARK    8  A    between atoms: C_12  and  O_13
REMARK    9  A    between atoms: C_12  and  C_15
REMARK   10  A    between atoms: C_15  and  O_16
REMARK                            x       y       z     vdW  Elec       q    Type
REMARK                         _______ _______ _______ _____ _____    ______ ____
ROOT
ATOM      1  C   UNL     1       0.667  -0.468   0.209  0.00  0.00    +0.174 C 
ENDROOT
BRANCH   1   2
ATOM      2  O   UNL     1       0.592  -0.686   1.615  0.00  0.00    -0.379 OA
ATOM      3  H   UNL     1      -0.287  -1.027   1.843  0.00  0.00    +0.211 HD
ENDBRANCH   1   2
BRANCH   1   4
ATOM      4  C   UNL     1      -0.522   0.380  -0.268  0.00  0.00    +0.204 C 
BRANCH   4   5
ATOM      5  O   UNL     1      -0.406   1.674   0.309  0.00  0.00    -0.344 OA
ATOM      6  C   UNL     1      -1.400   2.558  -0.191  0.00  0.00    +0.175 C 
ENDBRANCH   4   5
BRANCH   4   8
ATOM      7  O   UNL     1      -2.462   0.104   1.140  0.00  0.00    -0.291 OA
ATOM      8  C   UNL     1      -1.904  -0.173   0.077  0.00  0.00    +0.209 C 
BRANCH   8   9
ATOM      9  C   UNL     1      -2.575  -1.051  -0.961  0.00  0.00    +0.205 C 
BRANCH   9  10
ATOM     10  O   UNL     1      -3.837  -1.487  -0.497  0.00  0.00    -0.375 OA
ATOM     11  H   UNL     1      -4.254  -2.046  -1.171  0.00  0.00    +0.211 HD
ENDBRANCH   9  10
ENDBRANCH   8   9
ENDBRANCH   4   8
ENDBRANCH   1   4
BRANCH   1  12
ATOM     12  C   UNL     1       2.059   0.074  -0.164  0.00  0.00    +0.169 C 
BRANCH  12  13
ATOM     13  O   UNL     1       2.175   0.184  -1.582  0.00  0.00    -0.379 OA
ATOM     14  H   UNL     1       1.474   0.763  -1.920  0.00  0.00    +0.211 HD
ENDBRANCH  12  13
BRANCH  12  15
ATOM     15  C   UNL     1       3.178  -0.843   0.331  0.00  0.00    +0.169 C 
BRANCH  15  16
ATOM     16  O   UNL     1       4.433  -0.266  -0.018  0.00  0.00    -0.379 OA
ATOM     17  H   UNL     1       5.150  -0.841   0.292  0.00  0.00    +0.211 HD
ENDBRANCH  15  16
ENDBRANCH  12  15
ENDBRANCH   1  12
TORSDOF 10
