REMARK  Name = 5460580
REMARK  5 active torsions:
REMARK  status: ('A' for Active; 'I' for Inactive)
REMARK    1  A    between atoms: C_1  and  O_12
REMARK    2  A    between atoms: C_2  and  O_10
REMARK    3  A    between atoms: C_3  and  C_9
REMARK    4  A    between atoms: O_12  and  C_13
REMARK    5  A    between atoms: C_13  and  C_17
REMARK                            x       y       z     vdW  Elec       q    Type
REMARK                         _______ _______ _______ _____ _____    ______ ____
ROOT
ATOM      1  C   UNL     1       0.463  -0.287   0.304  0.00  0.00    +0.179 C 
ATOM      2  C   UNL     1      -0.944  -0.861   0.006  0.00  0.00    +0.175 C 
ATOM      3  C   UNL     1      -2.049   0.155   0.085  0.00  0.00    +0.116 C 
ATOM      4  C   UNL     1       0.459   0.995   1.093  0.00  0.00    +0.041 C 
ATOM      5  C   UNL     1      -1.900   1.357   0.658  0.00  0.00    +0.010 C 
ATOM      6  C   UNL     1      -0.646   1.736   1.259  0.00  0.00    +0.004 C 
ENDROOT
BRANCH   3   9
ATOM      7  O   UNL     1      -3.540   0.161  -1.728  0.00  0.00    -0.240 OA
ATOM      8  O   UNL     1      -4.223  -0.709   0.275  0.00  0.00    -0.240 OA
ATOM      9  C   UNL     1      -3.403  -0.162  -0.514  0.00  0.00    +0.391 C 
ENDBRANCH   3   9
BRANCH   2  10
ATOM     10  O   UNL     1      -1.246  -1.881   0.960  0.00  0.00    -0.503 OA
ATOM     11  H   UNL     1      -0.552  -2.559   0.939  0.00  0.00    +0.292 HD
ENDBRANCH   2  10
BRANCH   1  12
ATOM     12  O   UNL     1       1.119  -0.037  -0.940  0.00  0.00    -0.444 OA
BRANCH  12  13
ATOM     13  C   UNL     1       2.394   0.375  -0.755  0.00  0.00    +0.225 C 
ATOM     14  C   UNL     1       2.789   1.569  -1.207  0.00  0.00    +0.048 C 
BRANCH  13  17
ATOM     15  O   UNL     1       4.264  -0.012   0.652  0.00  0.00    -0.237 OA
ATOM     16  O   UNL     1       3.117  -1.818  -0.139  0.00  0.00    -0.237 OA
ATOM     17  C   UNL     1       3.347  -0.582  -0.010  0.00  0.00    +0.422 C 
ENDBRANCH  13  17
ENDBRANCH  12  13
ENDBRANCH   1  12
TORSDOF 5
