REMARK  Name = 447084
REMARK  10 active torsions:
REMARK  status: ('A' for Active; 'I' for Inactive)
REMARK    1  A    between atoms: C_2  and  O_7
REMARK    2  A    between atoms: C_3  and  O_9
REMARK    3  A    between atoms: C_4  and  O_11
REMARK    4  A    between atoms: C_5  and  C_19
REMARK    5  A    between atoms: C_6  and  O_13
REMARK    6  A    between atoms: O_13  and  C_14
REMARK    7  A    between atoms: C_14  and  C_15
REMARK    8  A    between atoms: C_15  and  C_16
REMARK    9  A    between atoms: C_16  and  C_17
REMARK   10  A    between atoms: C_19  and  O_20
REMARK                            x       y       z     vdW  Elec       q    Type
REMARK                         _______ _______ _______ _____ _____    ______ ____
ROOT
ATOM      1  O   UNL     1       0.907  -0.524   1.157  0.00  0.00    -0.326 OA
ATOM      2  C   UNL     1       2.369   0.959  -0.825  0.00  0.00    +0.172 C 
ATOM      3  C   UNL     1       2.561  -0.548  -0.645  0.00  0.00    +0.169 C 
ATOM      4  C   UNL     1       1.877   1.602   0.473  0.00  0.00    +0.196 C 
ATOM      5  C   UNL     1       1.290  -1.175  -0.057  0.00  0.00    +0.176 C 
ATOM      6  C   UNL     1       0.645   0.876   1.012  0.00  0.00    +0.266 C 
ENDROOT
BRANCH   2   7
ATOM      7  O   UNL     1       3.597   1.574  -1.205  0.00  0.00    -0.379 OA
ATOM      8  H   UNL     1       3.918   1.173  -2.028  0.00  0.00    +0.211 HD
ENDBRANCH   2   7
BRANCH   3   9
ATOM      9  O   UNL     1       2.829  -1.149  -1.909  0.00  0.00    -0.379 OA
ATOM     10  H   UNL     1       3.632  -0.759  -2.289  0.00  0.00    +0.211 HD
ENDBRANCH   3   9
BRANCH   4  11
ATOM     11  O   UNL     1       2.896   1.527   1.472  0.00  0.00    -0.378 OA
ATOM     12  H   UNL     1       3.693   1.981   1.155  0.00  0.00    +0.211 HD
ENDBRANCH   4  11
BRANCH   6  13
ATOM     13  O   UNL     1      -0.473   1.135   0.170  0.00  0.00    -0.329 OA
BRANCH  13  14
ATOM     14  C   UNL     1      -1.640   0.476   0.639  0.00  0.00    +0.145 C 
BRANCH  14  15
ATOM     15  C   UNL     1      -2.800   0.809  -0.290  0.00  0.00    +0.032 C 
BRANCH  15  16
ATOM     16  C   UNL     1      -4.089   0.118   0.148  0.00  0.00    +0.003 C 
BRANCH  16  17
ATOM     17  C   UNL     1      -5.238   0.424  -0.813  0.00  0.00    +0.000 C 
ATOM     18  C   UNL     1      -6.515  -0.289  -0.399  0.00  0.00    +0.000 C 
ENDBRANCH  16  17
ENDBRANCH  15  16
ENDBRANCH  14  15
ENDBRANCH  13  14
ENDBRANCH   6  13
BRANCH   5  19
ATOM     19  C   UNL     1       1.492  -2.653   0.264  0.00  0.00    +0.169 C 
BRANCH  19  20
ATOM     20  O   UNL     1       0.290  -3.163   0.810  0.00  0.00    -0.379 OA
ATOM     21  H   UNL     1       0.404  -4.104   1.019  0.00  0.00    +0.211 HD
ENDBRANCH  19  20
ENDBRANCH   5  19
TORSDOF 10
