REMARK  Name = 7124
REMARK  2 active torsions:
REMARK  status: ('A' for Active; 'I' for Inactive)
REMARK    1  A    between atoms: CA_7  and  C_12
REMARK    2  A    between atoms: C_12  and  O_13
REMARK                            x       y       z     vdW  Elec       q    Type
REMARK                         _______ _______ _______ _____ _____    ______ ____
ROOT
ATOM      1  N   UNL     1      -0.569  -0.850   0.000  0.00  0.00    -0.399 NA
ATOM      2  C   UNL     1       1.172   0.817   0.000  0.00  0.00    +0.026 C 
ATOM      3  C   UNL     1       0.738  -0.525   0.000  0.00  0.00    +0.114 C 
ATOM      4  C   UNL     1       0.198   1.825   0.000  0.00  0.00    +0.005 C 
ATOM      5  C   UNL     1       2.544   1.120   0.000  0.00  0.00    +0.002 C 
ATOM      6  C   UNL     1       1.706  -1.526   0.000  0.00  0.00    +0.085 C 
ATOM      7  CA  UNL     1      -1.477   0.152   0.000  0.00  0.00    +0.206 C 
ATOM      8  C   UNL     1      -1.149   1.493   0.000  0.00  0.00    +0.039 C 
ATOM      9  C   UNL     1       3.490   0.099   0.000  0.00  0.00    -0.004 C 
ATOM     10  C   UNL     1       3.071  -1.225   0.000  0.00  0.00    -0.019 C 
ENDROOT
BRANCH   7  12
ATOM     11  OXT UNL     1      -3.844   0.499   0.000  0.00  0.00    -0.242 OA
ATOM     12  C   UNL     1      -2.869  -0.262   0.000  0.00  0.00    +0.368 C 
BRANCH  12  13
ATOM     13  O   UNL     1      -3.011  -1.616  -0.001  0.00  0.00    -0.475 OA
ATOM     14  H   UNL     1      -2.253  -2.167  -0.001  0.00  0.00    +0.295 HD
ENDBRANCH  12  13
ENDBRANCH   7  12
TORSDOF 2
