REMARK  Name = 4470573
REMARK  0 active torsions:
REMARK  status: ('A' for Active; 'I' for Inactive)
REMARK                            x       y       z     vdW  Elec       q    Type
REMARK                         _______ _______ _______ _____ _____    ______ ____
ROOT
ATOM      1  O   UNL     1       0.214   2.594   0.000  0.00  0.00    -0.213 OA
ATOM      2  N   UNL     1       0.730  -1.362   0.000  0.00  0.00    -0.263 N 
ATOM      3  N   UNL     1      -1.750  -1.554   0.000  0.00  0.00    -0.232 NA
ATOM      4  N   UNL     1       1.681   0.811   0.000  0.00  0.00    -0.305 NA
ATOM      5  N   UNL     1       3.021  -1.124   0.000  0.00  0.00    -0.320 N 
ATOM      6  C   UNL     1      -0.735   0.449   0.000  0.00  0.00    +0.196 C 
ATOM      7  C   UNL     1      -2.170   0.801   0.000  0.00  0.00    +0.019 C 
ATOM      8  C   UNL     1      -0.553  -0.878   0.000  0.00  0.00    +0.132 C 
ATOM      9  C   UNL     1      -2.654  -0.624   0.000  0.00  0.00    +0.097 C 
ATOM     10  C   UNL     1       0.414   1.383   0.000  0.00  0.00    +0.193 C 
ATOM     11  C   UNL     1       1.803  -0.495   0.000  0.00  0.00    +0.248 C 
ATOM     12  H   UNL     1       0.886  -2.334   0.000  0.00  0.00    +0.157 HD
ATOM     13  H   UNL     1       3.067  -2.108   0.000  0.00  0.00    +0.146 HD
ATOM     14  H   UNL     1       3.850  -0.593   0.000  0.00  0.00    +0.146 HD
ENDROOT
TORSDOF 0
