REMARK  Name = 2120
REMARK  3 active torsions:
REMARK  status: ('A' for Active; 'I' for Inactive)
REMARK    1  A    between atoms: N_3  and  C_16
REMARK    2  A    between atoms: C_16  and  C_18
REMARK    3  A    between atoms: C_18  and  O_19
REMARK                            x       y       z     vdW  Elec       q    Type
REMARK                         _______ _______ _______ _____ _____    ______ ____
ROOT
ATOM      1  O   UNL     1       1.343   2.351  -0.487  0.00  0.00    -0.269 OA
ATOM      2  O   UNL     1       1.419  -2.315  -0.422  0.00  0.00    -0.269 OA
ATOM      3  N   UNL     1       1.433   0.017  -0.526  0.00  0.00    -0.212 N 
ATOM      4  C   UNL     1      -1.328  -0.019  -0.043  0.00  0.00    +0.009 C 
ATOM      5  C   UNL     1      -0.676   1.216  -0.170  0.00  0.00    +0.054 C 
ATOM      6  C   UNL     1      -0.638  -1.236  -0.134  0.00  0.00    +0.054 C 
ATOM      7  C   UNL     1      -2.727  -0.037   0.186  0.00  0.00    +0.000 C 
ATOM      8  C   UNL     1       0.784   1.259  -0.410  0.00  0.00    +0.255 C 
ATOM      9  C   UNL     1       0.822  -1.242  -0.373  0.00  0.00    +0.255 C 
ATOM     10  C   UNL     1      -1.391   2.416  -0.073  0.00  0.00    +0.005 C 
ATOM     11  C   UNL     1      -1.316  -2.454   0.000  0.00  0.00    +0.005 C 
ATOM     12  C   UNL     1      -3.429   1.173   0.280  0.00  0.00    +0.000 C 
ATOM     13  C   UNL     1      -3.391  -1.266   0.317  0.00  0.00    +0.000 C 
ATOM     14  C   UNL     1      -2.765   2.391   0.152  0.00  0.00    +0.000 C 
ATOM     15  C   UNL     1      -2.689  -2.466   0.224  0.00  0.00    +0.000 C 
ENDROOT
BRANCH   3  16
ATOM     16  C   UNL     1       2.859   0.034  -0.831  0.00  0.00    +0.210 C 
BRANCH  16  18
ATOM     17  O   UNL     1       3.210   0.602   1.485  0.00  0.00    -0.248 OA
ATOM     18  C   UNL     1       3.627   0.075   0.461  0.00  0.00    +0.335 C 
BRANCH  18  19
ATOM     19  O   UNL     1       4.853  -0.499   0.366  0.00  0.00    -0.479 OA
ATOM     20  H   UNL     1       5.127  -0.889  -0.440  0.00  0.00    +0.295 HD
ENDBRANCH  18  19
ENDBRANCH  16  18
ENDBRANCH   3  16
TORSDOF 3
