REMARK  Name = 17754151
REMARK  5 active torsions:
REMARK  status: ('A' for Active; 'I' for Inactive)
REMARK    1  A    between atoms: N_2  and  C1*_13
REMARK    2  A    between atoms: C2*_14  and  O2*_17
REMARK    3  A    between atoms: C3*_15  and  O3*_19
REMARK    4  A    between atoms: C4*_16  and  C5*_21
REMARK    5  A    between atoms: C5*_21  and  O5*_22
REMARK                            x       y       z     vdW  Elec       q    Type
REMARK                         _______ _______ _______ _____ _____    ______ ____
ROOT
ATOM      1  I   UNL     1       2.532  -3.266   0.781  0.00  0.00    -0.055 I 
ATOM      2  N   UNL     1       0.037  -0.253   0.623  0.00  0.00    -0.214 N 
ATOM      3  N   UNL     1       0.174  -1.625   0.312  0.00  0.00    -0.217 NA
ATOM      4  N   UNL     1       1.498   1.740   0.697  0.00  0.00    -0.232 NA
ATOM      5  N   UNL     1       3.716   1.380  -0.219  0.00  0.00    -0.234 NA
ATOM      6  C   UNL     1       1.232   0.452   0.422  0.00  0.00    +0.129 C 
ATOM      7  C   UNL     1       1.528  -1.752  -0.304  0.00  0.00    +0.137 C 
ATOM      8  C   UNL     1       2.156  -0.409  -0.145  0.00  0.00    +0.134 C 
ATOM      9  C   UNL     1       3.389   0.095  -0.466  0.00  0.00    +0.108 C 
ATOM     10  C   UNL     1       2.745   2.130   0.356  0.00  0.00    +0.252 C 
ATOM     11  H   UNL     1      -0.547  -1.917  -0.347  0.00  0.00    +0.146 HD
ATOM     12  N   UNL     1       4.335  -0.740  -1.098  0.00  0.00    -0.346 N 
ATOM     13  H   UNL     1       5.224  -0.388  -1.333  0.00  0.00    +0.143 HD
ATOM     14  H   UNL     1       4.106  -1.675  -1.304  0.00  0.00    +0.143 HD
ENDROOT
BRANCH   2  16
ATOM     15  O4* UNL     1      -2.291  -0.546   0.962  0.00  0.00    -0.332 OA
ATOM     16  C1* UNL     1      -1.238   0.408   0.733  0.00  0.00    +0.237 C 
ATOM     17  C2* UNL     1      -1.585   1.123  -0.564  0.00  0.00    +0.188 C 
ATOM     18  C3* UNL     1      -3.098   1.081  -0.555  0.00  0.00    +0.171 C 
ATOM     19  C4* UNL     1      -3.376  -0.289   0.045  0.00  0.00    +0.175 C 
BRANCH  17  20
ATOM     20  O2* UNL     1      -1.087   2.445  -0.605  0.00  0.00    -0.378 OA
ATOM     21  H2* UNL     1      -0.117   2.425  -0.609  0.00  0.00    +0.211 HD
ENDBRANCH  17  20
BRANCH  18  22
ATOM     22  O3* UNL     1      -3.616   2.066   0.339  0.00  0.00    -0.379 OA
ATOM     23  H3* UNL     1      -3.450   2.951  -0.024  0.00  0.00    +0.211 HD
ENDBRANCH  18  22
BRANCH  19  24
ATOM     24  C5* UNL     1      -3.399  -1.407  -0.989  0.00  0.00    +0.169 C 
BRANCH  24  25
ATOM     25  O5* UNL     1      -3.653  -2.633  -0.326  0.00  0.00    -0.379 OA
ATOM     26  H5* UNL     1      -3.670  -3.354  -0.974  0.00  0.00    +0.211 HD
ENDBRANCH  24  25
ENDBRANCH  19  24
ENDBRANCH   2  16
TORSDOF 5
