REMARK  Name = 1507
REMARK  3 active torsions:
REMARK  status: ('A' for Active; 'I' for Inactive)
REMARK    1  A    between atoms: C_4  and  C_18
REMARK    2  A    between atoms: C_8  and  C_13
REMARK    3  A    between atoms: C_19  and  O_24
REMARK                            x       y       z     vdW  Elec       q    Type
REMARK                         _______ _______ _______ _____ _____    ______ ____
ROOT
ATOM      1  N   UNL     1      -0.519   1.022  -0.311  0.00  0.00    -0.312 N 
ATOM      2  C   UNL     1       1.078  -0.489   0.069  0.00  0.00    +0.015 C 
ATOM      3  C   UNL     1       0.846   0.851  -0.250  0.00  0.00    +0.048 C 
ATOM      4  C   UNL     1      -1.155  -0.161  -0.043  0.00  0.00    +0.051 C 
ATOM      5  C   UNL     1      -0.193  -1.115   0.197  0.00  0.00    +0.016 C 
ATOM      6  C   UNL     1       2.409  -0.935   0.195  0.00  0.00    +0.004 C 
ATOM      7  C   UNL     1       1.881   1.770  -0.450  0.00  0.00    +0.015 C 
ATOM      8  C   UNL     1       3.455  -0.026  -0.003  0.00  0.00    +0.029 C 
ATOM      9  C   UNL     1       3.193   1.305  -0.320  0.00  0.00    +0.004 C 
ATOM     10  H   UNL     1      -0.972   1.871  -0.518  0.00  0.00    +0.152 HD
ENDROOT
BRANCH   8  13
ATOM     11  N   UNL     1       5.093  -1.756   0.432  0.00  0.00    -0.345 N 
ATOM     12  N   UNL     1       5.842   0.380  -0.060  0.00  0.00    -0.387 N 
ATOM     13  C   UNL     1       4.824  -0.477   0.125  0.00  0.00    +0.095 C 
ATOM     14  H   UNL     1       6.027  -2.056   0.517  0.00  0.00    +0.144 HD
ATOM     15  H   UNL     1       4.357  -2.395   0.572  0.00  0.00    +0.144 HD
ATOM     16  H   UNL     1       6.771   0.066   0.028  0.00  0.00    +0.157 HD
ATOM     17  H   UNL     1       5.660   1.321  -0.285  0.00  0.00    +0.157 HD
ENDBRANCH   8  13
BRANCH   4  18
ATOM     18  C   UNL     1      -2.594  -0.271  -0.038  0.00  0.00    +0.047 C 
ATOM     19  C   UNL     1      -3.396   0.818   0.309  0.00  0.00    +0.135 C 
ATOM     20  C   UNL     1      -3.185  -1.487  -0.386  0.00  0.00    +0.004 C 
ATOM     21  C   UNL     1      -4.785   0.691   0.308  0.00  0.00    +0.037 C 
ATOM     22  C   UNL     1      -4.574  -1.613  -0.387  0.00  0.00    +0.000 C 
ATOM     23  C   UNL     1      -5.374  -0.525  -0.040  0.00  0.00    +0.003 C 
BRANCH  19  24
ATOM     24  O   UNL     1      -2.847   2.018   0.653  0.00  0.00    -0.505 OA
ATOM     25  H   UNL     1      -1.916   2.123   0.660  0.00  0.00    +0.292 HD
ENDBRANCH  19  24
ENDBRANCH   4  18
TORSDOF 3
