REMARK  Name = 84815
REMARK  6 active torsions:
REMARK  status: ('A' for Active; 'I' for Inactive)
REMARK    1  A    between atoms: CA_1  and  N_2
REMARK    2  A    between atoms: CA_1  and  C_7
REMARK    3  A    between atoms: CA_1  and  CB_10
REMARK    4  A    between atoms: C_7  and  O_8
REMARK    5  A    between atoms: CB_10  and  CG_11
REMARK    6  A    between atoms: CG_11  and  SD_12
REMARK                            x       y       z     vdW  Elec       q    Type
REMARK                         _______ _______ _______ _____ _____    ______ ____
ROOT
ATOM      1  CA  MET A   1       0.569   0.648  -0.366  0.00  0.00    +0.037 C 
ENDROOT
BRANCH   1   2
ATOM      2  N   MET A   1       1.333   1.895  -0.476  0.00  0.00    +0.389 N 
ATOM      3  H1  MET A   1       0.694   2.672  -0.642  0.00  0.00    -0.088 HD
ATOM      4  H2  MET A   1       1.990   1.824  -1.253  0.00  0.00    -0.088 HD
ATOM      5  H3  MET A   1       1.847   2.057   0.390  0.00  0.00    -0.088 HD
ENDBRANCH   1   2
BRANCH   1   7
ATOM      6  OXT MET A   1       2.617  -0.333   0.518  0.00  0.00    -0.253 OA
ATOM      7  C   MET A   1       1.581  -0.457  -0.122  0.00  0.00    +0.293 C 
BRANCH   7   8
ATOM      8  O   MET A   1       1.199  -1.638  -0.675  0.00  0.00    -0.482 OA
ATOM      9  H   MET A   1       0.398  -1.692  -1.157  0.00  0.00    +0.295 HD
ENDBRANCH   7   8
ENDBRANCH   1   7
BRANCH   1  10
ATOM     10  CB  MET A   1      -0.420   0.763   0.802  0.00  0.00    +0.001 C 
BRANCH  10  11
ATOM     11  CG  MET A   1      -1.264  -0.485   1.078  0.00  0.00    +0.056 C 
BRANCH  11  12
ATOM     12  SD  MET A   1      -2.322  -0.957  -0.322  0.00  0.00    -0.139 S 
ATOM     13  CE  MET A   1      -3.294   0.562  -0.437  0.00  0.00    +0.069 C 
ENDBRANCH  11  12
ENDBRANCH  10  11
ENDBRANCH   1  10
TORSDOF 6
