REMARK  Name = 446623
REMARK  5 active torsions:
REMARK  status: ('A' for Active; 'I' for Inactive)
REMARK    1  A    between atoms: C_5  and  C_19
REMARK    2  A    between atoms: C_9  and  N_16
REMARK    3  A    between atoms: C_19  and  S_20
REMARK    4  A    between atoms: S_20  and  C_21
REMARK    5  A    between atoms: C_21  and  C_22
REMARK                            x       y       z     vdW  Elec       q    Type
REMARK                         _______ _______ _______ _____ _____    ______ ____
ROOT
ATOM      1  O   UNL     1       4.161   0.589   0.606  0.00  0.00    -0.209 OA
ATOM      2  N   UNL     1       0.380   1.488  -0.365  0.00  0.00    -0.275 N 
ATOM      3  N   UNL     1       2.587   2.198   0.177  0.00  0.00    -0.302 NA
ATOM      4  N   UNL     1       0.872   3.727  -0.283  0.00  0.00    -0.320 N 
ATOM      5  C   UNL     1      -0.228  -0.873  -0.473  0.00  0.00    +0.004 C 
ATOM      6  C   UNL     1       0.713   0.137  -0.256  0.00  0.00    +0.060 C 
ATOM      7  C   UNL     1       2.027  -0.210   0.082  0.00  0.00    +0.109 C 
ATOM      8  C   UNL     1       0.143  -2.213  -0.354  0.00  0.00    +0.012 C 
ATOM      9  C   UNL     1       1.454  -2.551  -0.017  0.00  0.00    +0.042 C 
ATOM     10  C   UNL     1       2.401  -1.551   0.203  0.00  0.00    +0.028 C 
ATOM     11  C   UNL     1       3.008   0.887   0.308  0.00  0.00    +0.208 C 
ATOM     12  C   UNL     1       1.343   2.446  -0.141  0.00  0.00    +0.248 C 
ATOM     13  H   UNL     1      -0.538   1.755  -0.601  0.00  0.00    +0.156 HD
ATOM     14  H   UNL     1      -0.070   3.882  -0.524  0.00  0.00    +0.146 HD
ATOM     15  H   UNL     1       1.476   4.492  -0.146  0.00  0.00    +0.146 HD
ENDROOT
BRANCH   9  16
ATOM     16  N   UNL     1       1.822  -3.908   0.102  0.00  0.00    -0.357 N 
ATOM     17  H   UNL     1       1.154  -4.615  -0.052  0.00  0.00    +0.142 HD
ATOM     18  H   UNL     1       2.747  -4.148   0.340  0.00  0.00    +0.142 HD
ENDBRANCH   9  16
BRANCH   5  19
ATOM     19  C   UNL     1      -1.643  -0.555  -0.836  0.00  0.00    +0.085 C 
BRANCH  19  20
ATOM     20  S   UNL     1      -2.709  -0.376   0.625  0.00  0.00    -0.135 S 
BRANCH  20  21
ATOM     21  C   UNL     1      -4.260  -0.012  -0.229  0.00  0.00    +0.058 C 
BRANCH  21  22
ATOM     22  C   UNL     1      -5.379   0.232   0.778  0.00  0.00    +0.012 C 
ATOM     23  C   UNL     1      -6.691   0.544   0.073  0.00  0.00    +0.001 C 
ENDBRANCH  21  22
ENDBRANCH  20  21
ENDBRANCH  19  20
ENDBRANCH   5  19
TORSDOF 5
