REMARK  Name = 447956
REMARK  1 active torsions:
REMARK  status: ('A' for Active; 'I' for Inactive)
REMARK    1  A    between atoms: C_4  and  C_12
REMARK                            x       y       z     vdW  Elec       q    Type
REMARK                         _______ _______ _______ _____ _____    ______ ____
ROOT
ATOM      1  N   UNL     1      -1.428  -0.689  -0.274  0.00  0.00    -0.341 NA
ATOM      2  N   UNL     1      -3.371   0.693   0.075  0.00  0.00    -0.170 NA
ATOM      3  N   UNL     1      -3.589  -1.546  -0.591  0.00  0.00    -0.293 N 
ATOM      4  C   UNL     1      -0.661   0.369   0.060  0.00  0.00    +0.140 C 
ATOM      5  C   UNL     1      -1.168   1.604   0.409  0.00  0.00    +0.051 C 
ATOM      6  C   UNL     1      -2.544   1.709   0.399  0.00  0.00    +0.114 C 
ATOM      7  C   UNL     1      -2.755  -0.460  -0.247  0.00  0.00    +0.141 C 
ATOM      8  H   UNL     1      -3.193  -2.414  -0.835  0.00  0.00    +0.155 HD
ATOM      9  H   UNL     1      -4.567  -1.435  -0.588  0.00  0.00    +0.155 HD
ENDROOT
BRANCH   4  12
ATOM     10  S   UNL     1       1.838   1.402  -0.336  0.00  0.00    -0.074 S 
ATOM     11  N   UNL     1       2.848  -0.929   0.145  0.00  0.00    -0.407 NA
ATOM     12  C   UNL     1       0.756   0.120   0.030  0.00  0.00    +0.155 C 
ATOM     13  C   UNL     1       1.475  -1.037   0.255  0.00  0.00    +0.104 C 
ATOM     14  C   UNL     1       3.153   0.312  -0.164  0.00  0.00    +0.135 C 
ATOM     15  C   UNL     1       0.913  -2.360   0.601  0.00  0.00    +0.063 C 
ATOM     16  C   UNL     1       4.531   0.812  -0.361  0.00  0.00    +0.074 C 
ENDBRANCH   4  12
TORSDOF 1
