REMARK  Name = 7991
REMARK  4 active torsions:
REMARK  status: ('A' for Active; 'I' for Inactive)
REMARK    1  A    between atoms: C_1  and  C_3
REMARK    2  A    between atoms: C_1  and  C_6
REMARK    3  A    between atoms: C_3  and  O_4
REMARK    4  A    between atoms: C_6  and  C_7
REMARK                            x       y       z     vdW  Elec       q    Type
REMARK                         _______ _______ _______ _____ _____    ______ ____
ROOT
ATOM      1  C   UNL     1      -0.359  -0.697   0.015  0.00  0.00    +0.109 C 
ENDROOT
BRANCH   1   3
ATOM      2  O   UNL     1      -1.734   1.313   0.004  0.00  0.00    -0.250 OA
ATOM      3  C   UNL     1      -1.648   0.092   0.001  0.00  0.00    +0.314 C 
BRANCH   3   4
ATOM      4  O   UNL     1      -2.732  -0.727  -0.021  0.00  0.00    -0.480 OA
ATOM      5  H   UNL     1      -2.616  -1.657  -0.022  0.00  0.00    +0.295 HD
ENDBRANCH   3   4
ENDBRANCH   1   3
BRANCH   1   6
ATOM      6  C   UNL     1       0.867   0.215   0.015  0.00  0.00    +0.012 C 
BRANCH   6   7
ATOM      7  C   UNL     1       2.192  -0.550   0.009  0.00  0.00    +0.001 C 
ATOM      8  C   UNL     1       3.414   0.354  -0.023  0.00  0.00    +0.000 C 
ENDBRANCH   6   7
ENDBRANCH   1   6
TORSDOF 4
