REMARK  Name = 16133778
REMARK  4 active torsions:
REMARK  status: ('A' for Active; 'I' for Inactive)
REMARK    1  A    between atoms: C_1  and  C_3
REMARK    2  A    between atoms: C_1  and  C_11
REMARK    3  A    between atoms: C_2  and  O_12
REMARK    4  A    between atoms: O_12  and  P_13
REMARK                            x       y       z     vdW  Elec       q    Type
REMARK                         _______ _______ _______ _____ _____    ______ ____
ROOT
ATOM      1  C   UNL     1       0.013   0.311   0.030  0.00  0.00    +0.117 C 
ATOM      2  C   UNL     1      -1.051  -0.492  -0.177  0.00  0.00    +0.187 C 
ENDROOT
BRANCH   1   3
ATOM      3  C   UNL     1       1.398  -0.125  -0.046  0.00  0.00    +0.009 C 
ATOM      4  C   UNL     1       1.860  -1.132   0.802  0.00  0.00    +0.000 C 
ATOM      5  C   UNL     1       2.265   0.463  -0.967  0.00  0.00    +0.000 C 
ATOM      6  C   UNL     1       3.189  -1.551   0.729  0.00  0.00    +0.000 C 
ATOM      7  C   UNL     1       3.594   0.044  -1.040  0.00  0.00    +0.000 C 
ATOM      8  C   UNL     1       4.056  -0.963  -0.192  0.00  0.00    +0.000 C 
ENDBRANCH   1   3
BRANCH   1  11
ATOM      9  O   UNL     1       0.230   2.184   1.483  0.00  0.00    -0.240 OA
ATOM     10  O   UNL     1      -0.869   2.473  -0.494  0.00  0.00    -0.240 OA
ATOM     11  C   UNL     1      -0.233   1.800   0.369  0.00  0.00    +0.391 C 
ENDBRANCH   1  11
BRANCH   2  12
ATOM     12  O   UNL     1      -2.370  -0.128  -0.117  0.00  0.00    -0.419 OA
BRANCH  12  13
ATOM     13  P   UNL     1      -3.513  -1.231  -0.396  0.00  0.00    +0.459 P 
ATOM     14  O   UNL     1      -4.531  -0.341  -0.950  0.00  0.00    -0.132 OA
ATOM     15  O   UNL     1      -4.038  -1.311   0.964  0.00  0.00    -0.132 OA
ENDBRANCH  12  13
ENDBRANCH   2  12
TORSDOF 4
