REMARK  Name = 447622
REMARK  7 active torsions:
REMARK  status: ('A' for Active; 'I' for Inactive)
REMARK    1  A    between atoms: N_2  and  C_13
REMARK    2  A    between atoms: C_5  and  C_28
REMARK    3  A    between atoms: C_10  and  C_16
REMARK    4  A    between atoms: C_16  and  C_17
REMARK    5  A    between atoms: C_17  and  N_19
REMARK    6  A    between atoms: C_25  and  C_31
REMARK    7  A    between atoms: C_31  and  N_34
REMARK                            x       y       z     vdW  Elec       q    Type
REMARK                         _______ _______ _______ _____ _____    ______ ____
ROOT
ATOM      1 CL   UNL     1      -6.012  -1.732  -0.426  0.00  0.00    -0.078 Cl
ATOM      2  N   UNL     1      -0.554  -3.675   0.045  0.00  0.00    -0.247 N 
ATOM      3  N   UNL     1      -2.033  -1.854  -0.022  0.00  0.00    -0.337 NA
ATOM      4  N   UNL     1      -2.845  -4.115  -0.211  0.00  0.00    -0.169 NA
ATOM      5  C   UNL     1      -3.307  -1.426  -0.133  0.00  0.00    +0.156 C 
ATOM      6  C   UNL     1      -1.873  -3.193  -0.067  0.00  0.00    +0.149 C 
ATOM      7  C   UNL     1      -4.389  -2.270  -0.284  0.00  0.00    +0.108 C 
ATOM      8  C   UNL     1      -4.095  -3.618  -0.317  0.00  0.00    +0.126 C 
ATOM      9  H   UNL     1      -0.487  -4.656   0.005  0.00  0.00    +0.165 HD
ENDROOT
BRANCH   2  13
ATOM     10  C   UNL     1       3.133  -1.755   0.516  0.00  0.00    -0.024 C 
ATOM     11  C   UNL     1       3.077  -2.967  -0.155  0.00  0.00    -0.003 C 
ATOM     12  C   UNL     1       1.989  -1.168   1.034  0.00  0.00    -0.003 C 
ATOM     13  C   UNL     1       0.689  -3.028   0.205  0.00  0.00    +0.058 C 
ATOM     14  C   UNL     1       1.848  -3.607  -0.311  0.00  0.00    +0.015 C 
ATOM     15  C   UNL     1       0.760  -1.808   0.877  0.00  0.00    +0.015 C 
BRANCH  10  16
ATOM     16  C   UNL     1       4.462  -1.063   0.686  0.00  0.00    +0.004 C 
BRANCH  16  17
ATOM     17  C   UNL     1       4.755  -0.117  -0.479  0.00  0.00    -0.072 C 
BRANCH  17  19
ATOM     18  O   UNL     1       7.720   2.829  -0.097  0.00  0.00    -0.358 OA
ATOM     19  N   UNL     1       6.055   0.530  -0.314  0.00  0.00    +0.391 N 
ATOM     20  C   UNL     1       6.378   1.359  -1.484  0.00  0.00    -0.045 C 
ATOM     21  C   UNL     1       6.078   1.351   0.905  0.00  0.00    -0.045 C 
ATOM     22  C   UNL     1       7.732   2.033  -1.283  0.00  0.00    +0.119 C 
ATOM     23  C   UNL     1       7.439   2.026   1.050  0.00  0.00    +0.119 C 
ATOM     24  H   UNL     1       6.760  -0.201  -0.228  0.00  0.00    -0.079 HD
ENDBRANCH  17  19
ENDBRANCH  16  17
ENDBRANCH  10  16
ENDBRANCH   2  13
BRANCH   5  28
ATOM     25  C   UNL     1      -3.702   2.789   0.025  0.00  0.00    -0.041 C 
ATOM     26  C   UNL     1      -3.760   2.039   1.199  0.00  0.00    -0.006 C 
ATOM     27  C   UNL     1      -3.514   2.152  -1.202  0.00  0.00    -0.006 C 
ATOM     28  C   UNL     1      -3.441   0.013  -0.079  0.00  0.00    +0.031 C 
ATOM     29  C   UNL     1      -3.630   0.651   1.147  0.00  0.00    +0.002 C 
ATOM     30  C   UNL     1      -3.383   0.764  -1.254  0.00  0.00    +0.002 C 
BRANCH  25  31
ATOM     31  C   UNL     1      -3.841   4.273   0.081  0.00  0.00    -0.029 C 
ATOM     32  C   UNL     1      -5.213   4.679   0.691  0.00  0.00    -0.018 C 
ATOM     33  C   UNL     1      -3.730   5.018  -1.286  0.00  0.00    -0.018 C 
BRANCH  31  34
ATOM     34  N   UNL     1      -2.794   4.890   0.943  0.00  0.00    +0.385 N 
ATOM     35  H   UNL     1      -2.807   4.448   1.862  0.00  0.00    -0.089 HD
ATOM     36  H   UNL     1      -2.980   5.888   1.043  0.00  0.00    -0.089 HD
ATOM     37  H   UNL     1      -1.878   4.756   0.514  0.00  0.00    -0.089 HD
ENDBRANCH  31  34
ENDBRANCH  25  31
ENDBRANCH   5  28
TORSDOF 7
