REMARK  Name = 3396559
REMARK  0 active torsions:
REMARK  status: ('A' for Active; 'I' for Inactive)
REMARK                            x       y       z     vdW  Elec       q    Type
REMARK                         _______ _______ _______ _____ _____    ______ ____
ROOT
ATOM      1  P   UNL     1       0.140   0.000   0.382  0.00  0.00    +0.295 P 
ATOM      2  O   UNL     1       0.729  -1.306  -0.143  0.00  0.00    -0.295 OA
ENDROOT
TORSDOF 0
REMARK  Name = 3396559
REMARK  0 active torsions:
REMARK  status: ('A' for Active; 'I' for Inactive)
REMARK                            x       y       z     vdW  Elec       q    Type
REMARK                         _______ _______ _______ _____ _____    ______ ____
ROOT
ATOM      1  O   UNL     1       0.722   1.310  -0.143  0.00  0.00    -0.253 OA
ATOM      2  H   UNL     1       1.088   0.542  -0.462  0.00  0.00    +0.253 HD
ENDROOT
TORSDOF 0
REMARK  Name = 3396559
REMARK  0 active torsions:
REMARK  status: ('A' for Active; 'I' for Inactive)
REMARK                            x       y       z     vdW  Elec       q    Type
REMARK                         _______ _______ _______ _____ _____    ______ ____
ROOT
ATOM      1  C   UNL     1      -1.591  -0.004  -0.097  0.00  0.00    +0.000 C 
ENDROOT
TORSDOF 0
