REMARK  Name = 5287408
REMARK  12 active torsions:
REMARK  status: ('A' for Active; 'I' for Inactive)
REMARK    1  A    between atoms: CA_1  and  C_8
REMARK    2  A    between atoms: CA_1  and  N_14
REMARK    3  A    between atoms: CA_1  and  CB_28
REMARK    4  A    between atoms: CA_4  and  C_10
REMARK    5  A    between atoms: C_10  and  O_11
REMARK    6  A    between atoms: C_15  and  C_17
REMARK    7  A    between atoms: C_17  and  C_18
REMARK    8  A    between atoms: C_18  and  C_21
REMARK    9  A    between atoms: C_18  and  O_26
REMARK   10  A    between atoms: N_20  and  C_23
REMARK   11  A    between atoms: C_23  and  C_24
REMARK   12  A    between atoms: CB_28  and  CG1_30
REMARK                            x       y       z     vdW  Elec       q    Type
REMARK                         _______ _______ _______ _____ _____    ______ ____
ROOT
ATOM      1  CA  ILE A   1      -0.972  -0.892  -0.920  0.00  0.00    +0.149 C 
ENDROOT
BRANCH   1   8
ATOM      2  O   ILE A   1      -1.123   0.266   1.155  0.00  0.00    -0.273 OA
ATOM      3  N   ILE A   1      -2.936   0.420  -0.276  0.00  0.00    -0.270 N 
ATOM      4  CA  ILE A   1      -3.681   1.400   0.504  0.00  0.00    +0.175 C 
ATOM      5  CB  ILE A   1      -4.749   1.922  -0.449  0.00  0.00    +0.033 C 
ATOM      6  CD  ILE A   1      -3.622   0.112  -1.528  0.00  0.00    +0.094 C 
ATOM      7  CG  ILE A   1      -5.000   0.741  -1.384  0.00  0.00    +0.024 C 
ATOM      8  C   ILE A   1      -1.671  -0.015   0.087  0.00  0.00    +0.244 C 
BRANCH   4  10
ATOM      9  OXT ILE A   1      -4.614  -0.503   1.667  0.00  0.00    -0.248 OA
ATOM     10  C   ILE A   1      -4.282   0.673   1.669  0.00  0.00    +0.332 C 
BRANCH  10  11
ATOM     11  O   ILE A   1      -4.410   1.500   2.735  0.00  0.00    -0.479 OA
ATOM     12  H   ILE A   1      -4.135   2.393   2.671  0.00  0.00    +0.295 HD
ENDBRANCH  10  11
ENDBRANCH   4  10
ENDBRANCH   1   8
BRANCH   1  14
ATOM     13  O   UNK A   0       0.386   1.283  -2.266  0.00  0.00    -0.275 OA
ATOM     14  N   ILE A   1       0.433  -0.561  -0.848  0.00  0.00    -0.298 N 
ATOM     15  C   UNK A   0       0.992   0.506  -1.532  0.00  0.00    +0.226 C 
ATOM     16  H   ILE A   1       1.019  -1.119  -0.287  0.00  0.00    +0.150 HD
BRANCH  15  17
ATOM     17  C   UNK A   0       2.479   0.653  -1.274  0.00  0.00    +0.124 C 
BRANCH  17  18
ATOM     18  C   UNK A   0       2.735   1.619  -0.117  0.00  0.00    +0.196 C 
BRANCH  18  21
ATOM     19  O   UNK A   0       4.984   2.328   0.406  0.00  0.00    -0.272 OA
ATOM     20  N   UNK A   0       4.320   0.187   1.016  0.00  0.00    -0.302 N 
ATOM     21  C   UNK A   0       4.137   1.438   0.448  0.00  0.00    +0.250 C 
ATOM     22  H   UNK A   0       3.573  -0.453   0.994  0.00  0.00    +0.150 HD
BRANCH  20  23
ATOM     23  C   UNK A   0       5.559  -0.221   1.638  0.00  0.00    +0.089 C 
BRANCH  23  24
ATOM     24  C   UNK A   0       6.515  -0.879   0.651  0.00  0.00    +0.021 C 
ATOM     25  C   UNK A   0       5.922  -2.117  -0.007  0.00  0.00    +0.002 C 
ENDBRANCH  23  24
ENDBRANCH  20  23
ENDBRANCH  18  21
BRANCH  18  26
ATOM     26  O   UNK A   0       2.595   2.947  -0.599  0.00  0.00    -0.375 OA
ATOM     27  H   UNK A   0       1.702   3.067  -0.960  0.00  0.00    +0.211 HD
ENDBRANCH  18  26
ENDBRANCH  17  18
ENDBRANCH  15  17
ENDBRANCH   1  14
BRANCH   1  28
ATOM     28  CB  ILE A   1      -1.276  -2.387  -0.692  0.00  0.00    +0.027 C 
ATOM     29  CG2 ILE A   1      -0.616  -3.228  -1.794  0.00  0.00    +0.002 C 
BRANCH  28  30
ATOM     30  CG1 ILE A   1      -0.861  -2.872   0.715  0.00  0.00    +0.002 C 
ATOM     31  CD1 ILE A   1      -1.244  -4.320   0.995  0.00  0.00    +0.000 C 
ENDBRANCH  28  30
ENDBRANCH   1  28
TORSDOF 12
