REMARK  Name = 188350
REMARK  5 active torsions:
REMARK  status: ('A' for Active; 'I' for Inactive)
REMARK    1  A    between atoms: N_1  and  C_11
REMARK    2  A    between atoms: C_12  and  O_15
REMARK    3  A    between atoms: C_13  and  O_17
REMARK    4  A    between atoms: C_14  and  C_19
REMARK    5  A    between atoms: C_19  and  S_20
REMARK                            x       y       z     vdW  Elec       q    Type
REMARK                         _______ _______ _______ _____ _____    ______ ____
ROOT
ATOM      1  N   UNL     1      -0.411  -0.154  -0.148  0.00  0.00    -0.250 N 
ATOM      2  N   UNL     1      -2.225   1.400  -0.483  0.00  0.00    -0.233 NA
ATOM      3  N   UNL     1      -4.418   0.387  -0.187  0.00  0.00    -0.234 NA
ATOM      4  C   UNL     1      -1.742   0.178  -0.198  0.00  0.00    +0.122 C 
ATOM      5  C   UNL     1      -0.291  -1.486   0.173  0.00  0.00    +0.064 C 
ATOM      6  C   UNL     1      -2.484  -0.959   0.096  0.00  0.00    +0.131 C 
ATOM      7  C   UNL     1      -1.558  -2.008   0.329  0.00  0.00    +0.004 C 
ATOM      8  C   UNL     1      -3.871  -0.819   0.094  0.00  0.00    +0.110 C 
ATOM      9  C   UNL     1      -3.573   1.407  -0.454  0.00  0.00    +0.252 C 
ATOM     10  N   UNL     1      -4.704  -1.915   0.380  0.00  0.00    -0.346 N 
ATOM     11  H   UNL     1      -5.682  -1.804   0.376  0.00  0.00    +0.143 HD
ATOM     12  H   UNL     1      -4.309  -2.793   0.585  0.00  0.00    +0.143 HD
ENDROOT
BRANCH   1  14
ATOM     13  O   UNL     1       1.795   0.026  -1.001  0.00  0.00    -0.334 OA
ATOM     14  C   UNL     1       0.709   0.751  -0.394  0.00  0.00    +0.227 C 
ATOM     15  C   UNL     1       1.277   1.390   0.864  0.00  0.00    +0.187 C 
ATOM     16  C   UNL     1       2.695   1.703   0.429  0.00  0.00    +0.169 C 
ATOM     17  C   UNL     1       3.042   0.498  -0.440  0.00  0.00    +0.157 C 
BRANCH  15  18
ATOM     18  O   UNL     1       0.549   2.540   1.246  0.00  0.00    -0.378 OA
ATOM     19  H   UNL     1      -0.347   2.281   1.513  0.00  0.00    +0.211 HD
ENDBRANCH  15  18
BRANCH  16  20
ATOM     20  O   UNL     1       2.695   2.874  -0.388  0.00  0.00    -0.379 OA
ATOM     21  H   UNL     1       2.476   3.647   0.156  0.00  0.00    +0.211 HD
ENDBRANCH  16  20
BRANCH  17  22
ATOM     22  C   UNL     1       3.674  -0.640   0.349  0.00  0.00    +0.090 C 
BRANCH  22  23
ATOM     23  S   UNL     1       4.067  -2.027  -0.748  0.00  0.00    -0.137 S 
ATOM     24  C   UNL     1       4.773  -3.148   0.482  0.00  0.00    +0.069 C 
ENDBRANCH  22  23
ENDBRANCH  17  22
ENDBRANCH   1  14
TORSDOF 5
