REMARK  Name = 5280883
REMARK  15 active torsions:
REMARK  status: ('A' for Active; 'I' for Inactive)
REMARK    1  A    between atoms: C_3  and  C_19
REMARK    2  A    between atoms: C_4  and  C_8
REMARK    3  A    between atoms: C_9  and  C_10
REMARK    4  A    between atoms: C_10  and  O_11
REMARK    5  A    between atoms: C_10  and  C_14
REMARK    6  A    between atoms: O_11  and  O_12
REMARK    7  A    between atoms: C_14  and  C_15
REMARK    8  A    between atoms: C_15  and  C_16
REMARK    9  A    between atoms: C_16  and  C_17
REMARK   10  A    between atoms: C_19  and  C_20
REMARK   11  A    between atoms: C_21  and  C_22
REMARK   12  A    between atoms: C_22  and  C_23
REMARK   13  A    between atoms: C_23  and  C_24
REMARK   14  A    between atoms: C_24  and  C_26
REMARK   15  A    between atoms: C_26  and  O_27
REMARK                            x       y       z     vdW  Elec       q    Type
REMARK                         _______ _______ _______ _____ _____    ______ ____
ROOT
ATOM      1  O   UNL     1      -4.803  -1.307  -0.348  0.00  0.00    -0.223 OA
ATOM      2  O   UNL     1      -4.127  -2.618  -0.508  0.00  0.00    -0.223 OA
ATOM      3  C   UNL     1      -2.676  -0.184  -0.070  0.00  0.00    +0.041 C 
ATOM      4  C   UNL     1      -1.994  -1.555  -0.334  0.00  0.00    +0.055 C 
ATOM      5  C   UNL     1      -3.988  -0.614   0.612  0.00  0.00    +0.155 C 
ATOM      6  C   UNL     1      -2.981  -2.516   0.360  0.00  0.00    +0.159 C 
ATOM      7  C   UNL     1      -3.554  -1.738   1.523  0.00  0.00    +0.066 C 
ENDROOT
BRANCH   4   8
ATOM      8  C   UNL     1      -0.615  -1.630   0.231  0.00  0.00    -0.026 C 
ATOM      9  C   UNL     1       0.474  -1.919  -0.497  0.00  0.00    +0.002 C 
BRANCH   9  10
ATOM     10  C   UNL     1       1.862  -1.995   0.076  0.00  0.00    +0.173 C 
BRANCH  10  11
ATOM     11  O   UNL     1       2.347  -3.328  -0.095  0.00  0.00    -0.222 OA
BRANCH  11  12
ATOM     12  O   UNL     1       1.737  -4.087   0.981  0.00  0.00    -0.249 OA
ATOM     13  H   UNL     1       2.024  -5.012   0.927  0.00  0.00    +0.253 HD
ENDBRANCH  11  12
ENDBRANCH  10  11
BRANCH  10  14
ATOM     14  C   UNL     1       2.850  -1.053  -0.625  0.00  0.00    +0.037 C 
BRANCH  14  15
ATOM     15  C   UNL     1       4.246  -1.065   0.004  0.00  0.00    +0.003 C 
BRANCH  15  16
ATOM     16  C   UNL     1       5.213  -0.067  -0.643  0.00  0.00    +0.000 C 
BRANCH  16  17
ATOM     17  C   UNL     1       6.627  -0.126  -0.064  0.00  0.00    +0.000 C 
ATOM     18  C   UNL     1       7.542   0.890  -0.732  0.00  0.00    +0.000 C 
ENDBRANCH  16  17
ENDBRANCH  15  16
ENDBRANCH  14  15
ENDBRANCH  10  14
ENDBRANCH   9  10
ENDBRANCH   4   8
BRANCH   3  19
ATOM     19  C   UNL     1      -2.881   0.630  -1.340  0.00  0.00    +0.029 C 
BRANCH  19  20
ATOM     20  C   UNL     1      -3.604   1.941  -1.197  0.00  0.00    -0.031 C 
ATOM     21  C   UNL     1      -3.068   3.135  -0.903  0.00  0.00    -0.031 C 
BRANCH  21  22
ATOM     22  C   UNL     1      -1.602   3.351  -0.662  0.00  0.00    +0.026 C 
BRANCH  22  23
ATOM     23  C   UNL     1      -1.281   3.898   0.736  0.00  0.00    +0.016 C 
BRANCH  23  24
ATOM     24  C   UNL     1       0.211   4.140   0.981  0.00  0.00    +0.110 C 
BRANCH  24  26
ATOM     25  O   UNL     1       0.679   1.756   1.141  0.00  0.00    -0.250 OA
ATOM     26  C   UNL     1       1.057   2.890   0.878  0.00  0.00    +0.314 C 
BRANCH  26  27
ATOM     27  O   UNL     1       2.328   3.174   0.493  0.00  0.00    -0.480 OA
ATOM     28  H   UNL     1       2.574   4.057   0.302  0.00  0.00    +0.295 HD
ENDBRANCH  26  27
ENDBRANCH  24  26
ENDBRANCH  23  24
ENDBRANCH  22  23
ENDBRANCH  21  22
ENDBRANCH  19  20
ENDBRANCH   3  19
TORSDOF 15
