REMARK  Name = 158758
REMARK  4 active torsions:
REMARK  status: ('A' for Active; 'I' for Inactive)
REMARK    1  A    between atoms: C_1  and  C_9
REMARK    2  A    between atoms: C_2  and  O_16
REMARK    3  A    between atoms: C_5  and  O_14
REMARK    4  A    between atoms: O_16  and  C_17
REMARK                            x       y       z     vdW  Elec       q    Type
REMARK                         _______ _______ _______ _____ _____    ______ ____
ROOT
ATOM      1  C   UNL     1       1.348  -0.625  -0.314  0.00  0.00    -0.017 C 
ATOM      2  C   UNL     1      -1.058  -0.566  -0.204  0.00  0.00    +0.172 C 
ATOM      3  C   UNL     1       0.151   0.079  -0.447  0.00  0.00    +0.036 C 
ATOM      4  C   UNL     1       1.330  -1.969   0.059  0.00  0.00    -0.001 C 
ATOM      5  C   UNL     1      -1.083  -1.906   0.168  0.00  0.00    +0.172 C 
ATOM      6  C   UNL     1       0.115  -2.609   0.300  0.00  0.00    +0.040 C 
ENDROOT
BRANCH   1   9
ATOM      7  O   UNL     1       6.029   0.635   0.469  0.00  0.00    -0.275 OA
ATOM      8  N   UNL     1       4.102   1.843  -0.081  0.00  0.00    -0.304 N 
ATOM      9  C   UNL     1       2.667   0.070  -0.575  0.00  0.00    +0.051 C 
ATOM     10  C   UNL     1       2.705   1.567  -0.264  0.00  0.00    +0.094 C 
ATOM     11  C   UNL     1       3.871  -0.456   0.230  0.00  0.00    +0.091 C 
ATOM     12  C   UNL     1       4.837   0.704   0.217  0.00  0.00    +0.223 C 
ATOM     13  H   UNL     1       4.496   2.742  -0.159  0.00  0.00    +0.149 HD
ENDBRANCH   1   9
BRANCH   5  14
ATOM     14  O   UNL     1      -2.264  -2.542   0.405  0.00  0.00    -0.468 OA
ATOM     15  C   UNL     1      -2.888  -3.183  -0.705  0.00  0.00    +0.253 C 
ENDBRANCH   5  14
BRANCH   2  16
ATOM     16  O   UNL     1      -2.227   0.136  -0.339  0.00  0.00    -0.476 OA
BRANCH  16  17
ATOM     17  C   UNL     1      -2.389   1.276   0.495  0.00  0.00    +0.166 C 
ATOM     18  C   UNL     1      -3.664   1.127   1.312  0.00  0.00    +0.044 C 
ATOM     19  C   UNL     1      -2.663   2.513  -0.346  0.00  0.00    +0.044 C 
ATOM     20  C   UNL     1      -4.784   1.521   0.350  0.00  0.00    +0.004 C 
ATOM     21  C   UNL     1      -4.135   2.385  -0.731  0.00  0.00    +0.004 C 
ENDBRANCH  16  17
ENDBRANCH   2  16
TORSDOF 4
