REMARK  Name = 5288250
REMARK  9 active torsions:
REMARK  status: ('A' for Active; 'I' for Inactive)
REMARK    1  A    between atoms: C_1  and  N_3
REMARK    2  A    between atoms: C_1  and  C_20
REMARK    3  A    between atoms: C_1  and  C_23
REMARK    4  A    between atoms: C_4  and  C_6
REMARK    5  A    between atoms: C_6  and  C_10
REMARK    6  A    between atoms: C_20  and  O_21
REMARK    7  A    between atoms: C_23  and  C_24
REMARK    8  A    between atoms: C_29  and  C_30
REMARK    9  A    between atoms: C_31  and  C_32
REMARK                            x       y       z     vdW  Elec       q    Type
REMARK                         _______ _______ _______ _____ _____    ______ ____
ROOT
ATOM      1  C   UNL     1      -4.090  -1.230  -0.118  0.00  0.00    +0.176 C 
ENDROOT
BRANCH   1   3
ATOM      2  O   UNL     1      -2.928   1.019  -1.521  0.00  0.00    -0.275 OA
ATOM      3  N   UNL     1      -3.725   0.053   0.437  0.00  0.00    -0.297 N 
ATOM      4  C   UNL     1      -3.171   1.076  -0.319  0.00  0.00    +0.223 C 
ATOM      5  H   UNL     1      -3.878   0.209   1.397  0.00  0.00    +0.150 HD
BRANCH   4   6
ATOM      6  C   UNL     1      -2.898   2.299   0.531  0.00  0.00    +0.087 C 
BRANCH   6  10
ATOM      7  N   UNL     1       0.756   3.241   0.042  0.00  0.00    -0.282 N 
ATOM      8  N   UNL     1       1.384   1.750  -1.566  0.00  0.00    -0.331 N 
ATOM      9  N   UNL     1       3.009   3.120  -0.568  0.00  0.00    -0.273 NA
ATOM     10  C   UNL     1      -1.693   3.094   0.033  0.00  0.00    +0.029 C 
ATOM     11  C   UNL     1      -1.755   4.546   0.530  0.00  0.00    +0.004 C 
ATOM     12  C   UNL     1      -0.381   2.429   0.472  0.00  0.00    +0.094 C 
ATOM     13  C   UNL     1      -0.517   5.326   0.090  0.00  0.00    +0.022 C 
ATOM     14  C   UNL     1       0.765   4.621   0.522  0.00  0.00    +0.093 C 
ATOM     15  C   UNL     1       1.773   2.726  -0.687  0.00  0.00    +0.174 C 
ATOM     16  H   UNL     1       0.438   1.485  -1.621  0.00  0.00    +0.145 HD
ATOM     17  H   UNL     1       2.052   1.313  -2.143  0.00  0.00    +0.145 HD
ATOM     18  H   UNL     1       3.240   3.826   0.079  0.00  0.00    +0.189 HD
ENDBRANCH   6  10
ENDBRANCH   4   6
ENDBRANCH   1   3
BRANCH   1  20
ATOM     19  O   UNL     1      -6.369  -0.714   0.497  0.00  0.00    -0.248 OA
ATOM     20  C   UNL     1      -5.590  -1.483  -0.058  0.00  0.00    +0.335 C 
BRANCH  20  21
ATOM     21  O   UNL     1      -5.940  -2.650  -0.668  0.00  0.00    -0.443 OA
ATOM     22  C   UNL     1      -7.334  -2.972  -0.639  0.00  0.00    +0.256 C 
ENDBRANCH  20  21
ENDBRANCH   1  20
BRANCH   1  23
ATOM     23  C   UNL     1      -3.288  -2.368   0.531  0.00  0.00    +0.057 C 
BRANCH  23  24
ATOM     24  C   UNL     1      -1.786  -2.210   0.447  0.00  0.00    -0.020 C 
ATOM     25  C   UNL     1      -1.097  -1.541   1.458  0.00  0.00    -0.004 C 
ATOM     26  C   UNL     1      -1.090  -2.735  -0.642  0.00  0.00    -0.004 C 
ATOM     27  C   UNL     1       0.288  -1.395   1.380  0.00  0.00    +0.008 C 
ATOM     28  C   UNL     1       0.295  -2.590  -0.720  0.00  0.00    +0.008 C 
ATOM     29  C   UNL     1       0.984  -1.920   0.291  0.00  0.00    +0.042 C 
BRANCH  29  30
ATOM     30  C   UNL     1       2.403  -1.770   0.211  0.00  0.00    -0.060 C 
ATOM     31  C   UNL     1       3.595  -1.644   0.142  0.00  0.00    -0.060 C 
BRANCH  31  32
ATOM     32  C   UNL     1       5.016  -1.493   0.061  0.00  0.00    +0.042 C 
ATOM     33  C   UNL     1       5.654  -1.557  -1.177  0.00  0.00    +0.008 C 
ATOM     34  C   UNL     1       5.762  -1.283   1.221  0.00  0.00    +0.008 C 
ATOM     35  C   UNL     1       7.039  -1.410  -1.257  0.00  0.00    +0.001 C 
ATOM     36  C   UNL     1       7.147  -1.136   1.141  0.00  0.00    +0.001 C 
ATOM     37  C   UNL     1       7.785  -1.200  -0.098  0.00  0.00    +0.000 C 
ENDBRANCH  31  32
ENDBRANCH  29  30
ENDBRANCH  23  24
ENDBRANCH   1  23
TORSDOF 9
