REMARK  Name = 7405
REMARK  2 active torsions:
REMARK  status: ('A' for Active; 'I' for Inactive)
REMARK    1  A    between atoms: CA_3  and  C_9
REMARK    2  A    between atoms: C_9  and  O_10
REMARK                            x       y       z     vdW  Elec       q    Type
REMARK                         _______ _______ _______ _____ _____    ______ ____
ROOT
ATOM      1  O   UNL     1      -2.695   0.778  -0.178  0.00  0.00    -0.275 OA
ATOM      2  N   UNL     1      -0.610   0.538   0.858  0.00  0.00    -0.297 N 
ATOM      3  CA  UNL     1       0.521  -0.343   0.769  0.00  0.00    +0.172 C 
ATOM      4  C   UNL     1      -0.032  -1.572   0.074  0.00  0.00    +0.041 C 
ATOM      5  C   UNL     1      -1.195  -1.041  -0.764  0.00  0.00    +0.087 C 
ATOM      6  C   UNL     1      -1.638   0.190  -0.011  0.00  0.00    +0.223 C 
ATOM      7  H   UNL     1      -0.652   1.307   1.471  0.00  0.00    +0.150 HD
ENDROOT
BRANCH   3   9
ATOM      8  OXT UNL     1       1.423   1.479  -0.532  0.00  0.00    -0.248 OA
ATOM      9  C   UNL     1       1.556   0.367  -0.044  0.00  0.00    +0.332 C 
BRANCH   9  10
ATOM     10  O   UNL     1       2.669  -0.396  -0.172  0.00  0.00    -0.479 OA
ATOM     11  H   UNL     1       2.706  -1.242   0.228  0.00  0.00    +0.295 HD
ENDBRANCH   9  10
ENDBRANCH   3   9
TORSDOF 2
