REMARK  Name = 59093801
REMARK  4 active torsions:
REMARK  status: ('A' for Active; 'I' for Inactive)
REMARK    1  A    between atoms: CA_1  and  N_2
REMARK    2  A    between atoms: CA_1  and  C_7
REMARK    3  A    between atoms: CA_1  and  C_11
REMARK    4  A    between atoms: C_11  and  N_12
REMARK                            x       y       z     vdW  Elec       q    Type
REMARK                         _______ _______ _______ _____ _____    ______ ____
ROOT
ATOM      1  CA  UNL     1      -0.267  -0.570  -0.451  0.00  0.00    -0.021 C 
ENDROOT
BRANCH   1   2
ATOM      2  N   UNL     1       0.020  -1.972  -0.143  0.00  0.00    +0.385 N 
ATOM      3  H1  UNL     1      -0.741  -2.558  -0.486  0.00  0.00    -0.089 HD
ATOM      4  H2  UNL     1       0.109  -2.087   0.867  0.00  0.00    -0.089 HD
ATOM      5  H3  UNL     1       0.892  -2.248  -0.595  0.00  0.00    -0.089 HD
ENDBRANCH   1   2
BRANCH   1   7
ATOM      6  OXT UNL     1       1.232   0.299   1.264  0.00  0.00    -0.291 OA
ATOM      7  C   UNL     1       0.904   0.231   0.088  0.00  0.00    +0.183 C 
ENDBRANCH   1   7
BRANCH   1   8
ATOM      8  C   UNL     1      -1.579  -0.151   0.221  0.00  0.00    -0.101 C 
BRANCH   8   9
ATOM      9  N   UNL     1      -1.882   1.254  -0.039  0.00  0.00    +0.379 N 
ATOM     10  H   UNL     1      -2.759   1.503   0.420  0.00  0.00    -0.089 HD
ATOM     11  H   UNL     1      -1.970   1.403  -1.044  0.00  0.00    -0.089 HD
ATOM     12  H   UNL     1      -1.130   1.837   0.327  0.00  0.00    -0.089 HD
ENDBRANCH   8   9
ENDBRANCH   1   8
TORSDOF 4
REMARK  Name = 59093801
REMARK  4 active torsions:
REMARK  status: ('A' for Active; 'I' for Inactive)
REMARK    1  A    between atoms: CA_1  and  N_2
REMARK    2  A    between atoms: CA_1  and  C_7
REMARK    3  A    between atoms: CA_1  and  C_11
REMARK    4  A    between atoms: C_11  and  N_12
REMARK                            x       y       z     vdW  Elec       q    Type
REMARK                         _______ _______ _______ _____ _____    ______ ____
ROOT
ATOM      1  O   UNL     1       1.573   0.910  -0.940  0.00  0.00    -0.410 OA
ATOM      2  H1  UNL     1       1.281   0.823  -1.826  0.00  0.00    +0.205 HD
ATOM      3  H2  UNL     1       2.312   1.450  -0.741  0.00  0.00    +0.205 HD
ENDROOT
TORSDOF 0
