REMARK  Name = 10132
REMARK  4 active torsions:
REMARK  status: ('A' for Active; 'I' for Inactive)
REMARK    1  A    between atoms: C_2  and  C_4
REMARK    2  A    between atoms: C_2  and  C_8
REMARK    3  A    between atoms: C_4  and  O_5
REMARK    4  A    between atoms: C_8  and  O_9
REMARK                            x       y       z     vdW  Elec       q    Type
REMARK                         _______ _______ _______ _____ _____    ______ ____
ROOT
ATOM      1  O   UNL     1      -0.048   1.682   0.001  0.00  0.00    -0.273 OA
ATOM      2  C   UNL     1      -0.006   0.461   0.008  0.00  0.00    +0.345 C 
ENDROOT
BRANCH   2   4
ATOM      3  O   UNL     1       1.426  -1.449   0.006  0.00  0.00    -0.241 OA
ATOM      4  C   UNL     1       1.330  -0.239   0.002  0.00  0.00    +0.384 C 
BRANCH   4   5
ATOM      5  O   UNL     1       2.329   0.654  -0.010  0.00  0.00    -0.475 OA
ATOM      6  H   UNL     1       2.137   1.572  -0.013  0.00  0.00    +0.296 HD
ENDBRANCH   4   5
ENDBRANCH   2   4
BRANCH   2   8
ATOM      7  O   UNL     1      -1.393  -1.474  -0.010  0.00  0.00    -0.241 OA
ATOM      8  C   UNL     1      -1.319  -0.263   0.006  0.00  0.00    +0.384 C 
BRANCH   8   9
ATOM      9  O   UNL     1      -2.319   0.628  -0.003  0.00  0.00    -0.475 OA
ATOM     10  H   UNL     1      -2.129   1.545   0.011  0.00  0.00    +0.296 HD
ENDBRANCH   8   9
ENDBRANCH   2   8
TORSDOF 4
