REMARK  Name = 1584
REMARK  3 active torsions:
REMARK  status: ('A' for Active; 'I' for Inactive)
REMARK    1  A    between atoms: N_3  and  C_14
REMARK    2  A    between atoms: C_14  and  C_15
REMARK    3  A    between atoms: C_15  and  C_16
REMARK                            x       y       z     vdW  Elec       q    Type
REMARK                         _______ _______ _______ _____ _____    ______ ____
ROOT
ATOM      1  O   UNL     1       0.621  -2.010   0.442  0.00  0.00    -0.266 OA
ATOM      2  O   UNL     1       2.707   2.886  -0.008  0.00  0.00    -0.266 OA
ATOM      3  N   UNL     1       0.336   0.281   0.450  0.00  0.00    -0.237 N 
ATOM      4  N   UNL     1       0.888   1.541   0.331  0.00  0.00    -0.260 N 
ATOM      5  C   UNL     1       2.529  -0.706   0.087  0.00  0.00    +0.062 A 
ATOM      6  C   UNL     1       1.083  -0.876   0.341  0.00  0.00    +0.275 A 
ATOM      7  C   UNL     1       3.080   0.569  -0.031  0.00  0.00    +0.062 A 
ATOM      8  C   UNL     1       2.224   1.762   0.096  0.00  0.00    +0.272 A 
ATOM      9  C   UNL     1       3.351  -1.833  -0.035  0.00  0.00    +0.005 C 
ATOM     10  C   UNL     1       4.451   0.720  -0.272  0.00  0.00    +0.005 C 
ATOM     11  C   UNL     1       4.716  -1.680  -0.276  0.00  0.00    +0.000 C 
ATOM     12  C   UNL     1       5.266  -0.405  -0.394  0.00  0.00    +0.000 C 
ATOM     13  H   UNL     1       0.294   2.321   0.420  0.00  0.00    +0.190 HD
ENDROOT
BRANCH   3  14
ATOM     14  C   UNL     1      -1.089   0.167   0.698  0.00  0.00    +0.133 C 
BRANCH  14  15
ATOM     15  C   UNL     1      -1.872   0.098  -0.615  0.00  0.00    +0.053 C 
BRANCH  15  16
ATOM     16  C   UNL     1      -3.356   0.002  -0.365  0.00  0.00    -0.020 C 
ATOM     17  C   UNL     1      -3.946  -1.246  -0.236  0.00  0.00    -0.004 C 
ATOM     18  C   UNL     1      -4.106   1.164  -0.267  0.00  0.00    -0.004 C 
ATOM     19  C   UNL     1      -5.318  -1.335  -0.005  0.00  0.00    -0.000 C 
ATOM     20  C   UNL     1      -5.479   1.075  -0.036  0.00  0.00    -0.000 C 
ATOM     21  C   UNL     1      -6.085  -0.174   0.095  0.00  0.00    -0.000 C 
ENDBRANCH  15  16
ENDBRANCH  14  15
ENDBRANCH   3  14
TORSDOF 3
