REMARK  Name = 1174
REMARK  0 active torsions:
REMARK  status: ('A' for Active; 'I' for Inactive)
REMARK                            x       y       z     vdW  Elec       q    Type
REMARK                         _______ _______ _______ _____ _____    ______ ____
ROOT
ATOM      1  O   UNL     1       2.326   0.965   0.000  0.00  0.00    -0.252 OA
ATOM      2  O   UNL     1      -2.297   1.023   0.001  0.00  0.00    -0.270 OA
ATOM      3  N   UNL     1       0.018   1.020   0.000  0.00  0.00    -0.236 N 
ATOM      4  N   UNL     1       1.164  -1.022   0.000  0.00  0.00    -0.267 N 
ATOM      5  C   UNL     1       1.252   0.363   0.000  0.00  0.00    +0.310 C 
ATOM      6  C   UNL     1      -1.232   0.414   0.000  0.00  0.00    +0.254 C 
ATOM      7  C   UNL     1      -0.027  -1.696   0.000  0.00  0.00    +0.070 C 
ATOM      8  C   UNL     1      -1.205  -1.068   0.000  0.00  0.00    +0.074 C 
ATOM      9  H   UNL     1       0.037   2.004   0.000  0.00  0.00    +0.159 HD
ATOM     10  H   UNL     1       1.998  -1.545   0.000  0.00  0.00    +0.156 HD
ENDROOT
TORSDOF 0
