REMARK  Name = 131704251
REMARK  15 active torsions:
REMARK  status: ('A' for Active; 'I' for Inactive)
REMARK    1  A    between atoms: C_1  and  C_4
REMARK    2  A    between atoms: C_1  and  N_13
REMARK    3  A    between atoms: C_1  and  C_24
REMARK    4  A    between atoms: N_3  and  C_6
REMARK    5  A    between atoms: C_6  and  C_9
REMARK    6  A    between atoms: C_9  and  C_11
REMARK    7  A    between atoms: C_14  and  O_16
REMARK    8  A    between atoms: O_16  and  C_17
REMARK    9  A    between atoms: C_17  and  C_18
REMARK   10  A    between atoms: C_24  and  C_25
REMARK   11  A    between atoms: C_25  and  C_26
REMARK   12  A    between atoms: C_26  and  N_27
REMARK   13  A    between atoms: N_27  and  C_30
REMARK   14  A    between atoms: C_30  and  N_31
REMARK   15  A    between atoms: C_30  and  N_35
REMARK                            x       y       z     vdW  Elec       q    Type
REMARK                         _______ _______ _______ _____ _____    ______ ____
ROOT
ATOM      1  C   UNL     1      -0.453   0.900  -1.219  0.00  0.00    +0.151 C 
ENDROOT
BRANCH   1   4
ATOM      2  O   UNL     1      -0.901   2.043   0.872  0.00  0.00    -0.273 OA
ATOM      3  N   UNL     1      -2.503   2.116  -0.806  0.00  0.00    -0.298 N 
ATOM      4  C   UNL     1      -1.290   1.732  -0.253  0.00  0.00    +0.241 C 
ATOM      5  H   UNL     1      -2.723   1.814  -1.717  0.00  0.00    +0.150 HD
BRANCH   3   6
ATOM      6  C   UNL     1      -3.456   2.941  -0.101  0.00  0.00    +0.132 C 
ATOM      7  C   UNL     1      -4.295   3.774  -1.052  0.00  0.00    +0.029 C 
BRANCH   6   9
ATOM      8  O   UNL     1      -4.689   0.906   0.316  0.00  0.00    -0.291 OA
ATOM      9  C   UNL     1      -4.337   2.014   0.721  0.00  0.00    +0.204 C 
BRANCH   9  11
ATOM     10  F   UNL     1      -5.571   1.619   2.702  0.00  0.00    -0.226 F 
ATOM     11  C   UNL     1      -4.807   2.539   2.053  0.00  0.00    +0.259 C 
ENDBRANCH   9  11
ENDBRANCH   6   9
ENDBRANCH   3   6
ENDBRANCH   1   4
BRANCH   1  13
ATOM     12  O   UNL     1       2.099   0.707  -2.594  0.00  0.00    -0.226 OA
ATOM     13  N   UNL     1       0.849   0.684  -0.639  0.00  0.00    -0.264 N 
ATOM     14  C   UNL     1       2.015   0.606  -1.375  0.00  0.00    +0.402 C 
ATOM     15  H   UNL     1       0.910   0.588   0.339  0.00  0.00    +0.153 HD
BRANCH  14  16
ATOM     16  O   UNL     1       3.076   0.397  -0.539  0.00  0.00    -0.430 OA
BRANCH  16  17
ATOM     17  C   UNL     1       4.357   0.295  -1.171  0.00  0.00    +0.237 C 
BRANCH  17  18
ATOM     18  C   UNL     1       5.405   0.069  -0.121  0.00  0.00    +0.021 C 
ATOM     19  C   UNL     1       6.041   1.158   0.476  0.00  0.00    -0.001 C 
ATOM     20  C   UNL     1       5.743  -1.230   0.259  0.00  0.00    -0.001 C 
ATOM     21  C   UNL     1       7.015   0.947   1.453  0.00  0.00    -0.000 C 
ATOM     22  C   UNL     1       6.717  -1.441   1.235  0.00  0.00    -0.000 C 
ATOM     23  C   UNL     1       7.353  -0.352   1.832  0.00  0.00    -0.000 C 
ENDBRANCH  17  18
ENDBRANCH  16  17
ENDBRANCH  14  16
ENDBRANCH   1  13
BRANCH   1  24
ATOM     24  C   UNL     1      -1.137  -0.418  -1.606  0.00  0.00    +0.027 C 
BRANCH  24  25
ATOM     25  C   UNL     1      -1.476  -1.321  -0.412  0.00  0.00    -0.021 C 
BRANCH  25  26
ATOM     26  C   UNL     1      -2.210  -2.582  -0.870  0.00  0.00    -0.087 C 
BRANCH  26  27
ATOM     27  N   UNL     1      -2.543  -3.419   0.276  0.00  0.00    +0.362 N 
ATOM     28  H   UNL     1      -3.138  -2.883   0.909  0.00  0.00    -0.090 HD
ATOM     29  H   UNL     1      -1.667  -3.693   0.721  0.00  0.00    -0.090 HD
BRANCH  27  30
ATOM     30  C   UNL     1      -3.248  -4.645  -0.102  0.00  0.00    -0.215 C 
BRANCH  30  31
ATOM     31  N   UNL     1      -4.676  -4.411  -0.294  0.00  0.00    +0.359 N 
ATOM     32  H   UNL     1      -4.811  -3.722  -1.034  0.00  0.00    -0.095 HD
ATOM     33  H   UNL     1      -5.082  -4.062   0.574  0.00  0.00    -0.095 HD
ATOM     34  H   UNL     1      -5.132  -5.285  -0.556  0.00  0.00    -0.095 HD
ENDBRANCH  30  31
BRANCH  30  35
ATOM     35  N   UNL     1      -3.081  -5.633   0.960  0.00  0.00    +0.359 N 
ATOM     36  H   UNL     1      -2.087  -5.809   1.107  0.00  0.00    -0.095 HD
ATOM     37  H   UNL     1      -3.544  -6.501   0.692  0.00  0.00    -0.095 HD
ATOM     38  H   UNL     1      -3.495  -5.278   1.822  0.00  0.00    -0.095 HD
ENDBRANCH  30  35
ENDBRANCH  27  30
ENDBRANCH  26  27
ENDBRANCH  25  26
ENDBRANCH  24  25
ENDBRANCH   1  24
TORSDOF 15
