REMARK  Name = 447916
REMARK  5 active torsions:
REMARK  status: ('A' for Active; 'I' for Inactive)
REMARK    1  A    between atoms: N9_1  and  C1*_12
REMARK    2  A    between atoms: C2*_11  and  O2*_15
REMARK    3  A    between atoms: C3*_13  and  O3*_17
REMARK    4  A    between atoms: C4*_14  and  C5*_19
REMARK    5  A    between atoms: C5*_19  and  O5*_20
REMARK                            x       y       z     vdW  Elec       q    Type
REMARK                         _______ _______ _______ _____ _____    ______ ____
ROOT
ATOM      1  N9  A   A   1      -0.235  -0.107  -0.147  0.00  0.00    -0.247 N 
ATOM      2  N7  A   A   1      -1.519  -1.808   0.508  0.00  0.00    -0.242 NA
ATOM      3  N3  A   A   1      -1.952   1.519  -0.704  0.00  0.00    -0.228 NA
ATOM      4  N1  A   A   1      -4.186   0.617  -0.319  0.00  0.00    -0.229 NA
ATOM      5  C4  A   A   1      -1.526   0.322  -0.274  0.00  0.00    +0.152 C 
ATOM      6  C8  A   A   1      -0.283  -1.392   0.325  0.00  0.00    +0.223 C 
ATOM      7  C5  A   A   1      -2.306  -0.747   0.138  0.00  0.00    +0.140 C 
ATOM      8  C6  A   A   1      -3.685  -0.568   0.106  0.00  0.00    +0.143 C 
ATOM      9  C2  A   A   1      -3.301   1.573  -0.692  0.00  0.00    +0.253 C 
ATOM     10  N6  A   A   1      -4.552  -1.599   0.507  0.00  0.00    -0.342 N 
ATOM     11  H61 A   A   1      -5.527  -1.461   0.480  0.00  0.00    +0.144 HD
ATOM     12  H62 A   A   1      -4.185  -2.459   0.816  0.00  0.00    +0.144 HD
ENDROOT
BRANCH   1  15
ATOM     13  O4* A   A   1       1.990  -0.239  -0.956  0.00  0.00    -0.333 OA
ATOM     14  C2* A   A   1       1.560   1.391   0.754  0.00  0.00    +0.187 C 
ATOM     15  C1* A   A   1       0.977   0.653  -0.456  0.00  0.00    +0.225 C 
ATOM     16  C3* A   A   1       2.852   0.653   1.050  0.00  0.00    +0.171 C 
ATOM     17  C4* A   A   1       3.232   0.087  -0.312  0.00  0.00    +0.175 C 
BRANCH  14  18
ATOM     18  O2* A   A   1       1.841   2.742   0.394  0.00  0.00    -0.378 OA
ATOM     19  H2* A   A   1       1.010   3.206   0.206  0.00  0.00    +0.211 HD
ENDBRANCH  14  18
BRANCH  16  20
ATOM     20  O3* A   A   1       2.598  -0.397   1.975  0.00  0.00    -0.379 OA
ATOM     21  H3* A   A   1       2.358  -0.018   2.836  0.00  0.00    +0.211 HD
ENDBRANCH  16  20
BRANCH  17  22
ATOM     22  C5* A   A   1       4.120  -1.144  -0.283  0.00  0.00    +0.169 C 
BRANCH  22  23
ATOM     23  O5* A   A   1       4.376  -1.556  -1.616  0.00  0.00    -0.379 OA
ATOM     24  H5* A   A   1       4.943  -2.343  -1.607  0.00  0.00    +0.211 HD
ENDBRANCH  22  23
ENDBRANCH  17  22
ENDBRANCH   1  15
TORSDOF 5
