REMARK  Name = 444320
REMARK  2 active torsions:
REMARK  status: ('A' for Active; 'I' for Inactive)
REMARK    1  A    between atoms: N_3  and  C_12
REMARK    2  A    between atoms: C_11  and  O_16
REMARK                            x       y       z     vdW  Elec       q    Type
REMARK                         _______ _______ _______ _____ _____    ______ ____
ROOT
ATOM      1  O   UNL     1      -1.211   2.432  -0.497  0.00  0.00    -0.252 OA
ATOM      2  O   UNL     1      -4.358  -0.863   0.199  0.00  0.00    -0.270 OA
ATOM      3  N   UNL     1      -0.463   0.273  -0.011  0.00  0.00    -0.219 N 
ATOM      4  N   UNL     1      -2.776   0.790  -0.149  0.00  0.00    -0.236 N 
ATOM      5  C   UNL     1      -1.456   1.252  -0.238  0.00  0.00    +0.315 C 
ATOM      6  C   UNL     1      -0.823  -1.038   0.273  0.00  0.00    +0.076 C 
ATOM      7  C   UNL     1      -2.085  -1.463   0.354  0.00  0.00    +0.074 C 
ATOM      8  C   UNL     1      -3.186  -0.504   0.132  0.00  0.00    +0.254 C 
ATOM      9  H   UNL     1      -3.487   1.454  -0.303  0.00  0.00    +0.159 HD
ENDROOT
BRANCH   3  12
ATOM     10  O   UNL     1       1.553  -0.087  -1.145  0.00  0.00    -0.337 OA
ATOM     11  C   UNL     1       3.059  -0.034   0.686  0.00  0.00    +0.142 C 
ATOM     12  C   UNL     1       0.923   0.634  -0.076  0.00  0.00    +0.202 C 
ATOM     13  C   UNL     1       1.679   0.304   1.201  0.00  0.00    +0.083 C 
ATOM     14  C   UNL     1       2.775  -0.679  -0.664  0.00  0.00    +0.144 C 
ATOM     15  C   UNL     1       2.560  -2.184  -0.568  0.00  0.00    +0.035 C 
BRANCH  11  16
ATOM     16  O   UNL     1       3.810   1.165   0.502  0.00  0.00    -0.382 OA
ATOM     17  H   UNL     1       3.987   1.570   1.365  0.00  0.00    +0.210 HD
ENDBRANCH  11  16
ENDBRANCH   3  12
TORSDOF 2
