REMARK  Name = 85466
REMARK  4 active torsions:
REMARK  status: ('A' for Active; 'I' for Inactive)
REMARK    1  A    between atoms: C_9  and  N_17
REMARK    2  A    between atoms: C_10  and  N_20
REMARK    3  A    between atoms: C_11  and  O_23
REMARK    4  A    between atoms: C_12  and  O_25
REMARK                            x       y       z     vdW  Elec       q    Type
REMARK                         _______ _______ _______ _____ _____    ______ ____
ROOT
ATOM      1  O   UNL     1       0.011  -2.672  -0.002  0.00  0.00    -0.286 OA
ATOM      2  O   UNL     1       0.013   2.671  -0.002  0.00  0.00    -0.286 OA
ATOM      3  C   UNL     1      -1.274  -0.698   0.000  0.00  0.00    +0.056 C 
ATOM      4  C   UNL     1      -1.273   0.698   0.000  0.00  0.00    +0.056 C 
ATOM      5  C   UNL     1       1.272  -0.698   0.000  0.00  0.00    +0.079 C 
ATOM      6  C   UNL     1       1.273   0.698   0.000  0.00  0.00    +0.079 C 
ATOM      7  C   UNL     1      -0.001  -1.448  -0.001  0.00  0.00    +0.200 C 
ATOM      8  C   UNL     1       0.000   1.447   0.000  0.00  0.00    +0.200 C 
ATOM      9  C   UNL     1      -2.487  -1.396   0.000  0.00  0.00    +0.045 C 
ATOM     10  C   UNL     1      -2.487   1.397   0.000  0.00  0.00    +0.045 C 
ATOM     11  C   UNL     1       2.486  -1.397   0.000  0.00  0.00    +0.137 C 
ATOM     12  C   UNL     1       2.486   1.396   0.001  0.00  0.00    +0.137 C 
ATOM     13  C   UNL     1      -3.694  -0.696   0.001  0.00  0.00    +0.015 C 
ATOM     14  C   UNL     1      -3.694   0.697   0.001  0.00  0.00    +0.015 C 
ATOM     15  C   UNL     1       3.693  -0.697   0.000  0.00  0.00    +0.040 C 
ATOM     16  C   UNL     1       3.693   0.696   0.001  0.00  0.00    +0.040 C 
ENDROOT
BRANCH   9  17
ATOM     17  N   UNL     1      -2.572  -2.808   0.001  0.00  0.00    -0.357 N 
ATOM     18  H   UNL     1      -1.751  -3.350   0.000  0.00  0.00    +0.142 HD
ATOM     19  H   UNL     1      -3.453  -3.248   0.001  0.00  0.00    +0.142 HD
ENDBRANCH   9  17
BRANCH  10  20
ATOM     20  N   UNL     1      -2.571   2.808  -0.001  0.00  0.00    -0.357 N 
ATOM     21  H   UNL     1      -1.749   3.350  -0.002  0.00  0.00    +0.142 HD
ATOM     22  H   UNL     1      -3.451   3.249  -0.002  0.00  0.00    +0.142 HD
ENDBRANCH  10  20
BRANCH  11  23
ATOM     23  O   UNL     1       2.562  -2.758   0.000  0.00  0.00    -0.505 OA
ATOM     24  H   UNL     1       1.777  -3.271   0.000  0.00  0.00    +0.292 HD
ENDBRANCH  11  23
BRANCH  12  25
ATOM     25  O   UNL     1       2.563   2.757   0.001  0.00  0.00    -0.505 OA
ATOM     26  H   UNL     1       1.779   3.271   0.001  0.00  0.00    +0.292 HD
ENDBRANCH  12  25
TORSDOF 4
