REMARK  Name = 122357
REMARK  9 active torsions:
REMARK  status: ('A' for Active; 'I' for Inactive)
REMARK    1  A    between atoms: C_1  and  O_2
REMARK    2  A    between atoms: C_1  and  C_4
REMARK    3  A    between atoms: C_1  and  C_12
REMARK    4  A    between atoms: C_4  and  O_5
REMARK    5  A    between atoms: O_5  and  P_6
REMARK    6  A    between atoms: P_6  and  O_8
REMARK    7  A    between atoms: P_6  and  O_10
REMARK    8  A    between atoms: C_12  and  O_13
REMARK    9  A    between atoms: C_12  and  C_16
REMARK                            x       y       z     vdW  Elec       q    Type
REMARK                         _______ _______ _______ _____ _____    ______ ____
ROOT
ATOM      1  C   UNL     1       1.077  -1.104   0.161  0.00  0.00    +0.175 C 
ENDROOT
BRANCH   1   2
ATOM      2  O   UNL     1       1.900  -1.736  -0.824  0.00  0.00    -0.379 OA
ATOM      3  H   UNL     1       1.444  -2.516  -1.174  0.00  0.00    +0.211 HD
ENDBRANCH   1   2
BRANCH   1   4
ATOM      4  C   UNL     1      -0.276  -0.771  -0.459  0.00  0.00    +0.186 C 
BRANCH   4   5
ATOM      5  O   UNL     1      -1.113  -0.207   0.546  0.00  0.00    -0.271 OA
BRANCH   5   6
ATOM      6  P   UNL     1      -2.612   0.233   0.136  0.00  0.00    +0.473 P 
ATOM      7  O   UNL     1      -3.432   0.819   1.248  0.00  0.00    -0.227 OA
BRANCH   6   8
ATOM      8  O   UNL     1      -3.229  -1.095  -0.552  0.00  0.00    -0.303 OA
ATOM      9  H   UNL     1      -2.635  -1.400  -1.256  0.00  0.00    +0.222 HD
ENDBRANCH   6   8
BRANCH   6  10
ATOM     10  O   UNL     1      -2.361   1.220  -1.120  0.00  0.00    -0.303 OA
ATOM     11  H   UNL     1      -1.826   0.763  -1.789  0.00  0.00    +0.222 HD
ENDBRANCH   6  10
ENDBRANCH   5   6
ENDBRANCH   4   5
ENDBRANCH   1   4
BRANCH   1  12
ATOM     12  C   UNL     1       1.810   0.125   0.703  0.00  0.00    +0.205 C 
BRANCH  12  13
ATOM     13  O   UNL     1       3.073  -0.264   1.223  0.00  0.00    -0.375 OA
ATOM     14  H   UNL     1       2.948  -0.951   1.896  0.00  0.00    +0.211 HD
ENDBRANCH  12  13
BRANCH  12  16
ATOM     15  O   UNL     1       3.133   1.583  -0.718  0.00  0.00    -0.286 OA
ATOM     16  C   UNL     1       2.029   1.198  -0.345  0.00  0.00    +0.239 C 
ENDBRANCH  12  16
ENDBRANCH   1  12
TORSDOF 9
