REMARK  Name = 10964
REMARK  2 active torsions:
REMARK  status: ('A' for Active; 'I' for Inactive)
REMARK    1  A    between atoms: C_1  and  C_3
REMARK    2  A    between atoms: C_1  and  C_5
REMARK                            x       y       z     vdW  Elec       q    Type
REMARK                         _______ _______ _______ _____ _____    ______ ____
ROOT
ATOM      1  C   UNL     1       0.000  -1.115   0.007  0.00  0.00    +0.144 C 
ENDROOT
BRANCH   1   3
ATOM      2  O   UNL     1       1.369   0.890   0.002  0.00  0.00    -0.288 OA
ATOM      3  C   UNL     1       1.285  -0.333  -0.006  0.00  0.00    +0.216 C 
ENDBRANCH   1   3
BRANCH   1   5
ATOM      4  O   UNL     1      -1.369   0.890   0.002  0.00  0.00    -0.288 OA
ATOM      5  C   UNL     1      -1.285  -0.333  -0.006  0.00  0.00    +0.216 C 
ENDBRANCH   1   5
TORSDOF 2
