REMARK  Name = 444508
REMARK  11 active torsions:
REMARK  status: ('A' for Active; 'I' for Inactive)
REMARK    1  A    between atoms: C_1  and  N_8
REMARK    2  A    between atoms: C_2  and  N_23
REMARK    3  A    between atoms: C_6  and  C_20
REMARK    4  A    between atoms: C_9  and  C_13
REMARK    5  A    between atoms: C_9  and  C_16
REMARK    6  A    between atoms: C_13  and  O_14
REMARK    7  A    between atoms: C_16  and  O_17
REMARK    8  A    between atoms: C_20  and  O_21
REMARK    9  A    between atoms: N_23  and  C_25
REMARK   10  A    between atoms: C_25  and  C_26
REMARK   11  A    between atoms: C_25  and  C_28
REMARK                            x       y       z     vdW  Elec       q    Type
REMARK                         _______ _______ _______ _____ _____    ______ ____
ROOT
ATOM      1  C   UNL     1       0.419   0.778   0.382  0.00  0.00    +0.067 C 
ATOM      2  C   UNL     1      -0.629  -0.135   0.240  0.00  0.00    +0.059 C 
ATOM      3  C   UNL     1       0.137   2.142   0.500  0.00  0.00    +0.016 C 
ATOM      4  C   UNL     1      -1.951   0.313   0.217  0.00  0.00    +0.022 C 
ATOM      5  C   UNL     1      -1.184   2.589   0.478  0.00  0.00    +0.008 C 
ATOM      6  C   UNL     1      -2.228   1.675   0.336  0.00  0.00    +0.077 C 
ENDROOT
BRANCH   1   8
ATOM      7  O   UNL     1       2.079   0.041   2.761  0.00  0.00    -0.275 OA
ATOM      8  N   UNL     1       1.784   0.343   0.408  0.00  0.00    -0.256 N 
ATOM      9  C   UNL     1       2.683   0.273  -0.756  0.00  0.00    +0.119 C 
ATOM     10  C   UNL     1       3.766  -0.699  -0.247  0.00  0.00    +0.033 C 
ATOM     11  C   UNL     1       3.872  -0.401   1.234  0.00  0.00    +0.087 C 
ATOM     12  C   UNL     1       2.464  -0.007   1.600  0.00  0.00    +0.229 C 
BRANCH   9  13
ATOM     13  C   UNL     1       3.337   1.632  -1.068  0.00  0.00    +0.158 C 
BRANCH  13  14
ATOM     14  O   UNL     1       2.332   2.504  -1.542  0.00  0.00    -0.380 OA
ATOM     15  H   UNL     1       2.723   3.368  -1.745  0.00  0.00    +0.211 HD
ENDBRANCH  13  14
ENDBRANCH   9  13
BRANCH   9  16
ATOM     16  C   UNL     1       2.072  -0.349  -2.022  0.00  0.00    +0.158 C 
BRANCH  16  17
ATOM     17  O   UNL     1       1.067   0.520  -2.503  0.00  0.00    -0.380 OA
ATOM     18  H   UNL     1       0.669   0.143  -3.304  0.00  0.00    +0.211 HD
ENDBRANCH  16  17
ENDBRANCH   9  16
ENDBRANCH   1   8
BRANCH   6  20
ATOM     19  O   UNL     1      -3.963   3.320   0.413  0.00  0.00    -0.245 OA
ATOM     20  C   UNL     1      -3.605   2.142   0.314  0.00  0.00    +0.338 C 
BRANCH  20  21
ATOM     21  O   UNL     1      -4.497   1.124   0.169  0.00  0.00    -0.477 OA
ATOM     22  H   UNL     1      -4.193   0.241   0.097  0.00  0.00    +0.295 HD
ENDBRANCH  20  21
ENDBRANCH   6  20
BRANCH   2  23
ATOM     23  N   UNL     1      -0.371  -1.519   0.119  0.00  0.00    -0.333 N 
ATOM     24  H   UNL     1       0.563  -1.827   0.137  0.00  0.00    +0.147 HD
BRANCH  23  25
ATOM     25  C   UNL     1      -1.409  -2.490  -0.028  0.00  0.00    +0.069 C 
BRANCH  25  26
ATOM     26  C   UNL     1      -0.877  -3.872   0.379  0.00  0.00    +0.019 C 
ATOM     27  C   UNL     1      -0.376  -3.912   1.818  0.00  0.00    +0.002 C 
ENDBRANCH  25  26
BRANCH  25  28
ATOM     28  C   UNL     1      -1.897  -2.507  -1.484  0.00  0.00    +0.019 C 
ATOM     29  C   UNL     1      -3.023  -3.506  -1.717  0.00  0.00    +0.002 C 
ENDBRANCH  25  28
ENDBRANCH  23  25
ENDBRANCH   2  23
TORSDOF 11
