REMARK  Name = 656968
REMARK  4 active torsions:
REMARK  status: ('A' for Active; 'I' for Inactive)
REMARK    1  A    between atoms: N_1  and  C_9
REMARK    2  A    between atoms: C_4  and  C_16
REMARK    3  A    between atoms: C_16  and  O_17
REMARK    4  A    between atoms: O_17  and  C_18
REMARK                            x       y       z     vdW  Elec       q    Type
REMARK                         _______ _______ _______ _____ _____    ______ ____
ROOT
ATOM      1  N   UNL     1      -0.793   0.276  -0.171  0.00  0.00    -0.233 N 
ATOM      2  N   UNL     1      -0.242   1.505  -0.223  0.00  0.00    -0.170 NA
ATOM      3  C   UNL     1       0.135  -0.728  -0.089  0.00  0.00    +0.068 A 
ATOM      4  C   UNL     1       1.364  -0.114  -0.087  0.00  0.00    +0.104 A 
ATOM      5  C   UNL     1       1.070   1.260  -0.171  0.00  0.00    +0.087 A 
ATOM      6  C   UNL     1      -0.233  -2.158  -0.022  0.00  0.00    +0.052 C 
ATOM      7  C   UNL     1       2.018   2.388  -0.204  0.00  0.00    +0.054 C 
ENDROOT
BRANCH   1   9
ATOM      8 CL   UNL     1      -2.204   0.285   2.527  0.00  0.00    -0.081 Cl
ATOM      9  C   UNL     1      -2.171   0.130  -0.203  0.00  0.00    +0.093 C 
ATOM     10  C   UNL     1      -2.931   0.118   0.967  0.00  0.00    +0.075 C 
ATOM     11  C   UNL     1      -2.796  -0.007  -1.442  0.00  0.00    +0.020 C 
ATOM     12  C   UNL     1      -4.316  -0.031   0.897  0.00  0.00    +0.013 C 
ATOM     13  C   UNL     1      -4.181  -0.156  -1.512  0.00  0.00    +0.002 C 
ATOM     14  C   UNL     1      -4.941  -0.168  -0.342  0.00  0.00    +0.001 C 
ENDBRANCH   1   9
BRANCH   4  16
ATOM     15  O   UNL     1       2.783  -2.005   0.058  0.00  0.00    -0.245 OA
ATOM     16  C   UNL     1       2.635  -0.770  -0.014  0.00  0.00    +0.344 C 
BRANCH  16  17
ATOM     17  O   UNL     1       3.719   0.086  -0.028  0.00  0.00    -0.445 OA
BRANCH  17  18
ATOM     18  C   UNL     1       5.021  -0.504   0.043  0.00  0.00    +0.209 C 
ATOM     19  C   UNL     1       6.063   0.594   0.015  0.00  0.00    +0.051 C 
ENDBRANCH  17  18
ENDBRANCH  16  17
ENDBRANCH   4  16
TORSDOF 4
