REMARK  Name = 4369102
REMARK  7 active torsions:
REMARK  status: ('A' for Active; 'I' for Inactive)
REMARK    1  A    between atoms: N_5  and  C_23
REMARK    2  A    between atoms: C_6  and  N_18
REMARK    3  A    between atoms: C_11  and  S_12
REMARK    4  A    between atoms: S_12  and  N_15
REMARK    5  A    between atoms: N_18  and  C_21
REMARK    6  A    between atoms: C_23  and  C_24
REMARK    7  A    between atoms: C_24  and  O_25
REMARK                            x       y       z     vdW  Elec       q    Type
REMARK                         _______ _______ _______ _____ _____    ______ ____
ROOT
ATOM      1  S   UNL     1       0.757   1.765   0.329  0.00  0.00    +0.069 S 
ATOM      2  S   UNL     1      -2.124   1.399  -0.333  0.00  0.00    -0.048 S 
ATOM      3  O   UNL     1       0.501   2.621   1.469  0.00  0.00    -0.152 OA
ATOM      4  O   UNL     1       0.990   2.292  -1.000  0.00  0.00    -0.152 OA
ATOM      5  N   UNL     1       1.980   0.603   0.724  0.00  0.00    -0.154 NA
ATOM      6  C   UNL     1       0.444  -1.365   1.076  0.00  0.00    -0.019 C 
ATOM      7  C   UNL     1       1.548  -0.468   1.691  0.00  0.00    +0.079 C 
ATOM      8  C   UNL     1      -0.746  -0.590   0.566  0.00  0.00    -0.014 C 
ATOM      9  C   UNL     1      -0.667   0.740   0.213  0.00  0.00    +0.147 C 
ATOM     10  C   UNL     1      -2.076  -1.077   0.373  0.00  0.00    +0.022 C 
ATOM     11  C   UNL     1      -2.924  -0.103  -0.114  0.00  0.00    +0.152 C 
ENDROOT
BRANCH  11  12
ATOM     12  S   UNL     1      -4.629  -0.096  -0.540  0.00  0.00    +0.063 S 
ATOM     13  O   UNL     1      -4.790   0.966  -1.527  0.00  0.00    -0.153 OA
ATOM     14  O   UNL     1      -4.941  -1.478  -0.881  0.00  0.00    -0.153 OA
BRANCH  12  15
ATOM     15  N   UNL     1      -5.541   0.339   0.849  0.00  0.00    -0.203 NA
ATOM     16  H   UNL     1      -6.534   0.346   0.615  0.00  0.00    +0.144 HD
ATOM     17  H   UNL     1      -5.259   1.266   1.165  0.00  0.00    +0.144 HD
ENDBRANCH  12  15
ENDBRANCH  11  12
BRANCH   6  18
ATOM     18  N   UNL     1       0.980  -2.151  -0.038  0.00  0.00    +0.389 N 
ATOM     19  H   UNL     1       1.252  -1.521  -0.793  0.00  0.00    -0.084 HD
ATOM     20  H   UNL     1       0.259  -2.797  -0.360  0.00  0.00    -0.084 HD
BRANCH  18  21
ATOM     21  C   UNL     1       2.140  -2.917   0.386  0.00  0.00    -0.081 C 
ATOM     22  C   UNL     1       2.685  -3.764  -0.752  0.00  0.00    -0.026 C 
ENDBRANCH  18  21
ENDBRANCH   6  18
BRANCH   5  23
ATOM     23  C   UNL     1       3.321   1.152   1.032  0.00  0.00    +0.128 C 
BRANCH  23  24
ATOM     24  C   UNL     1       4.330   0.625   0.027  0.00  0.00    +0.161 C 
BRANCH  24  25
ATOM     25  O   UNL     1       3.925   0.993  -1.285  0.00  0.00    -0.350 OA
ATOM     26  C   UNL     1       4.838   0.515  -2.265  0.00  0.00    +0.174 C 
ENDBRANCH  24  25
ENDBRANCH  23  24
ENDBRANCH   5  23
TORSDOF 7
