REMARK  Name = 72258
REMARK  5 active torsions:
REMARK  status: ('A' for Active; 'I' for Inactive)
REMARK    1  A    between atoms: C_2  and  O_9
REMARK    2  A    between atoms: CA_3  and  C_15
REMARK    3  A    between atoms: C_4  and  O_11
REMARK    4  A    between atoms: C_5  and  O_13
REMARK    5  A    between atoms: C_15  and  O_16
REMARK                            x       y       z     vdW  Elec       q    Type
REMARK                         _______ _______ _______ _____ _____    ______ ____
ROOT
ATOM      1  N   UNL     1      -0.158   1.754  -0.029  0.00  0.00    +0.390 N 
ATOM      2  C   UNL     1      -0.315  -0.724   0.175  0.00  0.00    +0.123 C 
ATOM      3  CA  UNL     1      -1.003   0.578  -0.281  0.00  0.00    -0.002 C 
ATOM      4  C   UNL     1       1.069  -0.858  -0.467  0.00  0.00    +0.160 C 
ATOM      5  C   UNL     1       1.908   0.402  -0.248  0.00  0.00    +0.118 C 
ATOM      6  C   UNL     1       1.143   1.644  -0.698  0.00  0.00    -0.049 C 
ATOM      7  H1  UNL     1      -0.006   1.841   0.976  0.00  0.00    -0.084 HD
ATOM      8  H2  UNL     1      -0.637   2.574  -0.401  0.00  0.00    -0.084 HD
ENDROOT
BRANCH   2   9
ATOM      9  O   UNL     1      -1.089  -1.851  -0.236  0.00  0.00    -0.384 OA
ATOM     10  H   UNL     1      -1.975  -1.795   0.156  0.00  0.00    +0.210 HD
ENDBRANCH   2   9
BRANCH   4  11
ATOM     11  O   UNL     1       1.737  -1.988   0.091  0.00  0.00    -0.380 OA
ATOM     12  H   UNL     1       1.201  -2.783  -0.051  0.00  0.00    +0.211 HD
ENDBRANCH   4  11
BRANCH   5  13
ATOM     13  O   UNL     1       2.235   0.552   1.135  0.00  0.00    -0.384 OA
ATOM     14  H   UNL     1       2.722  -0.229   1.439  0.00  0.00    +0.210 HD
ENDBRANCH   5  13
BRANCH   3  15
ATOM     15  C   UNL     1      -2.341   0.790   0.433  0.00  0.00    +0.118 C 
BRANCH  15  16
ATOM     16  O   UNL     1      -3.188  -0.299   0.125  0.00  0.00    -0.384 OA
ATOM     17  H   UNL     1      -4.042  -0.181   0.570  0.00  0.00    +0.210 HD
ENDBRANCH  15  16
ENDBRANCH   3  15
TORSDOF 5
