REMARK  Name = 996
REMARK  1 active torsions:
REMARK  status: ('A' for Active; 'I' for Inactive)
REMARK    1  A    between atoms: C_1  and  O_7
REMARK                            x       y       z     vdW  Elec       q    Type
REMARK                         _______ _______ _______ _____ _____    ______ ____
ROOT
ATOM      1  C   UNL     1      -1.001   0.000   0.000  0.00  0.00    +0.134 C 
ATOM      2  C   UNL     1      -0.304   1.208   0.000  0.00  0.00    +0.037 C 
ATOM      3  C   UNL     1      -0.304  -1.208   0.000  0.00  0.00    +0.037 C 
ATOM      4  C   UNL     1       1.091   1.208   0.000  0.00  0.00    +0.003 C 
ATOM      5  C   UNL     1       1.091  -1.208   0.000  0.00  0.00    +0.003 C 
ATOM      6  C   UNL     1       1.789   0.000   0.000  0.00  0.00    +0.000 C 
ENDROOT
BRANCH   1   7
ATOM      7  O   UNL     1      -2.362   0.000   0.000  0.00  0.00    -0.506 OA
ATOM      8  H   UNL     1      -2.831   0.812   0.000  0.00  0.00    +0.292 HD
ENDBRANCH   1   7
TORSDOF 1
