REMARK  Name = 1137
REMARK  6 active torsions:
REMARK  status: ('A' for Active; 'I' for Inactive)
REMARK    1  A    between atoms: C_1  and  O_2
REMARK    2  A    between atoms: C_1  and  C_9
REMARK    3  A    between atoms: O_2  and  P_3
REMARK    4  A    between atoms: P_3  and  O_5
REMARK    5  A    between atoms: P_3  and  O_7
REMARK    6  A    between atoms: C_9  and  C_12
REMARK                            x       y       z     vdW  Elec       q    Type
REMARK                         _______ _______ _______ _____ _____    ______ ____
ROOT
ATOM      1  C   UNL     1       0.822   1.219   0.655  0.00  0.00    +0.155 C 
ENDROOT
BRANCH   1   2
ATOM      2  O   UNL     1       1.274  -0.098   0.387  0.00  0.00    -0.273 OA
BRANCH   2   3
ATOM      3  P   UNL     1       2.722  -0.290  -0.312  0.00  0.00    +0.473 P 
ATOM      4  O   UNL     1       3.122  -1.715  -0.559  0.00  0.00    -0.227 OA
BRANCH   3   5
ATOM      5  O   UNL     1       3.722   0.554   0.639  0.00  0.00    -0.303 OA
ATOM      6  H   UNL     1       3.384   1.458   0.741  0.00  0.00    +0.222 HD
ENDBRANCH   3   5
BRANCH   3   7
ATOM      7  O   UNL     1       2.607   0.627  -1.638  0.00  0.00    -0.303 OA
ATOM      8  H   UNL     1       2.345   1.527  -1.388  0.00  0.00    +0.222 HD
ENDBRANCH   3   7
ENDBRANCH   2   3
ENDBRANCH   1   2
BRANCH   1   9
ATOM      9  C   UNL     1      -0.556   1.196   1.311  0.00  0.00    +0.049 C 
BRANCH   9  12
ATOM     10  S   UNL     1      -2.474   1.514  -0.662  0.00  0.00    -0.109 S 
ATOM     11  N   UNL     1      -2.956  -1.023  -0.572  0.00  0.00    -0.266 NA
ATOM     12  C   UNL     1      -1.595   0.551   0.425  0.00  0.00    +0.087 C 
ATOM     13  C   UNL     1      -1.964  -0.754   0.351  0.00  0.00    +0.043 C 
ATOM     14  C   UNL     1      -1.423  -1.879   1.139  0.00  0.00    +0.048 C 
ATOM     15  C   UNL     1      -3.301   0.098  -1.165  0.00  0.00    +0.183 C 
ENDBRANCH   9  12
ENDBRANCH   1   9
TORSDOF 6
