REMARK  Name = 9305
REMARK  6 active torsions:
REMARK  status: ('A' for Active; 'I' for Inactive)
REMARK    1  A    between atoms: C_1  and  C_4
REMARK    2  A    between atoms: C_1  and  CA_12
REMARK    3  A    between atoms: C_9  and  O_10
REMARK    4  A    between atoms: CA_12  and  N_13
REMARK    5  A    between atoms: CA_12  and  C_18
REMARK    6  A    between atoms: C_18  and  O_19
REMARK                            x       y       z     vdW  Elec       q    Type
REMARK                         _______ _______ _______ _____ _____    ______ ____
ROOT
ATOM      1  C   UNL     1      -1.481  -0.823  -1.034  0.00  0.00    +0.015 C 
ENDROOT
BRANCH   1   4
ATOM      2  I   UNL     1       2.156   3.240  -0.337  0.00  0.00    -0.039 I 
ATOM      3  I   UNL     1       3.419  -2.647   0.666  0.00  0.00    -0.039 I 
ATOM      4  C   UNL     1      -0.070  -0.453  -0.638  0.00  0.00    -0.023 C 
ATOM      5  C   UNL     1       0.812  -1.452  -0.262  0.00  0.00    +0.005 C 
ATOM      6  C   UNL     1       0.312   0.878  -0.658  0.00  0.00    +0.005 C 
ATOM      7  C   UNL     1       1.614   1.220  -0.292  0.00  0.00    +0.064 C 
ATOM      8  C   UNL     1       2.114  -1.111   0.104  0.00  0.00    +0.064 C 
ATOM      9  C   UNL     1       2.515   0.225   0.089  0.00  0.00    +0.144 C 
BRANCH   9  10
ATOM     10  O   UNL     1       3.790   0.559   0.447  0.00  0.00    -0.505 OA
ATOM     11  H   UNL     1       4.060   1.457   0.437  0.00  0.00    +0.292 HD
ENDBRANCH   9  10
ENDBRANCH   1   4
BRANCH   1  12
ATOM     12  CA  UNL     1      -2.453  -0.830   0.156  0.00  0.00    +0.040 C 
BRANCH  12  13
ATOM     13  N   UNL     1      -3.630  -1.631  -0.171  0.00  0.00    +0.389 N 
ATOM     14  H1  UNL     1      -3.341  -2.580  -0.405  0.00  0.00    -0.088 HD
ATOM     15  H2  UNL     1      -4.112  -1.216  -0.969  0.00  0.00    -0.088 HD
ATOM     16  H3  UNL     1      -4.259  -1.654   0.631  0.00  0.00    -0.088 HD
ENDBRANCH  12  13
BRANCH  12  18
ATOM     17  OXT UNL     1      -3.942   1.091  -0.007  0.00  0.00    -0.253 OA
ATOM     18  C   UNL     1      -2.955   0.564   0.491  0.00  0.00    +0.293 C 
BRANCH  18  19
ATOM     19  O   UNL     1      -2.202   1.169   1.447  0.00  0.00    -0.482 OA
ATOM     20  H   UNL     1      -1.455   0.730   1.802  0.00  0.00    +0.295 HD
ENDBRANCH  18  19
ENDBRANCH  12  18
ENDBRANCH   1  12
TORSDOF 6
