REMARK  Name = 5289459
REMARK  10 active torsions:
REMARK  status: ('A' for Active; 'I' for Inactive)
REMARK    1  A    between atoms: N_2  and  C_23
REMARK    2  A    between atoms: C_4  and  C_8
REMARK    3  A    between atoms: C_6  and  N_17
REMARK    4  A    between atoms: C_13  and  N_14
REMARK    5  A    between atoms: N_17  and  S_19
REMARK    6  A    between atoms: C_23  and  C_26
REMARK    7  A    between atoms: N_25  and  C_28
REMARK    8  A    between atoms: C_28  and  C_29
REMARK    9  A    between atoms: C_28  and  C_33
REMARK   10  A    between atoms: C_33  and  C_37
REMARK                            x       y       z     vdW  Elec       q    Type
REMARK                         _______ _______ _______ _____ _____    ______ ____
ROOT
ATOM      1  O   UNL     1       3.189   1.045  -1.464  0.00  0.00    -0.268 OA
ATOM      2  N   UNL     1       1.668  -0.612  -0.788  0.00  0.00    -0.230 N 
ATOM      3  N   UNL     1       2.415  -2.346   0.686  0.00  0.00    -0.227 NA
ATOM      4  C   UNL     1       1.491  -1.794  -0.044  0.00  0.00    +0.138 C 
ATOM      5  C   UNL     1       2.912   0.036  -0.821  0.00  0.00    +0.270 C 
ATOM      6  C   UNL     1       3.928  -0.622   0.021  0.00  0.00    +0.137 C 
ATOM      7  C   UNL     1       3.636  -1.727   0.705  0.00  0.00    +0.121 C 
ENDROOT
BRANCH   4   8
ATOM      8  C   UNL     1       0.176  -2.462  -0.087  0.00  0.00    +0.032 C 
ATOM      9  C   UNL     1      -0.807  -2.126   0.844  0.00  0.00    +0.004 C 
ATOM     10  C   UNL     1      -0.083  -3.428  -1.058  0.00  0.00    +0.004 C 
ATOM     11  C   UNL     1      -2.050  -2.757   0.803  0.00  0.00    +0.014 C 
ATOM     12  C   UNL     1      -1.326  -4.060  -1.099  0.00  0.00    +0.014 C 
ATOM     13  C   UNL     1      -2.310  -3.724  -0.169  0.00  0.00    +0.042 C 
BRANCH  13  14
ATOM     14  N   UNL     1      -3.567  -4.362  -0.211  0.00  0.00    -0.357 N 
ATOM     15  H   UNL     1      -4.261  -4.125   0.446  0.00  0.00    +0.142 HD
ATOM     16  H   UNL     1      -3.751  -5.043  -0.897  0.00  0.00    +0.142 HD
ENDBRANCH  13  14
ENDBRANCH   4   8
BRANCH   6  17
ATOM     17  N   UNL     1       5.226  -0.096   0.127  0.00  0.00    -0.213 N 
ATOM     18  H   UNL     1       6.020  -0.593  -0.175  0.00  0.00    +0.174 HD
BRANCH  17  19
ATOM     19  S   UNL     1       5.332   1.462   0.814  0.00  0.00    +0.056 S 
ATOM     20  O   UNL     1       4.010   2.051   0.896  0.00  0.00    -0.154 OA
ATOM     21  O   UNL     1       6.207   1.417   1.970  0.00  0.00    -0.154 OA
ATOM     22  C   UNL     1       6.204   2.302  -0.485  0.00  0.00    +0.200 C 
ENDBRANCH  17  19
ENDBRANCH   6  17
BRANCH   2  23
ATOM     23  C   UNL     1       0.573  -0.004  -1.547  0.00  0.00    +0.185 C 
BRANCH  23  26
ATOM     24  O   UNL     1       0.356   1.565   0.276  0.00  0.00    -0.273 OA
ATOM     25  N   UNL     1      -1.505   1.089  -1.032  0.00  0.00    -0.298 N 
ATOM     26  C   UNL     1      -0.168   0.980  -0.667  0.00  0.00    +0.243 C 
ATOM     27  H   UNL     1      -1.820   0.573  -1.809  0.00  0.00    +0.150 HD
BRANCH  25  28
ATOM     28  C   UNL     1      -2.453   1.919  -0.334  0.00  0.00    +0.138 C 
BRANCH  28  29
ATOM     29  C   UNL     1      -3.099   2.998  -1.223  0.00  0.00    +0.025 C 
ATOM     30  C   UNL     1      -3.957   2.361  -2.320  0.00  0.00    +0.002 C 
ATOM     31  C   UNL     1      -2.084   3.958  -1.852  0.00  0.00    +0.002 C 
ENDBRANCH  28  29
BRANCH  28  33
ATOM     32  O   UNL     1      -3.865  -0.044  -0.235  0.00  0.00    -0.286 OA
ATOM     33  C   UNL     1      -3.487   0.997   0.303  0.00  0.00    +0.262 C 
BRANCH  33  37
ATOM     34  F   UNL     1      -3.451   2.551   2.097  0.00  0.00    -0.163 F 
ATOM     35  F   UNL     1      -3.749   0.451   2.595  0.00  0.00    -0.163 F 
ATOM     36  F   UNL     1      -5.352   1.587   1.646  0.00  0.00    -0.163 F 
ATOM     37  C   UNL     1      -4.009   1.395   1.655  0.00  0.00    +0.453 C 
ENDBRANCH  33  37
ENDBRANCH  28  33
ENDBRANCH  25  28
ENDBRANCH  23  26
ENDBRANCH   2  23
TORSDOF 10
