5280335
  -OEChem-10051720113D

 58 57  0     1  0  0  0  0  0999 V2000
   -6.7268    1.5015   -1.2866 O   0  0  0  0  0  0  0  0  0  0  0  0
   -9.4130   -1.7284   -0.8186 O   0  0  0  0  0  0  0  0  0  0  0  0
   -9.1581    0.9047    0.1618 N   0  0  0  0  0  0  0  0  0  0  0  0
    3.1954    0.4046    0.2393 C   0  0  0  0  0  0  0  0  0  0  0  0
    4.4842   -0.4186    0.2951 C   0  0  0  0  0  0  0  0  0  0  0  0
    1.9631   -0.4814    0.4416 C   0  0  0  0  0  0  0  0  0  0  0  0
    5.7462    0.4065    0.0273 C   0  0  0  0  0  0  0  0  0  0  0  0
    0.6761    0.3458    0.4182 C   0  0  0  0  0  0  0  0  0  0  0  0
    7.0278   -0.4295    0.0101 C   0  0  0  0  0  0  0  0  0  0  0  0
   -0.5892   -0.4887    0.6388 C   0  0  0  0  0  0  0  0  0  0  0  0
    8.2564    0.4457   -0.2485 C   0  0  0  0  0  0  0  0  0  0  0  0
   -1.9126    0.2825    0.6035 C   0  0  0  0  0  0  0  0  0  0  0  0
    9.5348   -0.3923   -0.3039 C   0  0  0  0  0  0  0  0  0  0  0  0
   -3.1334   -0.5928    0.8923 C   0  0  0  0  0  0  0  0  0  0  0  0
   10.7657    0.4856   -0.5287 C   0  0  0  0  0  0  0  0  0  0  0  0
   -4.3988    0.2141    0.8511 C   0  0  0  0  0  0  0  0  0  0  0  0
   -6.7151    0.8519   -0.0090 C   0  0  1  0  0  0  0  0  0  0  0  0
   -7.9999    0.0007    0.1340 C   0  0  2  0  0  0  0  0  0  0  0  0
   -5.4482    0.0436    0.0318 C   0  0  0  0  0  0  0  0  0  0  0  0
   12.0420   -0.3401   -0.5509 C   0  0  0  0  0  0  0  0  0  0  0  0
   -8.1966   -1.0155   -0.9986 C   0  0  0  0  0  0  0  0  0  0  0  0
    3.1257    0.9131   -0.7299 H   0  0  0  0  0  0  0  0  0  0  0  0
    3.2263    1.1823    1.0118 H   0  0  0  0  0  0  0  0  0  0  0  0
    4.4260   -1.2265   -0.4451 H   0  0  0  0  0  0  0  0  0  0  0  0
    4.5688   -0.8967    1.2788 H   0  0  0  0  0  0  0  0  0  0  0  0
    1.9227   -1.2450   -0.3445 H   0  0  0  0  0  0  0  0  0  0  0  0
    2.0412   -1.0074    1.4006 H   0  0  0  0  0  0  0  0  0  0  0  0
    5.6400    0.9194   -0.9367 H   0  0  0  0  0  0  0  0  0  0  0  0
    5.8307    1.1874    0.7933 H   0  0  0  0  0  0  0  0  0  0  0  0
    0.7279    1.1217    1.1920 H   0  0  0  0  0  0  0  0  0  0  0  0
    0.5964    0.8646   -0.5451 H   0  0  0  0  0  0  0  0  0  0  0  0
    7.1398   -0.9490    0.9693 H   0  0  0  0  0  0  0  0  0  0  0  0
    6.9513   -1.1985   -0.7680 H   0  0  0  0  0  0  0  0  0  0  0  0
   -0.6260   -1.2796   -0.1212 H   0  0  0  0  0  0  0  0  0  0  0  0
   -0.5056   -0.9965    1.6082 H   0  0  0  0  0  0  0  0  0  0  0  0
    8.1322    0.9857   -1.1950 H   0  0  0  0  0  0  0  0  0  0  0  0
    8.3426    1.1985    0.5445 H   0  0  0  0  0  0  0  0  0  0  0  0
   -1.8650    1.0978    1.3371 H   0  0  0  0  0  0  0  0  0  0  0  0
   -2.0215    0.7539   -0.3818 H   0  0  0  0  0  0  0  0  0  0  0  0
    9.6484   -0.9492    0.6343 H   0  0  0  0  0  0  0  0  0  0  0  0
    9.4568   -1.1313   -1.1106 H   0  0  0  0  0  0  0  0  0  0  0  0
   -3.1786   -1.4137    0.1668 H   0  0  0  0  0  0  0  0  0  0  0  0
   -3.0392   -1.0469    1.8856 H   0  0  0  0  0  0  0  0  0  0  0  0
   10.6689    1.0264   -1.4773 H   0  0  0  0  0  0  0  0  0  0  0  0
   10.8386    1.2363    0.2669 H   0  0  0  0  0  0  0  0  0  0  0  0
   -4.4634    1.0110    1.5904 H   0  0  0  0  0  0  0  0  0  0  0  0
   -6.6954    1.6318    0.7625 H   0  0  0  0  0  0  0  0  0  0  0  0
   -7.9810   -0.5351    1.0914 H   0  0  0  0  0  0  0  0  0  0  0  0
   -5.3637   -0.7485   -0.7102 H   0  0  0  0  0  0  0  0  0  0  0  0
   12.1852   -0.8670    0.3979 H   0  0  0  0  0  0  0  0  0  0  0  0
   12.0153   -1.0818   -1.3555 H   0  0  0  0  0  0  0  0  0  0  0  0
   12.9094    0.3073   -0.7141 H   0  0  0  0  0  0  0  0  0  0  0  0
   -7.3870   -1.7509   -1.0100 H   0  0  0  0  0  0  0  0  0  0  0  0
   -8.2342   -0.5255   -1.9777 H   0  0  0  0  0  0  0  0  0  0  0  0
  -10.0095    0.3625    0.3036 H   0  0  0  0  0  0  0  0  0  0  0  0
   -9.0816    1.5340    0.9599 H   0  0  0  0  0  0  0  0  0  0  0  0
   -5.9597    2.0988   -1.3213 H   0  0  0  0  0  0  0  0  0  0  0  0
   -9.4876   -2.3576   -1.5563 H   0  0  0  0  0  0  0  0  0  0  0  0
  1 17  1  0  0  0  0
  1 57  1  0  0  0  0
  2 21  1  0  0  0  0
  2 58  1  0  0  0  0
  3 18  1  0  0  0  0
  3 55  1  0  0  0  0
  3 56  1  0  0  0  0
  4  5  1  0  0  0  0
  4  6  1  0  0  0  0
  4 22  1  0  0  0  0
  4 23  1  0  0  0  0
  5  7  1  0  0  0  0
  5 24  1  0  0  0  0
  5 25  1  0  0  0  0
  6  8  1  0  0  0  0
  6 26  1  0  0  0  0
  6 27  1  0  0  0  0
  7  9  1  0  0  0  0
  7 28  1  0  0  0  0
  7 29  1  0  0  0  0
  8 10  1  0  0  0  0
  8 30  1  0  0  0  0
  8 31  1  0  0  0  0
  9 11  1  0  0  0  0
  9 32  1  0  0  0  0
  9 33  1  0  0  0  0
 10 12  1  0  0  0  0
 10 34  1  0  0  0  0
 10 35  1  0  0  0  0
 11 13  1  0  0  0  0
 11 36  1  0  0  0  0
 11 37  1  0  0  0  0
 12 14  1  0  0  0  0
 12 38  1  0  0  0  0
 12 39  1  0  0  0  0
 13 15  1  0  0  0  0
 13 40  1  0  0  0  0
 13 41  1  0  0  0  0
 14 16  1  0  0  0  0
 14 42  1  0  0  0  0
 14 43  1  0  0  0  0
 15 20  1  0  0  0  0
 15 44  1  0  0  0  0
 15 45  1  0  0  0  0
 16 19  2  0  0  0  0
 16 46  1  0  0  0  0
 17 18  1  0  0  0  0
 17 19  1  0  0  0  0
 17 47  1  0  0  0  0
 18 21  1  0  0  0  0
 18 48  1  0  0  0  0
 19 49  1  0  0  0  0
 20 50  1  0  0  0  0
 20 51  1  0  0  0  0
 20 52  1  0  0  0  0
 21 53  1  0  0  0  0
 21 54  1  0  0  0  0
M  END
> <DATABASE_ID>
DB03203

> <DATABASE_NAME>
drugbank

> <ORIGINAL_SOURCE>
PUBCHEM

> <ORIGINAL_SOURCE_URL>
https://pubchem.ncbi.nlm.nih.gov/rest/pug/compound/inchikey/WWUZIQQURGPMPG-KRWOKUGFSA-N/SDF?record_type=3d

> <SMILES>
[H]\C(CCCCCCCCCCCCC)=C(\[H])[C@@]([H])(O)[C@@]([H])(N)CO

> <INCHI_IDENTIFIER>
InChI=1S/C18H37NO2/c1-2-3-4-5-6-7-8-9-10-11-12-13-14-15-18(21)17(19)16-20/h14-15,17-18,20-21H,2-13,16,19H2,1H3/b15-14+/t17-,18+/m0/s1

> <INCHI_KEY>
WWUZIQQURGPMPG-KRWOKUGFSA-N

> <FORMULA>
C18H37NO2

> <MOLECULAR_WEIGHT>
299.4919

> <EXACT_MASS>
299.282429433

> <JCHEM_ACCEPTOR_COUNT>
3

> <JCHEM_AVERAGE_POLARIZABILITY>
39.37106203313999

> <JCHEM_BIOAVAILABILITY>
1

> <JCHEM_DONOR_COUNT>
3

> <JCHEM_FORMAL_CHARGE>
0

> <JCHEM_GHOSE_FILTER>
1

> <JCHEM_IUPAC>
(2S,3R,4E)-2-aminooctadec-4-ene-1,3-diol

> <ALOGPS_LOGP>
5.15

> <JCHEM_LOGP>
4.5665800486666654

> <ALOGPS_LOGS>
-4.89

> <JCHEM_MDDR_LIKE_RULE>
0

> <JCHEM_NUMBER_OF_RINGS>
0

> <JCHEM_PHYSIOLOGICAL_CHARGE>
1

> <JCHEM_PKA>
15.19039459699287

> <JCHEM_PKA_STRONGEST_ACIDIC>
14.116140546669914

> <JCHEM_PKA_STRONGEST_BASIC>
9.234294901231742

> <JCHEM_POLAR_SURFACE_AREA>
66.48

> <JCHEM_REFRACTIVITY>
91.89199999999998

> <JCHEM_ROTATABLE_BOND_COUNT>
15

> <JCHEM_RULE_OF_FIVE>
1

> <ALOGPS_SOLUBILITY>
3.90e-03 g/l

> <JCHEM_TRADITIONAL_IUPAC>
sphingosine

> <JCHEM_VEBER_RULE>
0

> <DRUGBANK_ID>
DB03203

> <SECONDARY_ACCESSION_NUMBERS>
EXPT02945

> <DRUG_GROUPS>
experimental

> <GENERIC_NAME>
Sphingosine

$$$$
