REMARK  Name = 5687
REMARK  4 active torsions:
REMARK  status: ('A' for Active; 'I' for Inactive)
REMARK    1  A    between atoms: N_1  and  C_13
REMARK    2  A    between atoms: C_8  and  O_21
REMARK    3  A    between atoms: C_10  and  O_23
REMARK    4  A    between atoms: C_16  and  O_19
REMARK                            x       y       z     vdW  Elec       q    Type
REMARK                         _______ _______ _______ _____ _____    ______ ____
ROOT
ATOM      1  N   UNL     1       1.355   0.140   0.433  0.00  0.00    -0.301 N 
ATOM      2  N   UNL     1      -1.504  -2.818  -0.013  0.00  0.00    -0.248 NA
ATOM      3  N   UNL     1       0.789  -2.138   0.272  0.00  0.00    -0.233 NA
ATOM      4  C   UNL     1      -0.971  -0.486   0.147  0.00  0.00    +0.119 C 
ATOM      5  C   UNL     1      -1.896  -1.532  -0.001  0.00  0.00    +0.070 C 
ATOM      6  C   UNL     1       0.364  -0.861   0.279  0.00  0.00    +0.115 C 
ATOM      7  C   UNL     1      -1.391   0.856   0.158  0.00  0.00    +0.027 C 
ATOM      8  C   UNL     1      -2.741   1.163   0.020  0.00  0.00    +0.169 C 
ATOM      9  C   UNL     1      -3.241  -1.196  -0.137  0.00  0.00    +0.055 C 
ATOM     10  C   UNL     1      -3.667   0.136  -0.127  0.00  0.00    +0.173 C 
ATOM     11  C   UNL     1      -0.183  -3.051   0.124  0.00  0.00    +0.251 C 
ATOM     12  H   UNL     1       1.032   0.953   0.886  0.00  0.00    +0.153 HD
ENDROOT
BRANCH   1  13
ATOM     13  C   UNL     1       2.708   0.198   0.064  0.00  0.00    +0.052 C 
ATOM     14  C   UNL     1       3.612   0.953   0.817  0.00  0.00    +0.051 C 
ATOM     15  C   UNL     1       3.162  -0.500  -1.060  0.00  0.00    +0.015 C 
ATOM     16  C   UNL     1       4.957   1.010   0.451  0.00  0.00    +0.135 C 
ATOM     17  C   UNL     1       4.507  -0.443  -1.426  0.00  0.00    +0.004 C 
ATOM     18  C   UNL     1       5.404   0.312  -0.671  0.00  0.00    +0.037 C 
BRANCH  16  19
ATOM     19  O   UNL     1       5.832   1.748   1.187  0.00  0.00    -0.505 OA
ATOM     20  H   UNL     1       5.531   2.217   1.941  0.00  0.00    +0.292 HD
ENDBRANCH  16  19
ENDBRANCH   1  13
BRANCH   8  21
ATOM     21  O   UNL     1      -3.142   2.464   0.033  0.00  0.00    -0.469 OA
ATOM     22  C   UNL     1      -3.194   3.139  -1.223  0.00  0.00    +0.253 C 
ENDBRANCH   8  21
BRANCH  10  23
ATOM     23  O   UNL     1      -4.994   0.413  -0.263  0.00  0.00    -0.468 OA
ATOM     24  C   UNL     1      -5.765   0.491   0.934  0.00  0.00    +0.253 C 
ENDBRANCH  10  23
TORSDOF 4
