REMARK  Name = 445340
REMARK  8 active torsions:
REMARK  status: ('A' for Active; 'I' for Inactive)
REMARK    1  A    between atoms: C_2  and  O_7
REMARK    2  A    between atoms: C_3  and  O_9
REMARK    3  A    between atoms: C_4  and  O_11
REMARK    4  A    between atoms: C_5  and  C_23
REMARK    5  A    between atoms: C_6  and  O_13
REMARK    6  A    between atoms: O_13  and  C_14
REMARK    7  A    between atoms: C_19  and  N_20
REMARK    8  A    between atoms: C_23  and  O_24
REMARK                            x       y       z     vdW  Elec       q    Type
REMARK                         _______ _______ _______ _____ _____    ______ ____
ROOT
ATOM      1  O   UNL     1      -0.799   0.589   0.919  0.00  0.00    -0.316 OA
ATOM      2  C   UNL     1      -2.846  -0.633  -0.693  0.00  0.00    +0.173 C 
ATOM      3  C   UNL     1      -2.778   0.882  -0.486  0.00  0.00    +0.169 C 
ATOM      4  C   UNL     1      -2.193  -1.357   0.484  0.00  0.00    +0.210 C 
ATOM      5  C   UNL     1      -1.334   1.315  -0.199  0.00  0.00    +0.177 C 
ATOM      6  C   UNL     1      -0.777  -0.828   0.725  0.00  0.00    +0.318 C 
ENDROOT
BRANCH   2   7
ATOM      7  O   UNL     1      -4.204  -1.050  -0.806  0.00  0.00    -0.379 OA
ATOM      8  H   UNL     1      -4.621  -0.592  -1.553  0.00  0.00    +0.211 HD
ENDBRANCH   2   7
BRANCH   3   9
ATOM      9  O   UNL     1      -3.600   1.250   0.624  0.00  0.00    -0.379 OA
ATOM     10  H   UNL     1      -4.516   0.980   0.451  0.00  0.00    +0.211 HD
ENDBRANCH   3   9
BRANCH   4  11
ATOM     11  O   UNL     1      -2.135  -2.757   0.233  0.00  0.00    -0.377 OA
ATOM     12  H   UNL     1      -3.031  -3.096   0.080  0.00  0.00    +0.211 HD
ENDBRANCH   4  11
BRANCH   6  13
ATOM     13  O   UNL     1       0.079  -1.203  -0.353  0.00  0.00    -0.451 OA
BRANCH  13  14
ATOM     14  C   UNL     1       1.387  -0.813  -0.261  0.00  0.00    +0.141 C 
ATOM     15  C   UNL     1       2.163  -1.246   0.811  0.00  0.00    +0.038 C 
ATOM     16  C   UNL     1       1.932   0.013  -1.239  0.00  0.00    +0.038 C 
ATOM     17  C   UNL     1       3.496  -0.847   0.905  0.00  0.00    +0.017 C 
ATOM     18  C   UNL     1       3.265   0.412  -1.144  0.00  0.00    +0.017 C 
ATOM     19  C   UNL     1       4.047  -0.018  -0.072  0.00  0.00    +0.042 C 
BRANCH  19  20
ATOM     20  N   UNL     1       5.396   0.384   0.023  0.00  0.00    -0.357 N 
ATOM     21  H   UNL     1       5.948   0.081   0.780  0.00  0.00    +0.142 HD
ATOM     22  H   UNL     1       5.785   0.968  -0.667  0.00  0.00    +0.142 HD
ENDBRANCH  19  20
ENDBRANCH  13  14
ENDBRANCH   6  13
BRANCH   5  23
ATOM     23  C   UNL     1      -1.228   2.800   0.134  0.00  0.00    +0.169 C 
BRANCH  23  24
ATOM     24  O   UNL     1       0.130   3.108   0.395  0.00  0.00    -0.379 OA
ATOM     25  H   UNL     1       0.212   4.050   0.608  0.00  0.00    +0.211 HD
ENDBRANCH  23  24
ENDBRANCH   5  23
TORSDOF 8
