REMARK  Name = 4478249
REMARK  3 active torsions:
REMARK  status: ('A' for Active; 'I' for Inactive)
REMARK    1  A    between atoms: N_2  and  C_8
REMARK    2  A    between atoms: C_8  and  C_9
REMARK    3  A    between atoms: C_9  and  S_10
REMARK                            x       y       z     vdW  Elec       q    Type
REMARK                         _______ _______ _______ _____ _____    ______ ____
ROOT
ATOM      1  O   UNL     1       3.781   0.355  -0.222  0.00  0.00    -0.358 OA
ATOM      2  N   UNL     1       1.052  -0.275   0.228  0.00  0.00    +0.392 N 
ATOM      3  C   UNL     1       1.471   1.087  -0.274  0.00  0.00    -0.045 C 
ATOM      4  C   UNL     1       2.042  -1.332  -0.203  0.00  0.00    -0.045 C 
ATOM      5  C   UNL     1       2.878   1.367   0.227  0.00  0.00    +0.119 C 
ATOM      6  C   UNL     1       3.420  -0.926   0.294  0.00  0.00    +0.119 C 
ATOM      7  H   UNL     1       1.055  -0.244   1.247  0.00  0.00    -0.079 HD
ENDROOT
BRANCH   2   8
ATOM      8  C   UNL     1      -0.353  -0.618  -0.177  0.00  0.00    -0.051 C 
BRANCH   8   9
ATOM      9  C   UNL     1      -1.322   0.405   0.380  0.00  0.00    +0.135 C 
BRANCH   9  10
ATOM     10  S   UNL     1      -3.004   0.037  -0.008  0.00  0.00    +0.020 S 
ATOM     11  O   UNL     1      -3.209  -1.274   0.608  0.00  0.00    -0.070 OA
ATOM     12  O   UNL     1      -3.739   1.135   0.618  0.00  0.00    -0.070 OA
ATOM     13  O   UNL     1      -3.017   0.040  -1.470  0.00  0.00    -0.070 OA
ENDBRANCH   9  10
ENDBRANCH   8   9
ENDBRANCH   2   8
TORSDOF 3
