REMARK  Name = 445707
REMARK  15 active torsions:
REMARK  status: ('A' for Active; 'I' for Inactive)
REMARK    1  A    between atoms: CA_1  and  N_3
REMARK    2  A    between atoms: CA_1  and  C_19
REMARK    3  A    between atoms: CA_1  and  CB_26
REMARK    4  A    between atoms: C_4  and  C_6
REMARK    5  A    between atoms: C_6  and  C_7
REMARK    6  A    between atoms: C_7  and  CA_8
REMARK    7  A    between atoms: CA_8  and  N_9
REMARK    8  A    between atoms: CA_8  and  C_14
REMARK    9  A    between atoms: C_14  and  O_15
REMARK   10  A    between atoms: N_18  and  CA_21
REMARK   11  A    between atoms: CA_21  and  C_23
REMARK   12  A    between atoms: C_23  and  O_24
REMARK   13  A    between atoms: CB_26  and  SG_27
REMARK   14  A    between atoms: SG_27  and  C_28
REMARK   15  A    between atoms: C_28  and  C_29
REMARK                            x       y       z     vdW  Elec       q    Type
REMARK                         _______ _______ _______ _____ _____    ______ ____
ROOT
ATOM      1  CA  UNL     1       0.089  -1.840   0.881  0.00  0.00    +0.159 C 
ENDROOT
BRANCH   1   3
ATOM      2  O   UNL     1       2.677  -1.302   2.040  0.00  0.00    -0.275 OA
ATOM      3  N   UNL     1       1.258  -1.331   0.201  0.00  0.00    -0.298 N 
ATOM      4  C   UNL     1       2.464  -1.103   0.847  0.00  0.00    +0.223 C 
ATOM      5  H   UNL     1       1.195  -1.137  -0.762  0.00  0.00    +0.150 HD
BRANCH   4   6
ATOM      6  C   UNL     1       3.514  -0.559  -0.107  0.00  0.00    +0.083 C 
BRANCH   6   7
ATOM      7  C   UNL     1       4.854  -0.301   0.586  0.00  0.00    -0.001 C 
BRANCH   7   8
ATOM      8  CA  UNL     1       5.941   0.179  -0.382  0.00  0.00    +0.036 C 
BRANCH   8   9
ATOM      9  N   UNL     1       7.188   0.403   0.355  0.00  0.00    +0.389 N 
ATOM     10  H1  UNL     1       7.480  -0.466   0.802  0.00  0.00    -0.088 HD
ATOM     11  H2  UNL     1       7.038   1.118   1.067  0.00  0.00    -0.088 HD
ATOM     12  H3  UNL     1       7.913   0.714  -0.291  0.00  0.00    -0.088 HD
ENDBRANCH   8   9
BRANCH   8  14
ATOM     13  OXT UNL     1       5.788   2.607  -0.530  0.00  0.00    -0.253 OA
ATOM     14  C   UNL     1       5.567   1.506  -1.018  0.00  0.00    +0.293 C 
BRANCH  14  15
ATOM     15  O   UNL     1       4.922   1.344  -2.202  0.00  0.00    -0.482 OA
ATOM     16  H   UNL     1       4.772   0.484  -2.541  0.00  0.00    +0.295 HD
ENDBRANCH  14  15
ENDBRANCH   8  14
ENDBRANCH   7   8
ENDBRANCH   6   7
ENDBRANCH   4   6
ENDBRANCH   1   3
BRANCH   1  19
ATOM     17  O   UNL     1      -0.381  -2.885  -1.258  0.00  0.00    -0.273 OA
ATOM     18  N   UNL     1      -1.763  -3.362   0.543  0.00  0.00    -0.294 N 
ATOM     19  C   ACE A   1      -0.683  -2.746  -0.075  0.00  0.00    +0.242 C 
ATOM     20  H   UNL     1      -1.923  -3.187   1.499  0.00  0.00    +0.150 HD
BRANCH  18  21
ATOM     21  CA  UNL     1      -2.662  -4.247  -0.160  0.00  0.00    +0.200 C 
BRANCH  21  23
ATOM     22  OXT UNL     1      -4.713  -4.097  -1.409  0.00  0.00    -0.248 OA
ATOM     23  C   UNL     1      -3.832  -3.527  -0.778  0.00  0.00    +0.334 C 
BRANCH  23  24
ATOM     24  O   UNL     1      -3.816  -2.190  -0.569  0.00  0.00    -0.479 OA
ATOM     25  H   UNL     1      -3.119  -1.801  -0.079  0.00  0.00    +0.295 HD
ENDBRANCH  23  24
ENDBRANCH  21  23
ENDBRANCH  18  21
ENDBRANCH   1  19
BRANCH   1  26
ATOM     26  CB  UNL     1      -0.766  -0.724   1.485  0.00  0.00    +0.087 C 
BRANCH  26  27
ATOM     27  SG  UNL     1      -1.466   0.416   0.246  0.00  0.00    -0.133 S 
BRANCH  27  28
ATOM     28  C   UNL     1      -2.286   1.556   1.382  0.00  0.00    +0.084 C 
BRANCH  28  29
ATOM     29  C   UNL     1      -2.993   2.668   0.658  0.00  0.00    -0.011 C 
ATOM     30  C   UNL     1      -4.324   2.513   0.272  0.00  0.00    -0.003 C 
ATOM     31  C   UNL     1      -2.318   3.856   0.374  0.00  0.00    -0.003 C 
ATOM     32  C   UNL     1      -4.981   3.545  -0.400  0.00  0.00    -0.000 C 
ATOM     33  C   UNL     1      -2.974   4.887  -0.298  0.00  0.00    -0.000 C 
ATOM     34  C   UNL     1      -4.305   4.732  -0.684  0.00  0.00    -0.000 C 
ENDBRANCH  28  29
ENDBRANCH  27  28
ENDBRANCH  26  27
ENDBRANCH   1  26
TORSDOF 15
