6503
  -OEChem-10051720213D

 19 18  0     0  0  0  0  0  0999 V2000
    0.0280   -2.1555    0.0907 O   0  0  0  0  0  0  0  0  0  0  0  0
    2.4391    0.3839    0.0634 O   0  0  0  0  0  0  0  0  0  0  0  0
   -2.4461    0.3527    0.0680 O   0  0  0  0  0  0  0  0  0  0  0  0
   -0.0167    1.3581   -1.0446 N   0  0  0  0  0  0  0  0  0  0  0  0
   -0.0027    0.2759   -0.0470 C   0  0  0  0  0  0  0  0  0  0  0  0
    0.0035   -1.0600   -0.8172 C   0  0  0  0  0  0  0  0  0  0  0  0
    1.2498    0.4289    0.8430 C   0  0  0  0  0  0  0  0  0  0  0  0
   -1.2550    0.4160    0.8439 C   0  0  0  0  0  0  0  0  0  0  0  0
   -0.8920   -1.1610   -1.4414 H   0  0  0  0  0  0  0  0  0  0  0  0
    0.8746   -1.1451   -1.4766 H   0  0  0  0  0  0  0  0  0  0  0  0
    1.3051   -0.3560    1.6055 H   0  0  0  0  0  0  0  0  0  0  0  0
    1.2408    1.3913    1.3676 H   0  0  0  0  0  0  0  0  0  0  0  0
   -1.2582    1.3690    1.3859 H   0  0  0  0  0  0  0  0  0  0  0  0
   -1.3004   -0.3843    1.5902 H   0  0  0  0  0  0  0  0  0  0  0  0
    0.8372    1.3228   -1.6008 H   0  0  0  0  0  0  0  0  0  0  0  0
   -0.0087    2.2620   -0.5732 H   0  0  0  0  0  0  0  0  0  0  0  0
    0.0276   -2.9684   -0.4429 H   0  0  0  0  0  0  0  0  0  0  0  0
    2.5768   -0.5378   -0.2123 H   0  0  0  0  0  0  0  0  0  0  0  0
   -2.3919    1.0543   -0.6031 H   0  0  0  0  0  0  0  0  0  0  0  0
  1  6  1  0  0  0  0
  1 17  1  0  0  0  0
  2  7  1  0  0  0  0
  2 18  1  0  0  0  0
  3  8  1  0  0  0  0
  3 19  1  0  0  0  0
  4  5  1  0  0  0  0
  4 15  1  0  0  0  0
  4 16  1  0  0  0  0
  5  6  1  0  0  0  0
  5  7  1  0  0  0  0
  5  8  1  0  0  0  0
  6  9  1  0  0  0  0
  6 10  1  0  0  0  0
  7 11  1  0  0  0  0
  7 12  1  0  0  0  0
  8 13  1  0  0  0  0
  8 14  1  0  0  0  0
M  END
> <DATABASE_ID>
DB03754

> <DATABASE_NAME>
drugbank

> <ORIGINAL_SOURCE>
PUBCHEM

> <ORIGINAL_SOURCE_URL>
https://pubchem.ncbi.nlm.nih.gov/rest/pug/compound/inchikey/LENZDBCJOHFCAS-UHFFFAOYSA-N/SDF?record_type=3d

> <SMILES>
NC(CO)(CO)CO

> <INCHI_IDENTIFIER>
InChI=1S/C4H11NO3/c5-4(1-6,2-7)3-8/h6-8H,1-3,5H2

> <INCHI_KEY>
LENZDBCJOHFCAS-UHFFFAOYSA-N

> <FORMULA>
C4H11NO3

> <MOLECULAR_WEIGHT>
121.135

> <EXACT_MASS>
121.073893223

> <JCHEM_ACCEPTOR_COUNT>
4

> <JCHEM_AVERAGE_POLARIZABILITY>
12.02050315198315

> <JCHEM_BIOAVAILABILITY>
1

> <JCHEM_DONOR_COUNT>
4

> <JCHEM_FORMAL_CHARGE>
0

> <JCHEM_GHOSE_FILTER>
0

> <JCHEM_IUPAC>
2-amino-2-(hydroxymethyl)propane-1,3-diol

> <ALOGPS_LOGP>
-2.08

> <JCHEM_LOGP>
-2.7122291176666664

> <ALOGPS_LOGS>
0.76

> <JCHEM_MDDR_LIKE_RULE>
0

> <JCHEM_NUMBER_OF_RINGS>
0

> <JCHEM_PHYSIOLOGICAL_CHARGE>
1

> <JCHEM_PKA>
14.735411337524845

> <JCHEM_PKA_STRONGEST_ACIDIC>
14.16415600582405

> <JCHEM_PKA_STRONGEST_BASIC>
8.953961646231539

> <JCHEM_POLAR_SURFACE_AREA>
86.71000000000001

> <JCHEM_REFRACTIVITY>
28.3555

> <JCHEM_ROTATABLE_BOND_COUNT>
3

> <JCHEM_RULE_OF_FIVE>
1

> <ALOGPS_SOLUBILITY>
6.95e+02 g/l

> <JCHEM_TRADITIONAL_IUPAC>
tris buffer

> <JCHEM_VEBER_RULE>
0

> <DRUGBANK_ID>
DB03754

> <SECONDARY_ACCESSION_NUMBERS>
EXPT03072

> <DRUG_GROUPS>
approved

> <GENERIC_NAME>
Tromethamine

> <SYNONYMS>
1,1,1-tris(hydroxymethyl)methanamine; 2-Amino-2-(hydroxymethyl)-1,3-propanediol; aminotris(hydroxymethyl)methane; THAM; Tris; Tris(hydroxymethyl)aminomethane; Trometamol; Tromethamine

> <PRODUCTS>
Sooryehan Hyo Fermented Sun Block; Tham; Tham Solution 36mg/ml

$$$$
