REMARK  Name = 5558
REMARK  0 active torsions:
REMARK  status: ('A' for Active; 'I' for Inactive)
REMARK                            x       y       z     vdW  Elec       q    Type
REMARK                         _______ _______ _______ _____ _____    ______ ____
ROOT
ATOM      1 BR   UNL     1      -0.089   1.861   0.139  0.00  0.00    -0.056 Br
ATOM      2 BR   UNL     1       1.656  -0.853   0.139  0.00  0.00    -0.056 Br
ATOM      3 BR   UNL     1      -1.567  -1.007   0.139  0.00  0.00    -0.056 Br
ATOM      4  C   UNL     1       0.000   0.000  -0.417  0.00  0.00    +0.169 C 
ENDROOT
TORSDOF 0
