REMARK  Name = 5288136
REMARK  8 active torsions:
REMARK  status: ('A' for Active; 'I' for Inactive)
REMARK    1  A    between atoms: C_1  and  O_2
REMARK    2  A    between atoms: C_1  and  C_4
REMARK    3  A    between atoms: C_1  and  C_11
REMARK    4  A    between atoms: C_4  and  C_5
REMARK    5  A    between atoms: C_5  and  C_8
REMARK    6  A    between atoms: C_5  and  O_9
REMARK    7  A    between atoms: C_11  and  C_14
REMARK    8  A    between atoms: C_11  and  O_15
REMARK                            x       y       z     vdW  Elec       q    Type
REMARK                         _______ _______ _______ _____ _____    ______ ____
ROOT
ATOM      1  C   UNL     1      -0.385  -0.400   0.742  0.00  0.00    +0.151 C 
ENDROOT
BRANCH   1   2
ATOM      2  O   UNL     1      -1.121  -1.163   1.705  0.00  0.00    -0.381 OA
ATOM      3  H   UNL     1      -0.553  -1.353   2.468  0.00  0.00    +0.210 HD
ENDBRANCH   1   2
BRANCH   1   4
ATOM      4  C   UNL     1       0.882  -1.201   0.402  0.00  0.00    +0.073 C 
BRANCH   4   5
ATOM      5  C   UNL     1       1.863  -0.494  -0.531  0.00  0.00    +0.216 C 
BRANCH   5   8
ATOM      6  O   UNL     1       2.881   0.925   1.079  0.00  0.00    -0.243 OA
ATOM      7  O   UNL     1       2.162   1.816  -0.898  0.00  0.00    -0.243 OA
ATOM      8  C   UNL     1       2.347   0.884  -0.064  0.00  0.00    +0.391 C 
ENDBRANCH   5   8
BRANCH   5   9
ATOM      9  O   UNL     1       3.033  -1.305  -0.661  0.00  0.00    -0.374 OA
ATOM     10  H   UNL     1       2.779  -2.194  -0.957  0.00  0.00    +0.211 HD
ENDBRANCH   5   9
ENDBRANCH   4   5
ENDBRANCH   1   4
BRANCH   1  11
ATOM     11  C   UNL     1      -1.289  -0.103  -0.460  0.00  0.00    +0.241 C 
BRANCH  11  14
ATOM     12  O   UNL     1      -2.563   1.406   0.845  0.00  0.00    -0.243 OA
ATOM     13  O   UNL     1      -3.591   0.342  -0.892  0.00  0.00    -0.243 OA
ATOM     14  C   UNL     1      -2.611   0.623  -0.148  0.00  0.00    +0.394 C 
ENDBRANCH  11  14
BRANCH  11  15
ATOM     15  O   UNL     1      -1.609  -1.329  -1.119  0.00  0.00    -0.373 OA
ATOM     16  H   UNL     1      -0.791  -1.807  -1.327  0.00  0.00    +0.211 HD
ENDBRANCH  11  15
ENDBRANCH   1  11
TORSDOF 8
