REMARK  Name = 38
REMARK  5 active torsions:
REMARK  status: ('A' for Active; 'I' for Inactive)
REMARK    1  A    between atoms: C_1  and  C_5
REMARK    2  A    between atoms: C_1  and  C_10
REMARK    3  A    between atoms: C_5  and  C_7
REMARK    4  A    between atoms: C_7  and  O_8
REMARK    5  A    between atoms: C_10  and  O_11
REMARK                            x       y       z     vdW  Elec       q    Type
REMARK                         _______ _______ _______ _____ _____    ______ ____
ROOT
ATOM      1  C   UNL     1      -0.967  -0.004   0.453  0.00  0.00    +0.089 C 
ATOM      2  C   UNL     1      -1.996   1.135   0.485  0.00  0.00    +0.010 C 
ATOM      3  C   UNL     1      -0.917  -0.699   1.822  0.00  0.00    +0.010 C 
ENDROOT
BRANCH   1   5
ATOM      4  O   UNL     1       0.598   1.780  -0.167  0.00  0.00    -0.284 OA
ATOM      5  C   UNL     1       0.390   0.596   0.069  0.00  0.00    +0.249 C 
BRANCH   5   7
ATOM      6  O   UNL     1       1.501  -1.505   0.176  0.00  0.00    -0.242 OA
ATOM      7  C   UNL     1       1.588  -0.306   0.006  0.00  0.00    +0.373 C 
BRANCH   7   8
ATOM      8  O   UNL     1       2.676   0.407  -0.309  0.00  0.00    -0.475 OA
ATOM      9  H   UNL     1       2.613   1.336  -0.414  0.00  0.00    +0.295 HD
ENDBRANCH   7   8
ENDBRANCH   5   7
ENDBRANCH   1   5
BRANCH   1  10
ATOM     10  C   UNL     1      -1.385  -1.019  -0.632  0.00  0.00    +0.144 C 
BRANCH  10  11
ATOM     11  O   UNL     1      -1.488  -0.384  -1.901  0.00  0.00    -0.382 OA
ATOM     12  H   UNL     1      -1.751  -1.036  -2.569  0.00  0.00    +0.210 HD
ENDBRANCH  10  11
ENDBRANCH   1  10
TORSDOF 5
