REMARK  Name = 17753867
REMARK  5 active torsions:
REMARK  status: ('A' for Active; 'I' for Inactive)
REMARK    1  A    between atoms: C_1  and  C_3
REMARK    2  A    between atoms: C_1  and  C_5
REMARK    3  A    between atoms: C_1  and  C_8
REMARK    4  A    between atoms: C_5  and  O_6
REMARK    5  A    between atoms: C_8  and  C_9
REMARK                            x       y       z     vdW  Elec       q    Type
REMARK                         _______ _______ _______ _____ _____    ______ ____
ROOT
ATOM      1  C   UNL     1       1.482  -0.384  -0.137  0.00  0.00    +0.114 C 
ENDROOT
BRANCH   1   3
ATOM      2  I   UNL     1       4.135  -1.502   0.947  0.00  0.00    -0.074 I 
ATOM      3  C   UNL     1       2.780  -1.024  -0.664  0.00  0.00    +0.074 C 
ENDBRANCH   1   3
BRANCH   1   5
ATOM      4  O   UNL     1       1.991   1.940  -0.693  0.00  0.00    -0.250 OA
ATOM      5  C   UNL     1       1.681   1.101   0.144  0.00  0.00    +0.314 C 
BRANCH   5   6
ATOM      6  O   UNL     1       1.443   1.413   1.445  0.00  0.00    -0.480 OA
ATOM      7  H   UNL     1       1.209   0.740   2.053  0.00  0.00    +0.295 HD
ENDBRANCH   5   6
ENDBRANCH   1   5
BRANCH   1   8
ATOM      8  C   UNL     1       0.329  -0.509  -1.153  0.00  0.00    +0.038 C 
BRANCH   8   9
ATOM      9  C   UNL     1      -1.041  -0.334  -0.544  0.00  0.00    -0.022 C 
ATOM     10  C   UNL     1      -1.731  -1.441  -0.051  0.00  0.00    -0.004 C 
ATOM     11  C   UNL     1      -1.616   0.934  -0.475  0.00  0.00    -0.004 C 
ATOM     12  C   UNL     1      -2.998  -1.279   0.511  0.00  0.00    -0.000 C 
ATOM     13  C   UNL     1      -2.882   1.096   0.087  0.00  0.00    -0.000 C 
ATOM     14  C   UNL     1      -3.573  -0.011   0.581  0.00  0.00    -0.000 C 
ENDBRANCH   8   9
ENDBRANCH   1   8
TORSDOF 5
