REMARK  Name = 448564
REMARK  4 active torsions:
REMARK  status: ('A' for Active; 'I' for Inactive)
REMARK    1  A    between atoms: C_3  and  C_12
REMARK    2  A    between atoms: C_6  and  C_21
REMARK    3  A    between atoms: C_13  and  C_19
REMARK    4  A    between atoms: C_21  and  O_22
REMARK                            x       y       z     vdW  Elec       q    Type
REMARK                         _______ _______ _______ _____ _____    ______ ____
ROOT
ATOM      1 CL   UNL     1       5.237  -1.083   0.468  0.00  0.00    -0.082 Cl
ATOM      2  F   UNL     1       0.477  -2.756   0.374  0.00  0.00    -0.204 F 
ATOM      3  C   UNL     1       0.804  -0.453  -0.123  0.00  0.00    +0.048 C 
ATOM      4  C   UNL     1       1.677   0.623  -0.283  0.00  0.00    +0.011 C 
ATOM      5  C   UNL     1       1.302  -1.710   0.217  0.00  0.00    +0.142 C 
ATOM      6  C   UNL     1       3.048   0.442  -0.104  0.00  0.00    +0.086 C 
ATOM      7  C   UNL     1       2.674  -1.892   0.397  0.00  0.00    +0.041 C 
ATOM      8  C   UNL     1       3.547  -0.816   0.236  0.00  0.00    +0.066 C 
ENDROOT
BRANCH   3  12
ATOM      9 BR   UNL     1      -1.260   0.441   2.470  0.00  0.00    -0.046 Br
ATOM     10  N   UNL     1      -2.451  -0.177  -1.319  0.00  0.00    -0.244 N 
ATOM     11  N   UNL     1      -1.148  -0.434  -1.522  0.00  0.00    -0.169 NA
ATOM     12  C   UNL     1      -0.607  -0.262  -0.310  0.00  0.00    +0.111 A 
ATOM     13  C   UNL     1      -2.754   0.150  -0.029  0.00  0.00    +0.157 A 
ATOM     14  C   UNL     1      -1.566   0.103   0.659  0.00  0.00    +0.075 A 
ATOM     15  C   UNL     1      -3.369  -0.264  -2.431  0.00  0.00    +0.154 C 
BRANCH  13  19
ATOM     16  F   UNL     1      -4.212   0.768   1.738  0.00  0.00    -0.164 F 
ATOM     17  F   UNL     1      -4.666   1.541  -0.243  0.00  0.00    -0.164 F 
ATOM     18  F   UNL     1      -4.987  -0.569   0.201  0.00  0.00    -0.164 F 
ATOM     19  C   UNL     1      -4.127   0.469   0.409  0.00  0.00    +0.435 C 
ENDBRANCH  13  19
ENDBRANCH   3  12
BRANCH   6  21
ATOM     20  O   UNL     1       4.835   1.678  -1.105  0.00  0.00    -0.245 OA
ATOM     21  C   UNL     1       3.922   1.595  -0.280  0.00  0.00    +0.339 C 
BRANCH  21  22
ATOM     22  O   UNL     1       3.624   2.606   0.580  0.00  0.00    -0.477 OA
ATOM     23  H   UNL     1       2.922   2.507   1.193  0.00  0.00    +0.295 HD
ENDBRANCH  21  22
ENDBRANCH   6  21
TORSDOF 4
