REMARK  Name = 444475
REMARK  4 active torsions:
REMARK  status: ('A' for Active; 'I' for Inactive)
REMARK    1  A    between atoms: C_7  and  C_16
REMARK    2  A    between atoms: C_16  and  O_17
REMARK    3  A    between atoms: C_16  and  C_19
REMARK    4  A    between atoms: C_19  and  O_21
REMARK                            x       y       z     vdW  Elec       q    Type
REMARK                         _______ _______ _______ _____ _____    ______ ____
ROOT
ATOM      1  O   UNL     1       1.042   2.495  -0.325  0.00  0.00    -0.206 OA
ATOM      2  N   UNL     1      -0.620   0.405  -0.326  0.00  0.00    -0.391 NA
ATOM      3  N   UNL     1       0.488  -2.149   0.037  0.00  0.00    -0.246 NA
ATOM      4  N   UNL     1       2.655  -1.125   0.192  0.00  0.00    -0.259 N 
ATOM      5  N   UNL     1       2.934   1.233   0.007  0.00  0.00    -0.300 NA
ATOM      6  N   UNL     1       4.753  -0.207   0.348  0.00  0.00    -0.320 N 
ATOM      7  C   UNL     1      -1.381  -0.705  -0.312  0.00  0.00    +0.141 C 
ATOM      8  C   UNL     1       0.702   0.203  -0.155  0.00  0.00    +0.255 C 
ATOM      9  C   UNL     1       1.270  -1.048   0.025  0.00  0.00    +0.173 C 
ATOM     10  C   UNL     1      -0.837  -1.958  -0.134  0.00  0.00    +0.183 C 
ATOM     11  C   UNL     1       1.571   1.400  -0.165  0.00  0.00    +0.240 C 
ATOM     12  C   UNL     1       3.412   0.026   0.173  0.00  0.00    +0.249 C 
ATOM     13  H   UNL     1       3.089  -1.999   0.322  0.00  0.00    +0.157 HD
ATOM     14  H   UNL     1       5.081  -1.127   0.470  0.00  0.00    +0.146 HD
ATOM     15  H   UNL     1       5.387   0.546   0.352  0.00  0.00    +0.146 HD
ENDROOT
BRANCH   7  16
ATOM     16  C   UNL     1      -2.849  -0.537  -0.496  0.00  0.00    +0.187 C 
BRANCH  16  17
ATOM     17  O   UNL     1      -3.122  -0.033  -1.815  0.00  0.00    -0.376 OA
ATOM     18  H   UNL     1      -4.079   0.074  -1.928  0.00  0.00    +0.211 HD
ENDBRANCH  16  17
BRANCH  16  19
ATOM     19  C   UNL     1      -3.559   0.380   0.533  0.00  0.00    +0.144 C 
ATOM     20  C   UNL     1      -3.393  -0.093   1.971  0.00  0.00    +0.035 C 
BRANCH  19  21
ATOM     21  O   UNL     1      -3.065   1.715   0.442  0.00  0.00    -0.382 OA
ATOM     22  H   UNL     1      -3.163   2.034  -0.468  0.00  0.00    +0.210 HD
ENDBRANCH  19  21
ENDBRANCH  16  19
ENDBRANCH   7  16
TORSDOF 4
