REMARK  Name = 5289232
REMARK  8 active torsions:
REMARK  status: ('A' for Active; 'I' for Inactive)
REMARK    1  A    between atoms: N_2  and  C_14
REMARK    2  A    between atoms: C_6  and  C_19
REMARK    3  A    between atoms: C_14  and  C_15
REMARK    4  A    between atoms: C_15  and  C_16
REMARK    5  A    between atoms: C_16  and  C_17
REMARK    6  A    between atoms: C_19  and  C_20
REMARK    7  A    between atoms: C_21  and  O_26
REMARK    8  A    between atoms: C_23  and  O_28
REMARK                            x       y       z     vdW  Elec       q    Type
REMARK                         _______ _______ _______ _____ _____    ______ ____
ROOT
ATOM      1  F   UNL     1       4.904   1.780   1.796  0.00  0.00    -0.098 F 
ATOM      2  N   UNL     1       1.038  -0.184   0.012  0.00  0.00    -0.238 N 
ATOM      3  N   UNL     1       0.525   1.566  -1.269  0.00  0.00    -0.383 NA
ATOM      4  N   UNL     1       3.072   0.643   1.052  0.00  0.00    -0.299 NA
ATOM      5  N   UNL     1       3.613   2.892   0.276  0.00  0.00    -0.300 NA
ATOM      6  C   UNL     1       0.168   0.354  -0.898  0.00  0.00    +0.170 C 
ATOM      7  C   UNL     1       2.014   0.746   0.234  0.00  0.00    +0.237 C 
ATOM      8  C   UNL     1       1.677   1.824  -0.569  0.00  0.00    +0.222 C 
ATOM      9  C   UNL     1       2.524   2.927  -0.529  0.00  0.00    +0.225 C 
ATOM     10  C   UNL     1       3.816   1.769   1.006  0.00  0.00    +0.300 C 
ATOM     11  N   UNL     1       2.260   4.063  -1.313  0.00  0.00    -0.330 N 
ATOM     12  H   UNL     1       2.866   4.838  -1.277  0.00  0.00    +0.145 HD
ATOM     13  H   UNL     1       1.468   4.084  -1.899  0.00  0.00    +0.145 HD
ENDROOT
BRANCH   2  14
ATOM     14  C   UNL     1       0.950  -1.489   0.624  0.00  0.00    +0.101 C 
BRANCH  14  15
ATOM     15  C   UNL     1       1.681  -2.557  -0.194  0.00  0.00    +0.036 C 
BRANCH  15  16
ATOM     16  C   UNL     1       1.604  -3.944   0.444  0.00  0.00    +0.079 C 
BRANCH  16  17
ATOM     17  C   UNL     1       2.292  -4.965  -0.359  0.00  0.00    -0.078 C 
ATOM     18  C   UNL     1       2.853  -5.801  -1.013  0.00  0.00    -0.014 C 
ENDBRANCH  16  17
ENDBRANCH  15  16
ENDBRANCH  14  15
ENDBRANCH   2  14
BRANCH   6  19
ATOM     19  C   UNL     1      -1.019  -0.382  -1.379  0.00  0.00    +0.105 C 
BRANCH  19  20
ATOM     20  C   UNL     1      -2.270  -0.150  -0.542  0.00  0.00    +0.023 C 
ATOM     21  C   UNL     1      -2.885  -1.218   0.077  0.00  0.00    +0.135 C 
ATOM     22  C   UNL     1      -2.751   1.139  -0.432  0.00  0.00    +0.036 C 
ATOM     23  C   UNL     1      -3.897   1.369   0.330  0.00  0.00    +0.139 C 
ATOM     24  C   UNL     1      -4.031  -0.988   0.839  0.00  0.00    +0.040 C 
ATOM     25  C   UNL     1      -4.536   0.305   0.966  0.00  0.00    +0.040 C 
BRANCH  21  26
ATOM     26  O   UNL     1      -2.405  -2.489  -0.036  0.00  0.00    -0.472 OA
ATOM     27  C   UNL     1      -3.122  -3.515   0.647  0.00  0.00    +0.252 C 
ENDBRANCH  21  26
BRANCH  23  28
ATOM     28  O   UNL     1      -4.389   2.632   0.454  0.00  0.00    -0.471 OA
ATOM     29  C   UNL     1      -3.686   3.673  -0.222  0.00  0.00    +0.252 C 
ENDBRANCH  23  28
ENDBRANCH  19  20
ENDBRANCH   6  19
TORSDOF 8
