REMARK  Name = 242831
REMARK  0 active torsions:
REMARK  status: ('A' for Active; 'I' for Inactive)
REMARK                            x       y       z     vdW  Elec       q    Type
REMARK                         _______ _______ _______ _____ _____    ______ ____
ROOT
ATOM      1  O   UNL     1      -0.669  -2.596   0.000  0.00  0.00    -0.209 OA
ATOM      2  N   UNL     1      -0.939   1.401   0.000  0.00  0.00    -0.275 N 
ATOM      3  N   UNL     1      -2.000  -0.731   0.000  0.00  0.00    -0.302 NA
ATOM      4  N   UNL     1      -3.229   1.265  -0.001  0.00  0.00    -0.320 N 
ATOM      5  C   UNL     1       0.340   0.842   0.000  0.00  0.00    +0.063 C 
ATOM      6  C   UNL     1       0.468  -0.553   0.000  0.00  0.00    +0.108 C 
ATOM      7  C   UNL     1       1.490   1.635   0.000  0.00  0.00    +0.015 C 
ATOM      8  C   UNL     1       1.730  -1.153   0.000  0.00  0.00    +0.014 C 
ATOM      9  C   UNL     1      -0.775  -1.373   0.000  0.00  0.00    +0.208 C 
ATOM     10  C   UNL     1      -2.041   0.577   0.000  0.00  0.00    +0.248 C 
ATOM     11  C   UNL     1       2.752   1.038   0.000  0.00  0.00    +0.001 C 
ATOM     12  C   UNL     1       2.872  -0.352   0.000  0.00  0.00    +0.001 C 
ATOM     13  H   UNL     1      -1.052   2.379   0.001  0.00  0.00    +0.156 HD
ATOM     14  H   UNL     1      -3.227   2.250  -0.001  0.00  0.00    +0.146 HD
ATOM     15  H   UNL     1      -4.082   0.775  -0.001  0.00  0.00    +0.146 HD
ENDROOT
TORSDOF 0
