REMARK  Name = 3266379
REMARK  5 active torsions:
REMARK  status: ('A' for Active; 'I' for Inactive)
REMARK    1  A    between atoms: C_8  and  O_17
REMARK    2  A    between atoms: C_10  and  C_21
REMARK    3  A    between atoms: C_13  and  O_19
REMARK    4  A    between atoms: C_21  and  C_23
REMARK    5  A    between atoms: C_23  and  O_24
REMARK                            x       y       z     vdW  Elec       q    Type
REMARK                         _______ _______ _______ _____ _____    ______ ____
ROOT
ATOM      1  O   UNL     1      -0.661   2.239  -0.270  0.00  0.00    -0.286 OA
ATOM      2  O   UNL     1      -1.564  -3.015   0.098  0.00  0.00    -0.287 OA
ATOM      3  C   UNL     1       0.253   0.074  -0.272  0.00  0.00    +0.075 C 
ATOM      4  C   UNL     1       0.016  -1.299  -0.177  0.00  0.00    +0.045 C 
ATOM      5  C   UNL     1      -2.238   0.523   0.009  0.00  0.00    +0.076 C 
ATOM      6  C   UNL     1      -2.474  -0.850   0.104  0.00  0.00    +0.045 C 
ATOM      7  C   UNL     1      -0.866   1.035  -0.184  0.00  0.00    +0.202 C 
ATOM      8  C   UNL     1       1.558   0.546  -0.453  0.00  0.00    +0.133 C 
ATOM      9  C   UNL     1      -1.357  -1.811   0.015  0.00  0.00    +0.196 C 
ATOM     10  C   UNL     1       2.620  -0.354  -0.537  0.00  0.00    +0.023 C 
ATOM     11  C   UNL     1       1.084  -2.199  -0.263  0.00  0.00    +0.003 C 
ATOM     12  C   UNL     1       2.384  -1.724  -0.443  0.00  0.00    -0.001 C 
ATOM     13  C   UNL     1      -3.306   1.424   0.095  0.00  0.00    +0.137 C 
ATOM     14  C   UNL     1      -3.780  -1.322   0.286  0.00  0.00    +0.003 C 
ATOM     15  C   UNL     1      -4.606   0.949   0.276  0.00  0.00    +0.037 C 
ATOM     16  C   UNL     1      -4.842  -0.421   0.372  0.00  0.00    +0.003 C 
ENDROOT
BRANCH   8  17
ATOM     17  O   UNL     1       1.844   1.877  -0.553  0.00  0.00    -0.506 OA
ATOM     18  H   UNL     1       1.155   2.510  -0.500  0.00  0.00    +0.292 HD
ENDBRANCH   8  17
BRANCH  13  19
ATOM     19  O   UNL     1      -3.148   2.775   0.009  0.00  0.00    -0.505 OA
ATOM     20  H   UNL     1      -2.293   3.140  -0.113  0.00  0.00    +0.292 HD
ENDBRANCH  13  19
BRANCH  10  21
ATOM     21  C   UNL     1       4.022   0.126  -0.730  0.00  0.00    +0.139 C 
BRANCH  21  23
ATOM     22  O   UNL     1       4.269   0.268   1.688  0.00  0.00    -0.250 OA
ATOM     23  C   UNL     1       4.753   0.385   0.571  0.00  0.00    +0.318 C 
BRANCH  23  24
ATOM     24  O   UNL     1       6.038   0.775   0.358  0.00  0.00    -0.480 OA
ATOM     25  H   UNL     1       6.366   0.851  -0.516  0.00  0.00    +0.295 HD
ENDBRANCH  23  24
ENDBRANCH  21  23
ENDBRANCH  10  21
TORSDOF 5
