REMARK  Name = 9085
REMARK  8 active torsions:
REMARK  status: ('A' for Active; 'I' for Inactive)
REMARK    1  A    between atoms: C_1  and  C_2
REMARK    2  A    between atoms: C_1  and  C_12
REMARK    3  A    between atoms: C_2  and  C_3
REMARK    4  A    between atoms: C_3  and  N_4
REMARK    5  A    between atoms: C_3  and  C_9
REMARK    6  A    between atoms: C_9  and  O_10
REMARK    7  A    between atoms: C_12  and  C_13
REMARK    8  A    between atoms: C_13  and  N_14
REMARK                            x       y       z     vdW  Elec       q    Type
REMARK                         _______ _______ _______ _____ _____    ______ ____
ROOT
ATOM      1  C   UNK     1       0.397   0.516  -0.265  0.00  0.00    +0.000 C 
ENDROOT
BRANCH   1   2
ATOM      2  C   UNK     1       1.702   0.859  -0.999  0.00  0.00    -0.011 C 
BRANCH   2   3
ATOM      3  C   UNK     1       2.832  -0.162  -0.799  0.00  0.00    +0.036 C 
BRANCH   3   4
ATOM      4  N   UNK     1       2.441  -1.492  -1.264  0.00  0.00    +0.389 N 
ATOM      5  H   UNK     1       2.152  -1.440  -2.241  0.00  0.00    -0.088 HD
ATOM      6  H   UNK     1       1.665  -1.836  -0.698  0.00  0.00    -0.088 HD
ATOM      7  H   UNK     1       3.233  -2.129  -1.177  0.00  0.00    -0.088 HD
ENDBRANCH   3   4
BRANCH   3   9
ATOM      8  O   UNK     1       3.209  -1.278   1.345  0.00  0.00    -0.253 OA
ATOM      9  C   UNK     1       3.255  -0.272   0.652  0.00  0.00    +0.293 C 
BRANCH   9  10
ATOM     10  O   UNK     1       3.723   0.921   1.102  0.00  0.00    -0.482 OA
ATOM     11  H   UNK     1       3.737   1.664   0.531  0.00  0.00    +0.295 HD
ENDBRANCH   9  10
ENDBRANCH   3   9
ENDBRANCH   2   3
ENDBRANCH   1   2
BRANCH   1  12
ATOM     12  C   UNK     1      -0.691   1.554  -0.566  0.00  0.00    +0.024 C 
BRANCH  12  13
ATOM     13  C   UNK     1      -2.007   1.238   0.136  0.00  0.00    +0.100 C 
BRANCH  13  14
ATOM     14  N   UNK     1      -2.521  -0.052  -0.326  0.00  0.00    -0.347 N 
ATOM     15  N   UNK     1      -4.214  -1.632  -0.229  0.00  0.00    -0.372 N 
ATOM     16  N   UNK     1      -4.464   0.233   1.057  0.00  0.00    -0.372 N 
ATOM     17  C   UNK     1      -3.663  -0.432   0.155  0.00  0.00    +0.167 C 
ATOM     18  H   UNK     1      -2.023  -0.605  -0.971  0.00  0.00    +0.163 HD
ATOM     19  H   UNK     1      -3.740  -2.207  -0.872  0.00  0.00    +0.159 HD
ATOM     20  H   UNK     1      -5.082  -1.916   0.140  0.00  0.00    +0.159 HD
ATOM     21  H   UNK     1      -4.184   1.108   1.413  0.00  0.00    +0.159 HD
ATOM     22  H   UNK     1      -5.316  -0.166   1.346  0.00  0.00    +0.159 HD
ENDBRANCH  13  14
ENDBRANCH  12  13
ENDBRANCH   1  12
TORSDOF 8
