REMARK  Name = 6503
REMARK  7 active torsions:
REMARK  status: ('A' for Active; 'I' for Inactive)
REMARK    1  A    between atoms: C_1  and  N_2
REMARK    2  A    between atoms: C_1  and  C_6
REMARK    3  A    between atoms: C_1  and  C_9
REMARK    4  A    between atoms: C_1  and  C_12
REMARK    5  A    between atoms: C_6  and  O_7
REMARK    6  A    between atoms: C_9  and  O_10
REMARK    7  A    between atoms: C_12  and  O_13
REMARK                            x       y       z     vdW  Elec       q    Type
REMARK                         _______ _______ _______ _____ _____    ______ ____
ROOT
ATOM      1  C   UNL     1      -0.003   0.276  -0.047  0.00  0.00    +0.033 C 
ENDROOT
BRANCH   1   2
ATOM      2  N   UNL     1      -0.017   1.358  -1.045  0.00  0.00    +0.388 N 
ATOM      3  H   UNL     1       0.806   1.280  -1.643  0.00  0.00    -0.089 HD
ATOM      4  H   UNL     1      -0.006   2.260  -0.568  0.00  0.00    -0.089 HD
ATOM      5  H   UNL     1      -0.860   1.284  -1.614  0.00  0.00    -0.089 HD
ENDBRANCH   1   2
BRANCH   1   6
ATOM      6  C   UNL     1       0.004  -1.060  -0.817  0.00  0.00    +0.122 C 
BRANCH   6   7
ATOM      7  O   UNL     1       0.028  -2.155   0.091  0.00  0.00    -0.384 OA
ATOM      8  H   UNL     1       0.032  -2.988  -0.407  0.00  0.00    +0.210 HD
ENDBRANCH   6   7
ENDBRANCH   1   6
BRANCH   1   9
ATOM      9  C   UNL     1       1.250   0.429   0.843  0.00  0.00    +0.122 C 
BRANCH   9  10
ATOM     10  O   UNL     1       2.439   0.384   0.063  0.00  0.00    -0.384 OA
ATOM     11  H   UNL     1       3.210   0.482   0.644  0.00  0.00    +0.210 HD
ENDBRANCH   9  10
ENDBRANCH   1   9
BRANCH   1  12
ATOM     12  C   UNL     1      -1.255   0.416   0.844  0.00  0.00    +0.122 C 
BRANCH  12  13
ATOM     13  O   UNL     1      -2.446   0.353   0.068  0.00  0.00    -0.384 OA
ATOM     14  H   UNL     1      -3.217   0.443   0.650  0.00  0.00    +0.210 HD
ENDBRANCH  12  13
ENDBRANCH   1  12
TORSDOF 7
