REMARK  Name = 5289534
REMARK  7 active torsions:
REMARK  status: ('A' for Active; 'I' for Inactive)
REMARK    1  A    between atoms: C_3  and  O_16
REMARK    2  A    between atoms: C_5  and  C_23
REMARK    3  A    between atoms: C_6  and  N_9
REMARK    4  A    between atoms: O_16  and  P_17
REMARK    5  A    between atoms: P_17  and  O_19
REMARK    6  A    between atoms: P_17  and  O_21
REMARK    7  A    between atoms: C_23  and  O_24
REMARK                            x       y       z     vdW  Elec       q    Type
REMARK                         _______ _______ _______ _____ _____    ______ ____
ROOT
ATOM      1  F   UNL     1      -1.575   0.398   2.077  0.00  0.00    -0.230 F 
ATOM      2  O   UNL     1       0.054  -1.830   0.902  0.00  0.00    -0.332 OA
ATOM      3  C   UNL     1      -1.469  -0.369  -0.134  0.00  0.00    +0.192 C 
ATOM      4  C   UNL     1      -0.777   0.392   0.972  0.00  0.00    +0.238 C 
ATOM      5  C   UNL     1      -1.261  -1.802   0.320  0.00  0.00    +0.177 C 
ATOM      6  C   UNL     1       0.423  -0.488   1.269  0.00  0.00    +0.235 C 
ENDROOT
BRANCH   6   9
ATOM      7  O   UNL     1       2.452   1.244   2.200  0.00  0.00    -0.252 OA
ATOM      8  O   UNL     1       4.821   0.883  -1.737  0.00  0.00    -0.270 OA
ATOM      9  N   UNL     1       1.583  -0.112   0.507  0.00  0.00    -0.216 N 
ATOM     10  N   UNL     1       3.630   1.064   0.238  0.00  0.00    -0.236 N 
ATOM     11  C   UNL     1       2.541   0.764   1.068  0.00  0.00    +0.315 C 
ATOM     12  C   UNL     1       1.759  -0.612  -0.777  0.00  0.00    +0.076 C 
ATOM     13  C   UNL     1       2.803  -0.317  -1.556  0.00  0.00    +0.074 C 
ATOM     14  C   UNL     1       3.849   0.592  -1.047  0.00  0.00    +0.254 C 
ATOM     15  H   UNL     1       4.310   1.673   0.606  0.00  0.00    +0.159 HD
ENDBRANCH   6   9
BRANCH   3  16
ATOM     16  O   UNL     1      -2.836  -0.040  -0.248  0.00  0.00    -0.270 OA
BRANCH  16  17
ATOM     17  P   UNL     1      -3.243   1.498  -0.566  0.00  0.00    +0.473 P 
ATOM     18  O   UNL     1      -2.784   2.496   0.457  0.00  0.00    -0.227 OA
BRANCH  17  19
ATOM     19  O   UNL     1      -4.842   1.430  -0.798  0.00  0.00    -0.303 OA
ATOM     20  H   UNL     1      -5.042   0.762  -1.472  0.00  0.00    +0.222 HD
ENDBRANCH  17  19
BRANCH  17  21
ATOM     21  O   UNL     1      -2.660   1.731  -2.057  0.00  0.00    -0.303 OA
ATOM     22  H   UNL     1      -3.005   1.045  -2.649  0.00  0.00    +0.222 HD
ENDBRANCH  17  21
ENDBRANCH  16  17
ENDBRANCH   3  16
BRANCH   5  23
ATOM     23  C   UNL     1      -1.344  -2.812  -0.809  0.00  0.00    +0.169 C 
BRANCH  23  24
ATOM     24  O   UNL     1      -1.125  -4.110  -0.281  0.00  0.00    -0.379 OA
ATOM     25  H   UNL     1      -1.177  -4.764  -0.996  0.00  0.00    +0.211 HD
ENDBRANCH  23  24
ENDBRANCH   5  23
TORSDOF 7
