REMARK  Name = 449588
REMARK  0 active torsions:
REMARK  status: ('A' for Active; 'I' for Inactive)
REMARK                            x       y       z     vdW  Elec       q    Type
REMARK                         _______ _______ _______ _____ _____    ______ ____
ROOT
ATOM      1  O   UNL     1       2.301   0.286   0.256  0.00  0.00    -0.296 OA
ATOM      2  C   UNL     1      -0.951  -1.011  -0.051  0.00  0.00    +0.008 C 
ATOM      3  C   UNL     1       0.115   0.870  -0.646  0.00  0.00    +0.058 C 
ATOM      4  C   UNL     1      -0.722  -0.208  -1.334  0.00  0.00    +0.008 C 
ATOM      5  C   UNL     1      -1.563   0.063   0.874  0.00  0.00    +0.001 C 
ATOM      6  C   UNL     1      -0.812   1.350   0.475  0.00  0.00    +0.007 C 
ATOM      7  C   UNL     1       0.490  -1.331   0.402  0.00  0.00    +0.064 C 
ATOM      8  C   UNL     1       1.142  -0.019   0.025  0.00  0.00    +0.150 C 
ENDROOT
TORSDOF 0
