REMARK  Name = 3080766
REMARK  5 active torsions:
REMARK  status: ('A' for Active; 'I' for Inactive)
REMARK    1  A    between atoms: C_1  and  C_4
REMARK    2  A    between atoms: C_1  and  N_8
REMARK    3  A    between atoms: C_1  and  C_12
REMARK    4  A    between atoms: N_3  and  O_6
REMARK    5  A    between atoms: C_12  and  C_13
REMARK                            x       y       z     vdW  Elec       q    Type
REMARK                         _______ _______ _______ _____ _____    ______ ____
ROOT
ATOM      1  C   UNL     1      -0.130   0.098  -0.544  0.00  0.00    +0.015 C 
ENDROOT
BRANCH   1   4
ATOM      2  O   UNL     1      -1.866   1.196   0.741  0.00  0.00    -0.275 OA
ATOM      3  N   UNL     1      -2.289  -0.897  -0.135  0.00  0.00    -0.199 N 
ATOM      4  C   UNL     1      -1.512   0.214   0.091  0.00  0.00    +0.224 C 
ATOM      5  H   UNL     1      -1.966  -1.663  -0.662  0.00  0.00    +0.182 HD
BRANCH   3   6
ATOM      6  O   UNL     1      -3.570  -0.870   0.433  0.00  0.00    -0.295 OA
ATOM      7  H   UNL     1      -4.036  -1.693   0.218  0.00  0.00    +0.241 HD
ENDBRANCH   3   6
ENDBRANCH   1   4
BRANCH   1   8
ATOM      8  N   UNL     1      -0.051   1.170  -1.534  0.00  0.00    +0.387 N 
ATOM      9  H   UNL     1       0.859   1.142  -1.995  0.00  0.00    -0.089 HD
ATOM     10  H   UNL     1      -0.169   2.071  -1.070  0.00  0.00    -0.089 HD
ATOM     11  H   UNL     1      -0.788   1.047  -2.229  0.00  0.00    -0.089 HD
ENDBRANCH   1   8
BRANCH   1  12
ATOM     12  C   UNL     1       0.977   0.209   0.519  0.00  0.00    -0.013 C 
BRANCH  12  13
ATOM     13  C   UNL     1       2.420   0.039   0.002  0.00  0.00    -0.002 C 
ATOM     14  C   UNL     1       2.562  -1.321  -0.690  0.00  0.00    -0.000 C 
ATOM     15  C   UNL     1       3.460   0.160   1.116  0.00  0.00    -0.000 C 
ENDBRANCH  12  13
ENDBRANCH   1  12
TORSDOF 5
