REMARK  Name = 2608
REMARK  3 active torsions:
REMARK  status: ('A' for Active; 'I' for Inactive)
REMARK    1  A    between atoms: C_1  and  S_18
REMARK    2  A    between atoms: C_2  and  N_7
REMARK    3  A    between atoms: S_18  and  N_21
REMARK                            x       y       z     vdW  Elec       q    Type
REMARK                         _______ _______ _______ _____ _____    ______ ____
ROOT
ATOM      1  C   UNL     1       2.840   0.064   0.026  0.00  0.00    +0.122 C 
ATOM      2  C   UNL     1       0.136   0.718   0.235  0.00  0.00    +0.049 C 
ATOM      3  C   UNL     1       2.459   1.379   0.296  0.00  0.00    +0.021 C 
ATOM      4  C   UNL     1       1.869  -0.924  -0.139  0.00  0.00    +0.021 C 
ATOM      5  C   UNL     1       1.107   1.705   0.401  0.00  0.00    +0.016 C 
ATOM      6  C   UNL     1       0.517  -0.597  -0.035  0.00  0.00    +0.016 C 
ENDROOT
BRANCH   2   7
ATOM      7  N   UNL     1      -1.231   1.048   0.340  0.00  0.00    -0.301 N 
ATOM      8  N   UNL     1      -2.382  -1.024   0.569  0.00  0.00    -0.233 NA
ATOM      9  N   UNL     1      -4.715  -1.170  -0.016  0.00  0.00    -0.234 NA
ATOM     10  C   UNL     1      -2.409   0.285   0.223  0.00  0.00    +0.113 C 
ATOM     11  C   UNL     1      -3.545   0.921  -0.244  0.00  0.00    +0.121 C 
ATOM     12  C   UNL     1      -4.677   0.138  -0.344  0.00  0.00    +0.107 C 
ATOM     13  C   UNL     1      -3.550  -1.679   0.427  0.00  0.00    +0.252 C 
ATOM     14  H   UNL     1      -1.394   2.000   0.532  0.00  0.00    +0.153 HD
ATOM     15  N   UNL     1      -5.859   0.757  -0.819  0.00  0.00    -0.346 N 
ATOM     16  H   UNL     1      -6.688   0.234  -0.905  0.00  0.00    +0.143 HD
ATOM     17  H   UNL     1      -5.851   1.711  -1.063  0.00  0.00    +0.143 HD
ENDBRANCH   2   7
BRANCH   1  18
ATOM     18  S   UNL     1       4.532  -0.345  -0.104  0.00  0.00    +0.057 S 
ATOM     19  O   UNL     1       5.258   0.648   0.686  0.00  0.00    -0.153 OA
ATOM     20  O   UNL     1       4.619  -1.762   0.240  0.00  0.00    -0.153 OA
BRANCH  18  21
ATOM     21  N   UNL     1       5.029  -0.163  -1.742  0.00  0.00    -0.203 NA
ATOM     22  H   UNL     1       6.018  -0.400  -1.826  0.00  0.00    +0.144 HD
ATOM     23  H   UNL     1       4.886   0.804  -2.035  0.00  0.00    +0.144 HD
ENDBRANCH  18  21
ENDBRANCH   1  18
TORSDOF 3
