REMARK  Name = 134856
REMARK  2 active torsions:
REMARK  status: ('A' for Active; 'I' for Inactive)
REMARK    1  A    between atoms: CA_1  and  C_7
REMARK    2  A    between atoms: C_7  and  O_8
REMARK                            x       y       z     vdW  Elec       q    Type
REMARK                         _______ _______ _______ _____ _____    ______ ____
ROOT
ATOM      1  CA  ALA A   1       0.246   0.318  -0.006  0.00  0.00    +0.107 C 
ATOM      2  CB  ALA A   1       0.451   1.643  -0.004  0.00  0.00    +0.056 C 
ATOM      3  N   ALA A   1       1.233  -0.623  -0.013  0.00  0.00    -0.370 N 
ATOM      4  C   ACE A   0       2.636  -0.300   0.014  0.00  0.00    +0.122 C 
ATOM      5  H   ALA A   1       0.973  -1.572  -0.038  0.00  0.00    +0.160 HD
ENDROOT
BRANCH   1   7
ATOM      6  OXT ALA A   1      -2.152   0.591   0.008  0.00  0.00    -0.244 OA
ATOM      7  C   ALA A   1      -1.172  -0.138   0.001  0.00  0.00    +0.349 C 
BRANCH   7   8
ATOM      8  O   ALA A   1      -1.242  -1.491   0.000  0.00  0.00    -0.476 OA
ATOM      9  H   ALA A   1      -0.456  -2.001  -0.006  0.00  0.00    +0.295 HD
ENDBRANCH   7   8
ENDBRANCH   1   7
TORSDOF 2
