REMARK  Name = 448970
REMARK  8 active torsions:
REMARK  status: ('A' for Active; 'I' for Inactive)
REMARK    1  A    between atoms: N_1  and  C_13
REMARK    2  A    between atoms: C_5  and  C_17
REMARK    3  A    between atoms: C_13  and  C_14
REMARK    4  A    between atoms: C_14  and  C_15
REMARK    5  A    between atoms: C_17  and  C_19
REMARK    6  A    between atoms: C_22  and  O_25
REMARK    7  A    between atoms: C_23  and  O_27
REMARK    8  A    between atoms: C_24  and  O_29
REMARK                            x       y       z     vdW  Elec       q    Type
REMARK                         _______ _______ _______ _____ _____    ______ ____
ROOT
ATOM      1  N   UNL     1      -2.421   0.313  -0.721  0.00  0.00    -0.249 N 
ATOM      2  N   UNL     1      -1.137  -1.458  -0.368  0.00  0.00    -0.385 NA
ATOM      3  N   UNL     1      -4.442  -0.377   0.431  0.00  0.00    -0.227 NA
ATOM      4  N   UNL     1      -4.174  -2.595   1.412  0.00  0.00    -0.227 NA
ATOM      5  C   UNL     1      -1.207  -0.268  -0.926  0.00  0.00    +0.169 C 
ATOM      6  C   UNL     1      -3.181  -0.545   0.006  0.00  0.00    +0.167 C 
ATOM      7  C   UNL     1      -2.364  -1.644   0.217  0.00  0.00    +0.195 C 
ATOM      8  C   UNL     1      -2.904  -2.696   0.951  0.00  0.00    +0.155 C 
ATOM      9  C   UNL     1      -4.854  -1.458   1.127  0.00  0.00    +0.253 C 
ATOM     10  N   UNL     1      -2.147  -3.851   1.214  0.00  0.00    -0.341 N 
ATOM     11  H   UNL     1      -2.539  -4.589   1.735  0.00  0.00    +0.144 HD
ATOM     12  H   UNL     1      -1.224  -3.922   0.878  0.00  0.00    +0.144 HD
ENDROOT
BRANCH   1  13
ATOM     13  C   UNL     1      -2.840   1.627  -1.198  0.00  0.00    +0.099 C 
BRANCH  13  14
ATOM     14  C   UNL     1      -2.523   2.731  -0.191  0.00  0.00    +0.022 C 
BRANCH  14  15
ATOM     15  C   UNL     1      -2.980   4.095  -0.705  0.00  0.00    +0.002 C 
ATOM     16  C   UNL     1      -2.705   5.194   0.309  0.00  0.00    +0.000 C 
ENDBRANCH  14  15
ENDBRANCH  13  14
ENDBRANCH   1  13
BRANCH   5  17
ATOM     17  C   UNL     1      -0.127   0.395  -1.687  0.00  0.00    +0.102 C 
BRANCH  17  19
ATOM     18 CL   UNL     1       1.631  -2.008  -2.402  0.00  0.00    -0.079 Cl
ATOM     19  C   UNL     1       1.241   0.301  -1.026  0.00  0.00    +0.003 C 
ATOM     20  C   UNL     1       2.088  -0.754  -1.300  0.00  0.00    +0.091 C 
ATOM     21  C   UNL     1       1.589   1.311  -0.149  0.00  0.00    +0.037 C 
ATOM     22  C   UNL     1       3.334  -0.802  -0.674  0.00  0.00    +0.186 C 
ATOM     23  C   UNL     1       2.835   1.262   0.477  0.00  0.00    +0.175 C 
ATOM     24  C   UNL     1       3.707   0.206   0.215  0.00  0.00    +0.207 C 
BRANCH  22  25
ATOM     25  O   UNL     1       4.200  -1.828  -0.919  0.00  0.00    -0.467 OA
ATOM     26  C   UNL     1       4.102  -2.971  -0.075  0.00  0.00    +0.253 C 
ENDBRANCH  22  25
BRANCH  23  27
ATOM     27  O   UNL     1       3.187   2.253   1.344  0.00  0.00    -0.468 OA
ATOM     28  C   UNL     1       2.237   3.296   1.556  0.00  0.00    +0.253 C 
ENDBRANCH  23  27
BRANCH  24  29
ATOM     29  O   UNL     1       4.924   0.160   0.828  0.00  0.00    -0.465 OA
ATOM     30  C   UNL     1       4.929   0.111   2.253  0.00  0.00    +0.253 C 
ENDBRANCH  24  29
ENDBRANCH  17  19
ENDBRANCH   5  17
TORSDOF 8
