REMARK  Name = 17754128
REMARK  7 active torsions:
REMARK  status: ('A' for Active; 'I' for Inactive)
REMARK    1  A    between atoms: C_1  and  N_2
REMARK    2  A    between atoms: C_1  and  C_7
REMARK    3  A    between atoms: C_1  and  C_8
REMARK    4  A    between atoms: C_8  and  S_9
REMARK    5  A    between atoms: S_9  and  S_10
REMARK    6  A    between atoms: S_10  and  C_11
REMARK    7  A    between atoms: C_11  and  C_12
REMARK                            x       y       z     vdW  Elec       q    Type
REMARK                         _______ _______ _______ _____ _____    ______ ____
ROOT
ATOM      1  C   UNK     1      -2.147   0.538  -0.204  0.00  0.00    +0.013 C 
ENDROOT
BRANCH   1   2
ATOM      2  N   UNK     1      -2.983   1.736  -0.297  0.00  0.00    +0.387 N 
ATOM      3  H   UNK     1      -2.436   2.502  -0.689  0.00  0.00    -0.089 HD
ATOM      4  H   UNK     1      -3.312   1.994   0.633  0.00  0.00    -0.089 HD
ATOM      5  H   UNK     1      -3.783   1.546  -0.900  0.00  0.00    -0.089 HD
ENDBRANCH   1   2
BRANCH   1   7
ATOM      6  O   UNK     1      -3.391  -1.556  -0.195  0.00  0.00    -0.291 OA
ATOM      7  C   UNK     1      -3.048  -0.531   0.386  0.00  0.00    +0.186 C 
ENDBRANCH   1   7
BRANCH   1   8
ATOM      8  C   UNK     1      -0.898   0.830   0.629  0.00  0.00    +0.054 C 
BRANCH   8   9
ATOM      9  S   UNK     1       0.164  -0.642   0.795  0.00  0.00    -0.084 S 
BRANCH   9  10
ATOM     10  S   UNK     1       1.150  -0.635  -1.007  0.00  0.00    -0.082 S 
BRANCH  10  11
ATOM     11  C   UNK     1       2.607   0.367  -0.626  0.00  0.00    +0.069 C 
BRANCH  11  12
ATOM     12  C   UNK     1       3.656  -0.468   0.098  0.00  0.00    +0.013 C 
ATOM     13  C   UNK     1       4.890   0.362   0.421  0.00  0.00    +0.001 C 
ENDBRANCH  11  12
ENDBRANCH  10  11
ENDBRANCH   9  10
ENDBRANCH   8   9
ENDBRANCH   1   8
TORSDOF 7
