REMARK  Name = 439616
REMARK  4 active torsions:
REMARK  status: ('A' for Active; 'I' for Inactive)
REMARK    1  A    between atoms: C_1  and  C_2
REMARK    2  A    between atoms: C_1  and  O_8
REMARK    3  A    between atoms: C_1  and  C_11
REMARK    4  A    between atoms: C_11  and  O_12
REMARK                            x       y       z     vdW  Elec       q    Type
REMARK                         _______ _______ _______ _____ _____    ______ ____
ROOT
ATOM      1  C   UNL     1       1.122   0.815   0.206  0.00  0.00    +0.232 C 
ENDROOT
BRANCH   1   2
ATOM      2  C   UNL     1      -0.290   0.350   0.080  0.00  0.00    +0.015 C 
ATOM      3  C   UNL     1      -1.324   1.097   0.644  0.00  0.00    -0.001 C 
ATOM      4  C   UNL     1      -0.576  -0.833  -0.602  0.00  0.00    -0.001 C 
ATOM      5  C   UNL     1      -2.644   0.662   0.526  0.00  0.00    -0.000 C 
ATOM      6  C   UNL     1      -1.896  -1.268  -0.720  0.00  0.00    -0.000 C 
ATOM      7  C   UNL     1      -2.930  -0.521  -0.156  0.00  0.00    -0.000 C 
ENDBRANCH   1   2
BRANCH   1   8
ATOM      8  O   UNL     1       1.443   1.694  -0.869  0.00  0.00    -0.371 OA
ATOM      9  H   UNL     1       0.805   2.424  -0.893  0.00  0.00    +0.211 HD
ENDBRANCH   1   8
BRANCH   1  11
ATOM     10  O   UNL     1       3.015  -0.489  -0.606  0.00  0.00    -0.247 OA
ATOM     11  C   UNL     1       2.134  -0.326   0.228  0.00  0.00    +0.345 C 
BRANCH  11  12
ATOM     12  O   UNL     1       1.943  -1.181   1.267  0.00  0.00    -0.478 OA
ATOM     13  H   UNL     1       1.257  -1.022   1.885  0.00  0.00    +0.295 HD
ENDBRANCH  11  12
ENDBRANCH   1  11
TORSDOF 4
