REMARK  Name = 65536
REMARK  12 active torsions:
REMARK  status: ('A' for Active; 'I' for Inactive)
REMARK    1  A    between atoms: CA_7  and  C_28
REMARK    2  A    between atoms: C_8  and  C_31
REMARK    3  A    between atoms: C_14  and  C_15
REMARK    4  A    between atoms: C_15  and  C_16
REMARK    5  A    between atoms: C_16  and  C_17
REMARK    6  A    between atoms: C_17  and  CA_18
REMARK    7  A    between atoms: CA_18  and  N_19
REMARK    8  A    between atoms: CA_18  and  C_24
REMARK    9  A    between atoms: C_24  and  O_25
REMARK   10  A    between atoms: C_28  and  O_29
REMARK   11  A    between atoms: C_31  and  O_32
REMARK   12  A    between atoms: O_32  and  C_34
REMARK                            x       y       z     vdW  Elec       q    Type
REMARK                         _______ _______ _______ _____ _____    ______ ____
ROOT
ATOM      1  S   UNL     1      -0.880  -1.402  -0.130  0.00  0.00    -0.116 S 
ATOM      2  O   UNL     1      -0.933   3.247  -0.159  0.00  0.00    -0.274 OA
ATOM      3  N   UNL     1      -1.809   1.071  -0.400  0.00  0.00    -0.245 N 
ATOM      4  C   UNL     1      -1.037   0.089  -1.140  0.00  0.00    +0.137 C 
ATOM      5  CA  UNL     1       0.124   1.097  -1.073  0.00  0.00    +0.117 C 
ATOM      6  C   UNL     1      -0.919   2.083  -0.486  0.00  0.00    +0.233 C 
ATOM      7  CA  UNL     1      -3.034   0.824   0.130  0.00  0.00    +0.127 C 
ATOM      8  C   UNL     1      -3.506  -0.439   0.264  0.00  0.00    +0.030 C 
ATOM      9  C   UNL     1      -2.682  -1.682  -0.066  0.00  0.00    +0.086 C 
ENDROOT
BRANCH   7  11
ATOM     10  OXT UNL     1      -3.704   2.450   1.730  0.00  0.00    -0.244 OA
ATOM     11  C   UNL     1      -3.799   1.984   0.612  0.00  0.00    +0.352 C 
BRANCH  11  12
ATOM     12  O   UNL     1      -4.603   2.430  -0.373  0.00  0.00    -0.476 OA
ATOM     13  H   UNL     1      -4.606   2.001  -1.206  0.00  0.00    +0.295 HD
ENDBRANCH  11  12
ENDBRANCH   7  11
BRANCH   8  14
ATOM     14  C   UNL     1      -4.885  -0.790   0.767  0.00  0.00    +0.233 C 
BRANCH  14  15
ATOM     15  O   UNL     1      -5.575  -1.517  -0.228  0.00  0.00    -0.444 OA
BRANCH  15  17
ATOM     16  O   UNL     1      -7.429  -1.684   1.139  0.00  0.00    -0.250 OA
ATOM     17  C   UNL     1      -6.851  -1.910   0.085  0.00  0.00    +0.318 C 
ATOM     18  C   UNL     1      -7.456  -2.666  -1.059  0.00  0.00    +0.121 C 
ENDBRANCH  15  17
ENDBRANCH  14  15
ENDBRANCH   8  14
TORSDOF 5
REMARK  Name = 65536
REMARK  12 active torsions:
REMARK  status: ('A' for Active; 'I' for Inactive)
REMARK    1  A    between atoms: CA_7  and  C_28
REMARK    2  A    between atoms: C_8  and  C_31
REMARK    3  A    between atoms: C_14  and  C_15
REMARK    4  A    between atoms: C_15  and  C_16
REMARK    5  A    between atoms: C_16  and  C_17
REMARK    6  A    between atoms: C_17  and  CA_18
REMARK    7  A    between atoms: CA_18  and  N_19
REMARK    8  A    between atoms: CA_18  and  C_24
REMARK    9  A    between atoms: C_24  and  O_25
REMARK   10  A    between atoms: C_28  and  O_29
REMARK   11  A    between atoms: C_31  and  O_32
REMARK   12  A    between atoms: O_32  and  C_34
REMARK                            x       y       z     vdW  Elec       q    Type
REMARK                         _______ _______ _______ _____ _____    ______ ____
ROOT
ATOM      1  N   UNL     1       1.239   0.816  -0.151  0.00  0.00    -0.163 NA
ATOM      2  H1  UNL     1       1.107   0.968   0.813  0.00  0.00    +0.163 HD
ENDROOT
TORSDOF 0
REMARK  Name = 65536
REMARK  12 active torsions:
REMARK  status: ('A' for Active; 'I' for Inactive)
REMARK    1  A    between atoms: CA_7  and  C_28
REMARK    2  A    between atoms: C_8  and  C_31
REMARK    3  A    between atoms: C_14  and  C_15
REMARK    4  A    between atoms: C_15  and  C_16
REMARK    5  A    between atoms: C_16  and  C_17
REMARK    6  A    between atoms: C_17  and  CA_18
REMARK    7  A    between atoms: CA_18  and  N_19
REMARK    8  A    between atoms: CA_18  and  C_24
REMARK    9  A    between atoms: C_24  and  O_25
REMARK   10  A    between atoms: C_28  and  O_29
REMARK   11  A    between atoms: C_31  and  O_32
REMARK   12  A    between atoms: O_32  and  C_34
REMARK                            x       y       z     vdW  Elec       q    Type
REMARK                         _______ _______ _______ _____ _____    ______ ____
ROOT
ATOM      1  H2  UNL     1       1.173   1.475   0.578  0.00  0.00    +0.000 HD
ENDROOT
TORSDOF 0
REMARK  Name = 65536
REMARK  12 active torsions:
REMARK  status: ('A' for Active; 'I' for Inactive)
REMARK    1  A    between atoms: CA_7  and  C_28
REMARK    2  A    between atoms: C_8  and  C_31
REMARK    3  A    between atoms: C_14  and  C_15
REMARK    4  A    between atoms: C_15  and  C_16
REMARK    5  A    between atoms: C_16  and  C_17
REMARK    6  A    between atoms: C_17  and  CA_18
REMARK    7  A    between atoms: CA_18  and  N_19
REMARK    8  A    between atoms: CA_18  and  C_24
REMARK    9  A    between atoms: C_24  and  O_25
REMARK   10  A    between atoms: C_28  and  O_29
REMARK   11  A    between atoms: C_31  and  O_32
REMARK   12  A    between atoms: O_32  and  C_34
REMARK                            x       y       z     vdW  Elec       q    Type
REMARK                         _______ _______ _______ _____ _____    ______ ____
ROOT
ATOM      1  CA  UNL     1       7.124  -1.196   0.957  0.00  0.00    +0.036 C 
ENDROOT
BRANCH   1   2
ATOM      2  N   UNL     1       7.036  -2.500   0.302  0.00  0.00    +0.389 N 
ATOM      3  H1  UNL     1       6.506  -3.142   0.892  0.00  0.00    -0.088 HD
ATOM      4  H2  UNL     1       7.974  -2.871   0.154  0.00  0.00    -0.088 HD
ATOM      5  H3  UNL     1       6.565  -2.398  -0.597  0.00  0.00    -0.088 HD
ENDBRANCH   1   2
BRANCH   1   7
ATOM      6  OXT UNL     1       8.319  -0.540  -1.069  0.00  0.00    -0.253 OA
ATOM      7  C   UNL     1       7.917  -0.267   0.055  0.00  0.00    +0.293 C 
BRANCH   7   8
ATOM      8  O   UNL     1       8.139   0.941   0.638  0.00  0.00    -0.482 OA
ATOM      9  H   UNL     1       7.815   1.112   1.500  0.00  0.00    +0.295 HD
ENDBRANCH   7   8
ENDBRANCH   1   7
BRANCH   1  10
ATOM     10  C   UNL     1       5.747  -0.617   1.320  0.00  0.00    -0.011 C 
BRANCH  10  11
ATOM     11  C   UNL     1       4.802  -0.403   0.127  0.00  0.00    +0.007 C 
BRANCH  11  12
ATOM     12  C   UNL     1       3.431   0.115   0.564  0.00  0.00    +0.072 C 
BRANCH  12  14
ATOM     13  O   UNL     1       2.755   0.121  -1.764  0.00  0.00    -0.288 OA
ATOM     14  C   UNL     1       2.471   0.347  -0.590  0.00  0.00    +0.207 C 
ENDBRANCH  12  14
ENDBRANCH  11  12
ENDBRANCH  10  11
ENDBRANCH   1  10
TORSDOF 7
