REMARK  Name = 7966
REMARK  1 active torsions:
REMARK  status: ('A' for Active; 'I' for Inactive)
REMARK    1  A    between atoms: C_1  and  O_7
REMARK                            x       y       z     vdW  Elec       q    Type
REMARK                         _______ _______ _______ _____ _____    ______ ____
ROOT
ATOM      1  C   UNL     1       1.044   0.000   0.327  0.00  0.00    +0.111 C 
ATOM      2  C   UNL     1       0.340   1.264  -0.166  0.00  0.00    +0.029 C 
ATOM      3  C   UNL     1       0.341  -1.264  -0.166  0.00  0.00    +0.029 C 
ATOM      4  C   UNL     1      -1.139   1.264   0.205  0.00  0.00    +0.002 C 
ATOM      5  C   UNL     1      -1.139  -1.264   0.205  0.00  0.00    +0.002 C 
ATOM      6  C   UNL     1      -1.841   0.000  -0.285  0.00  0.00    +0.000 C 
ENDROOT
BRANCH   1   7
ATOM      7  O   UNL     1       2.395   0.000  -0.120  0.00  0.00    -0.384 OA
ATOM      8  H   UNL     1       2.840   0.803   0.194  0.00  0.00    +0.210 HD
ENDBRANCH   1   7
TORSDOF 1
