REMARK  Name = 4470566
REMARK  6 active torsions:
REMARK  status: ('A' for Active; 'I' for Inactive)
REMARK    1  A    between atoms: N_4  and  C_23
REMARK    2  A    between atoms: C_13  and  C_14
REMARK    3  A    between atoms: C_17  and  N_22
REMARK    4  A    between atoms: C_23  and  C_24
REMARK    5  A    between atoms: C_24  and  C_25
REMARK    6  A    between atoms: C_25  and  N_27
REMARK                            x       y       z     vdW  Elec       q    Type
REMARK                         _______ _______ _______ _____ _____    ______ ____
ROOT
ATOM      1  S   UNL     1      -3.001  -2.167   0.251  0.00  0.00    -0.086 S 
ATOM      2  S   UNL     1       0.814   2.479   0.150  0.00  0.00    -0.017 S 
ATOM      3  O   UNL     1       3.110  -2.040  -0.479  0.00  0.00    -0.268 OA
ATOM      4  N   UNL     1       2.352   0.192  -0.214  0.00  0.00    -0.237 N 
ATOM      5  N   UNL     1       0.245  -0.210   0.010  0.00  0.00    -0.244 N 
ATOM      6  C   UNL     1       0.842  -1.417  -0.155  0.00  0.00    +0.112 C 
ATOM      7  C   UNL     1      -1.101  -0.412   0.158  0.00  0.00    +0.064 C 
ATOM      8  C   UNL     1       1.129   0.858  -0.014  0.00  0.00    +0.152 C 
ATOM      9  C   UNL     1       2.240  -1.201  -0.308  0.00  0.00    +0.268 C 
ATOM     10  C   UNL     1      -1.322  -1.768   0.079  0.00  0.00    +0.045 C 
ATOM     11  C   UNL     1      -0.069  -2.434  -0.124  0.00  0.00    +0.028 C 
ATOM     12  C   UNL     1      -2.287   0.344   0.359  0.00  0.00    +0.022 C 
ATOM     13  C   UNL     1      -3.377  -0.498   0.425  0.00  0.00    +0.031 C 
ENDROOT
BRANCH  13  14
ATOM     14  C   UNL     1      -4.764  -0.138   0.620  0.00  0.00    +0.008 C 
ATOM     15  C   UNL     1      -5.575   0.126  -0.481  0.00  0.00    +0.025 C 
ATOM     16  C   UNL     1      -5.284  -0.058   1.910  0.00  0.00    +0.001 C 
ATOM     17  C   UNL     1      -6.913   0.471  -0.292  0.00  0.00    +0.143 C 
ATOM     18  C   UNL     1      -6.622   0.288   2.099  0.00  0.00    +0.002 C 
ATOM     19  C   UNL     1      -7.436   0.552   0.998  0.00  0.00    +0.024 C 
BRANCH  17  22
ATOM     20  O   UNL     1      -8.942   1.052  -1.221  0.00  0.00    -0.126 OA
ATOM     21  O   UNL     1      -7.250   0.663  -2.565  0.00  0.00    -0.126 OA
ATOM     22  N   UNL     1      -7.741   0.742  -1.413  0.00  0.00    +0.058 N 
ENDBRANCH  17  22
ENDBRANCH  13  14
BRANCH   4  23
ATOM     23  C   UNL     1       3.642   0.860  -0.318  0.00  0.00    +0.098 C 
BRANCH  23  24
ATOM     24  C   UNL     1       4.368   0.944   1.023  0.00  0.00    -0.001 C 
BRANCH  24  25
ATOM     25  C   UNL     1       5.746   1.609   0.956  0.00  0.00    -0.075 C 
BRANCH  25  27
ATOM     26  O   UNL     1       9.062  -0.498  -0.520  0.00  0.00    -0.358 OA
ATOM     27  N   UNL     1       6.650   0.901   0.052  0.00  0.00    +0.390 N 
ATOM     28  C   UNL     1       6.862  -0.482   0.502  0.00  0.00    -0.045 C 
ATOM     29  C   UNL     1       7.939   1.600  -0.050  0.00  0.00    -0.045 C 
ATOM     30  C   UNL     1       7.818  -1.196  -0.449  0.00  0.00    +0.119 C 
ATOM     31  C   UNL     1       8.869   0.837  -0.989  0.00  0.00    +0.119 C 
ATOM     32  H   UNL     1       6.217   0.881  -0.871  0.00  0.00    -0.079 HD
ENDBRANCH  25  27
ENDBRANCH  24  25
ENDBRANCH  23  24
ENDBRANCH   4  23
TORSDOF 6
