REMARK  Name = 447724
REMARK  5 active torsions:
REMARK  status: ('A' for Active; 'I' for Inactive)
REMARK    1  A    between atoms: C_2  and  C_20
REMARK    2  A    between atoms: C_3  and  O_16
REMARK    3  A    between atoms: C_4  and  O_18
REMARK    4  A    between atoms: C_5  and  N_6
REMARK    5  A    between atoms: C_20  and  O_22
REMARK                            x       y       z     vdW  Elec       q    Type
REMARK                         _______ _______ _______ _____ _____    ______ ____
ROOT
ATOM      1  O   UNL     1       1.740  -0.342  -1.075  0.00  0.00    -0.333 OA
ATOM      2  C   UNL     1       3.050  -0.043  -0.538  0.00  0.00    +0.173 C 
ATOM      3  C   UNL     1       2.888   1.205   0.324  0.00  0.00    +0.171 C 
ATOM      4  C   UNL     1       1.448   1.095   0.785  0.00  0.00    +0.187 C 
ATOM      5  C   UNL     1       0.775   0.531  -0.457  0.00  0.00    +0.225 C 
ENDROOT
BRANCH   5   6
ATOM      6  N   UNL     1      -0.455  -0.208  -0.184  0.00  0.00    -0.247 N 
ATOM      7  N   UNL     1      -1.789  -1.920   0.334  0.00  0.00    -0.244 NA
ATOM      8  N   UNL     1      -2.119   1.534  -0.493  0.00  0.00    -0.228 NA
ATOM      9  N   UNL     1      -4.376   0.684  -0.120  0.00  0.00    -0.247 NA
ATOM     10  C   UNL     1      -1.731   0.281  -0.213  0.00  0.00    +0.151 C 
ATOM     11  C   UNL     1      -0.543  -1.535   0.148  0.00  0.00    +0.223 C 
ATOM     12  C   UNL     1      -2.542  -0.795   0.112  0.00  0.00    +0.122 C 
ATOM     13  C   UNL     1      -3.912  -0.560   0.153  0.00  0.00    +0.076 C 
ATOM     14  C   UNL     1      -3.464   1.639  -0.422  0.00  0.00    +0.252 C 
ATOM     15  C   UNL     1      -4.918  -1.607   0.483  0.00  0.00    +0.053 C 
ENDBRANCH   5   6
BRANCH   3  16
ATOM     16  O   UNL     1       3.036   2.359  -0.503  0.00  0.00    -0.379 OA
ATOM     17  H   UNL     1       3.958   2.429  -0.798  0.00  0.00    +0.211 HD
ENDBRANCH   3  16
BRANCH   4  18
ATOM     18  O   UNL     1       0.893   2.337   1.167  0.00  0.00    -0.378 OA
ATOM     19  H   UNL     1       1.346   2.664   1.960  0.00  0.00    +0.211 HD
ENDBRANCH   4  18
BRANCH   2  20
ATOM     20  C   UNL     1       3.532  -1.252   0.252  0.00  0.00    +0.140 C 
ATOM     21  C   UNL     1       3.722  -2.470  -0.637  0.00  0.00    +0.034 C 
BRANCH  20  22
ATOM     22  O   UNL     1       4.768  -0.935   0.884  0.00  0.00    -0.382 OA
ATOM     23  H   UNL     1       4.651  -0.158   1.453  0.00  0.00    +0.210 HD
ENDBRANCH  20  22
ENDBRANCH   2  20
TORSDOF 5
