REMARK  Name = 7408452
REMARK  2 active torsions:
REMARK  status: ('A' for Active; 'I' for Inactive)
REMARK    1  A    between atoms: CA_7  and  C_13
REMARK    2  A    between atoms: C_13  and  O_14
REMARK                            x       y       z     vdW  Elec       q    Type
REMARK                         _______ _______ _______ _____ _____    ______ ____
ROOT
ATOM      1  N   UNL     1      -0.259   1.085  -0.576  0.00  0.00    +0.393 N 
ATOM      2  C   UNL     1       0.745  -1.044  -0.641  0.00  0.00    -0.021 C 
ATOM      3  C   UNL     1       0.926   0.398  -1.121  0.00  0.00    -0.061 C 
ATOM      4  C   UNL     1      -0.756  -1.263  -0.832  0.00  0.00    -0.013 C 
ATOM      5  C   UNL     1       1.157  -1.264   0.823  0.00  0.00    -0.002 C 
ATOM      6  C   UNL     1       2.251   1.029  -0.695  0.00  0.00    -0.021 C 
ATOM      7  CA  UNL     1      -1.367   0.136  -0.767  0.00  0.00    +0.040 C 
ATOM      8  C   UNL     1       2.542  -0.699   1.114  0.00  0.00    -0.000 C 
ATOM      9  C   UNL     1       2.612   0.784   0.768  0.00  0.00    -0.002 C 
ATOM     10  H1  UNL     1      -0.436   1.951  -1.084  0.00  0.00    -0.084 HD
ATOM     11  H2  UNL     1      -0.137   1.341   0.404  0.00  0.00    -0.084 HD
ENDROOT
BRANCH   7  13
ATOM     12  OXT UNL     1      -2.171   1.087   1.299  0.00  0.00    -0.253 OA
ATOM     13  C   UNL     1      -2.315   0.300   0.375  0.00  0.00    +0.293 C 
BRANCH  13  14
ATOM     14  O   UNL     1      -3.365  -0.549   0.252  0.00  0.00    -0.482 OA
ATOM     15  H   UNL     1      -3.415  -1.128  -0.482  0.00  0.00    +0.295 HD
ENDBRANCH  13  14
ENDBRANCH   7  13
TORSDOF 2
