REMARK  Name = 8914
REMARK  8 active torsions:
REMARK  status: ('A' for Active; 'I' for Inactive)
REMARK    1  A    between atoms: C_1  and  C_2
REMARK    2  A    between atoms: C_1  and  C_7
REMARK    3  A    between atoms: C_2  and  C_3
REMARK    4  A    between atoms: C_3  and  C_4
REMARK    5  A    between atoms: C_4  and  C_5
REMARK    6  A    between atoms: C_7  and  C_8
REMARK    7  A    between atoms: C_8  and  C_9
REMARK    8  A    between atoms: C_9  and  O_10
REMARK                            x       y       z     vdW  Elec       q    Type
REMARK                         _______ _______ _______ _____ _____    ______ ____
ROOT
ATOM      1  C   UNL     1       0.674   0.417   0.044  0.00  0.00    +0.000 C 
ENDROOT
BRANCH   1   2
ATOM      2  C   UNL     1      -0.607  -0.419   0.061  0.00  0.00    +0.000 C 
BRANCH   2   3
ATOM      3  C   UNL     1      -1.887   0.423   0.054  0.00  0.00    +0.000 C 
BRANCH   3   4
ATOM      4  C   UNL     1      -3.203  -0.360   0.048  0.00  0.00    +0.000 C 
BRANCH   4   5
ATOM      5  C   UNL     1      -4.442   0.532  -0.016  0.00  0.00    +0.000 C 
ATOM      6  C   UNL     1      -5.716  -0.294  -0.111  0.00  0.00    +0.000 C 
ENDBRANCH   4   5
ENDBRANCH   3   4
ENDBRANCH   2   3
ENDBRANCH   1   2
BRANCH   1   7
ATOM      7  C   UNL     1       1.918  -0.474   0.020  0.00  0.00    +0.003 C 
BRANCH   7   8
ATOM      8  C   UNL     1       3.200   0.362  -0.027  0.00  0.00    +0.032 C 
BRANCH   8   9
ATOM      9  C   UNL     1       4.453  -0.504  -0.025  0.00  0.00    +0.137 C 
BRANCH   9  10
ATOM     10  O   UNL     1       5.611   0.319  -0.050  0.00  0.00    -0.382 OA
ATOM     11  H   UNL     1       6.404  -0.240  -0.049  0.00  0.00    +0.210 HD
ENDBRANCH   9  10
ENDBRANCH   8   9
ENDBRANCH   7   8
ENDBRANCH   1   7
TORSDOF 8
