REMARK  Name = 3952261
REMARK  2 active torsions:
REMARK  status: ('A' for Active; 'I' for Inactive)
REMARK    1  A    between atoms: C_1  and  O_10
REMARK    2  A    between atoms: C_2  and  S_7
REMARK                            x       y       z     vdW  Elec       q    Type
REMARK                         _______ _______ _______ _____ _____    ______ ____
ROOT
ATOM      1  C   UNL     1      -1.743  -0.294  -0.024  0.00  0.00    +0.139 C 
ATOM      2  C   UNL     1       1.010   0.150   0.028  0.00  0.00    +0.104 C 
ATOM      3  C   UNL     1      -1.248   1.005   0.088  0.00  0.00    +0.038 C 
ATOM      4  C   UNL     1      -0.862  -1.371  -0.109  0.00  0.00    +0.038 C 
ATOM      5  C   UNL     1       0.128   1.227   0.114  0.00  0.00    +0.021 C 
ATOM      6  C   UNL     1       0.515  -1.149  -0.083  0.00  0.00    +0.021 C 
ENDROOT
BRANCH   2   7
ATOM      7  S   UNL     1       2.734   0.428   0.061  0.00  0.00    +0.005 S 
ATOM      8  O   UNL     1       3.254  -0.288   1.212  0.00  0.00    -0.073 OA
ATOM      9  O   UNL     1       3.228   0.167  -1.279  0.00  0.00    -0.073 OA
ENDBRANCH   2   7
BRANCH   1  10
ATOM     10  O   UNL     1      -3.087  -0.510  -0.050  0.00  0.00    -0.471 OA
ATOM     11  C   UNL     1      -3.931   0.636   0.041  0.00  0.00    +0.252 C 
ENDBRANCH   1  10
TORSDOF 2
