REMARK  Name = 443231
REMARK  5 active torsions:
REMARK  status: ('A' for Active; 'I' for Inactive)
REMARK    1  A    between atoms: C_1  and  S_2
REMARK    2  A    between atoms: C_1  and  C_7
REMARK    3  A    between atoms: S_2  and  C_3
REMARK    4  A    between atoms: C_3  and  C_5
REMARK    5  A    between atoms: C_7  and  S_8
REMARK                            x       y       z     vdW  Elec       q    Type
REMARK                         _______ _______ _______ _____ _____    ______ ____
ROOT
ATOM      1  C   UNL     1      -0.430   0.155   0.010  0.00  0.00    +0.084 C 
ENDROOT
BRANCH   1   2
ATOM      2  S   UNL     1       1.092  -0.831   0.009  0.00  0.00    -0.130 S 
BRANCH   2   3
ATOM      3  C   UNL     1       2.286   0.526   0.000  0.00  0.00    +0.122 C 
BRANCH   3   5
ATOM      4  O   UNL     1       4.025  -1.166  -0.005  0.00  0.00    -0.295 OA
ATOM      5  C   UNL     1       3.715   0.024  -0.002  0.00  0.00    +0.162 C 
ATOM      6  C   UNL     1       4.782   1.091   0.001  0.00  0.00    +0.073 C 
ENDBRANCH   3   5
ENDBRANCH   2   3
ENDBRANCH   1   2
BRANCH   1   7
ATOM      7  C   UNL     1      -1.649  -0.748  -0.021  0.00  0.00    +0.170 C 
BRANCH   7   8
ATOM      8  S   UNL     1      -3.140   0.199   0.017  0.00  0.00    +0.023 S 
ATOM      9  O   UNL     1      -4.179  -1.034  -0.229  0.00  0.00    -0.069 OA
ATOM     10  O   UNL     1      -3.170   1.074  -1.140  0.00  0.00    -0.069 OA
ATOM     11  O   UNL     1      -3.332   0.710   1.361  0.00  0.00    -0.069 OA
ENDBRANCH   7   8
ENDBRANCH   1   7
TORSDOF 5
