REMARK  Name = 17753950
REMARK  4 active torsions:
REMARK  status: ('A' for Active; 'I' for Inactive)
REMARK    1  A    between atoms: C_1  and  O_14
REMARK    2  A    between atoms: C_2  and  O_16
REMARK    3  A    between atoms: C_3  and  N_7
REMARK    4  A    between atoms: C_5  and  C_13
REMARK                            x       y       z     vdW  Elec       q    Type
REMARK                         _______ _______ _______ _____ _____    ______ ____
ROOT
ATOM      1  C   UNL     1      -1.935   0.339   0.403  0.00  0.00    +0.122 C 
ATOM      2  C   UNL     1      -1.264   1.098  -0.748  0.00  0.00    +0.140 C 
ATOM      3  C   UNL     1      -1.277  -1.029   0.693  0.00  0.00    -0.013 C 
ATOM      4  C   UNL     1       0.244   1.275  -0.514  0.00  0.00    +0.064 C 
ATOM      5  C   UNL     1       0.896   0.052   0.058  0.00  0.00    +0.054 C 
ATOM      6  C   UNL     1       0.228  -0.986   0.579  0.00  0.00    -0.044 C 
ENDROOT
BRANCH   3   7
ATOM      7  N   UNL     1      -1.829  -2.059  -0.192  0.00  0.00    +0.386 N 
ATOM      8  H   UNL     1      -2.845  -2.075  -0.103  0.00  0.00    -0.089 HD
ATOM      9  H   UNL     1      -1.451  -2.970   0.069  0.00  0.00    -0.089 HD
ATOM     10  H   UNL     1      -1.575  -1.850  -1.157  0.00  0.00    -0.089 HD
ENDBRANCH   3   7
BRANCH   5  13
ATOM     11  O   UNL     1       2.870  -1.022  -0.620  0.00  0.00    -0.241 OA
ATOM     12  O   UNL     1       3.012   0.855   0.679  0.00  0.00    -0.241 OA
ATOM     13  C   UNL     1       2.408  -0.048   0.037  0.00  0.00    +0.384 C 
ENDBRANCH   5  13
BRANCH   1  14
ATOM     14  O   UNL     1      -1.866   1.127   1.594  0.00  0.00    -0.384 OA
ATOM     15  H   UNL     1      -2.274   1.993   1.433  0.00  0.00    +0.210 HD
ENDBRANCH   1  14
BRANCH   2  16
ATOM     16  O   UNL     1      -1.486   0.398  -1.970  0.00  0.00    -0.382 OA
ATOM     17  H   UNL     1      -2.439   0.289  -2.111  0.00  0.00    +0.210 HD
ENDBRANCH   2  16
TORSDOF 4
