REMARK  Name = 164628
REMARK  10 active torsions:
REMARK  status: ('A' for Active; 'I' for Inactive)
REMARK    1  A    between atoms: C_2  and  O_16
REMARK    2  A    between atoms: C_3  and  C_18
REMARK    3  A    between atoms: C_5  and  N_8
REMARK    4  A    between atoms: C_18  and  O_19
REMARK    5  A    between atoms: O_19  and  P_20
REMARK    6  A    between atoms: P_20  and  O_22
REMARK    7  A    between atoms: P_20  and  O_24
REMARK    8  A    between atoms: O_24  and  P_25
REMARK    9  A    between atoms: P_25  and  O_27
REMARK   10  A    between atoms: P_25  and  O_29
REMARK                            x       y       z     vdW  Elec       q    Type
REMARK                         _______ _______ _______ _____ _____    ______ ____
ROOT
ATOM      1  O   UNL     1       1.245   1.771   0.954  0.00  0.00    -0.335 OA
ATOM      2  C   UNL     1       1.308   3.175  -0.956  0.00  0.00    +0.144 C 
ATOM      3  C   UNL     1       0.460   2.740   0.231  0.00  0.00    +0.174 C 
ATOM      4  C   UNL     1       2.151   1.954  -1.240  0.00  0.00    +0.083 C 
ATOM      5  C   UNL     1       2.361   1.369   0.147  0.00  0.00    +0.202 C 
ENDROOT
BRANCH   5   8
ATOM      6  O   UNL     1       4.778  -0.129  -0.007  0.00  0.00    -0.252 OA
ATOM      7  O   UNL     1       2.507  -4.126   0.130  0.00  0.00    -0.270 OA
ATOM      8  N   UNL     1       2.449  -0.062   0.139  0.00  0.00    -0.219 N 
ATOM      9  N   UNL     1       3.633  -2.115   0.061  0.00  0.00    -0.236 N 
ATOM     10  C   UNL     1       1.273  -0.798   0.211  0.00  0.00    +0.071 C 
ATOM     11  C   UNL     1       3.697  -0.717   0.059  0.00  0.00    +0.315 C 
ATOM     12  C   UNL     1       1.216  -2.136   0.212  0.00  0.00    +0.047 C 
ATOM     13  C   UNL     1       2.490  -2.897   0.132  0.00  0.00    +0.250 C 
ATOM     14  C   UNL     1      -0.061  -2.909   0.291  0.00  0.00    +0.037 C 
ATOM     15  H   UNL     1       4.491  -2.594   0.007  0.00  0.00    +0.159 HD
ENDBRANCH   5   8
BRANCH   2  16
ATOM     16  O   UNL     1       2.149   4.263  -0.578  0.00  0.00    -0.382 OA
ATOM     17  H   UNL     1       1.604   5.045  -0.396  0.00  0.00    +0.210 HD
ENDBRANCH   2  16
BRANCH   3  18
ATOM     18  C   UNL     1      -0.843   2.070  -0.185  0.00  0.00    +0.186 C 
BRANCH  18  19
ATOM     19  O   UNL     1      -1.556   1.690   0.981  0.00  0.00    -0.270 OA
BRANCH  19  20
ATOM     20  P   UNL     1      -2.988   0.951   0.847  0.00  0.00    +0.484 P 
ATOM     21  O   UNL     1      -3.640   0.603   2.154  0.00  0.00    -0.227 OA
BRANCH  20  22
ATOM     22  O   UNL     1      -3.864   1.933  -0.094  0.00  0.00    -0.302 OA
ATOM     23  H   UNL     1      -3.379   2.111  -0.915  0.00  0.00    +0.222 HD
ENDBRANCH  20  22
BRANCH  20  24
ATOM     24  O   UNL     1      -2.702  -0.320  -0.110  0.00  0.00    -0.186 OA
BRANCH  24  25
ATOM     25  P   UNL     1      -3.707  -1.406  -0.760  0.00  0.00    +0.481 P 
ATOM     26  O   UNL     1      -3.039  -2.451  -1.604  0.00  0.00    -0.227 OA
BRANCH  25  27
ATOM     27  O   UNL     1      -4.791  -0.486  -1.530  0.00  0.00    -0.302 OA
ATOM     28  H   UNL     1      -5.169   0.156  -0.910  0.00  0.00    +0.222 HD
ENDBRANCH  25  27
BRANCH  25  29
ATOM     29  O   UNL     1      -4.526  -1.967   0.515  0.00  0.00    -0.302 OA
ATOM     30  H   UNL     1      -4.921  -1.225   0.998  0.00  0.00    +0.222 HD
ENDBRANCH  25  29
ENDBRANCH  24  25
ENDBRANCH  20  24
ENDBRANCH  19  20
ENDBRANCH  18  19
ENDBRANCH   3  18
TORSDOF 10
