5289281
  -OEChem-10051720253D

 42 41  0     1  0  0  0  0  0999 V2000
   -2.8967    0.0620   -1.9254 O   0  0  0  0  0  0  0  0  0  0  0  0
    4.3557    2.0985    1.6762 O   0  5  0  0  0  0  0  0  0  0  0  0
    2.8611    3.1632    0.3227 O   0  0  0  0  0  0  0  0  0  0  0  0
    4.9774   -1.2553   -1.3635 O   0  0  0  0  0  0  0  0  0  0  0  0
   -5.4446   -1.1920    1.8649 O   0  0  0  0  0  0  0  0  0  0  0  0
   -7.2428   -1.2899    0.4971 O   0  0  0  0  0  0  0  0  0  0  0  0
    3.9127   -0.2635    0.4458 N   0  0  0  0  0  0  0  0  0  0  0  0
   -3.9306    0.1075    0.1541 N   0  0  0  0  0  0  0  0  0  0  0  0
    5.6428   -3.5078    0.0624 N   0  3  0  0  0  0  0  0  0  0  0  0
    0.9840    0.6436   -0.0437 C   0  0  0  0  0  0  0  0  0  0  0  0
    2.1975    0.7601   -0.9764 C   0  0  0  0  0  0  0  0  0  0  0  0
   -0.3140    0.4932   -0.8452 C   0  0  0  0  0  0  0  0  0  0  0  0
    3.5286    0.9519   -0.2380 C   0  0  1  0  0  0  0  0  0  0  0  0
   -1.5455    0.4038    0.0550 C   0  0  0  0  0  0  0  0  0  0  0  0
   -2.8434    0.1817   -0.7044 C   0  0  0  0  0  0  0  0  0  0  0  0
    3.5966    2.1952    0.6707 C   0  0  0  0  0  0  0  0  0  0  0  0
   -5.2818   -0.1248   -0.3028 C   0  0  2  0  0  0  0  0  0  0  0  0
    4.6145   -1.2744   -0.1904 C   0  0  0  0  0  0  0  0  0  0  0  0
    4.8904   -2.4265    0.7426 C   0  0  0  0  0  0  0  0  0  0  0  0
   -5.9709    1.1969   -0.6071 C   0  0  0  0  0  0  0  0  0  0  0  0
   -6.0910   -0.9233    0.7054 C   0  0  0  0  0  0  0  0  0  0  0  0
    0.9010    1.5246    0.6009 H   0  0  0  0  0  0  0  0  0  0  0  0
    1.1056   -0.2251    0.6142 H   0  0  0  0  0  0  0  0  0  0  0  0
    2.2506   -0.1337   -1.6111 H   0  0  0  0  0  0  0  0  0  0  0  0
    2.0392    1.6097   -1.6533 H   0  0  0  0  0  0  0  0  0  0  0  0
   -0.2524   -0.4055   -1.4716 H   0  0  0  0  0  0  0  0  0  0  0  0
   -0.4273    1.3437   -1.5289 H   0  0  0  0  0  0  0  0  0  0  0  0
    4.2909    1.1373   -1.0075 H   0  0  0  0  0  0  0  0  0  0  0  0
   -1.4250   -0.4253    0.7630 H   0  0  0  0  0  0  0  0  0  0  0  0
   -1.6446    1.3277    0.6375 H   0  0  0  0  0  0  0  0  0  0  0  0
    3.6313   -0.3816    1.4151 H   0  0  0  0  0  0  0  0  0  0  0  0
   -5.2270   -0.7308   -1.2149 H   0  0  0  0  0  0  0  0  0  0  0  0
   -3.7803    0.2343    1.1511 H   0  0  0  0  0  0  0  0  0  0  0  0
    3.9525   -2.8634    1.0969 H   0  0  0  0  0  0  0  0  0  0  0  0
    5.4998   -2.0954    1.5881 H   0  0  0  0  0  0  0  0  0  0  0  0
   -6.0456    1.8191    0.2922 H   0  0  0  0  0  0  0  0  0  0  0  0
   -5.4172    1.7667   -1.3611 H   0  0  0  0  0  0  0  0  0  0  0  0
   -6.9869    1.0353   -0.9827 H   0  0  0  0  0  0  0  0  0  0  0  0
    6.5512   -3.1739   -0.2864 H   0  0  0  0  0  0  0  0  0  0  0  0
    5.8282   -4.2911    0.7027 H   0  0  0  0  0  0  0  0  0  0  0  0
    5.1206   -3.8837   -0.7403 H   0  0  0  0  0  0  0  0  0  0  0  0
   -6.0046   -1.7031    2.4873 H   0  0  0  0  0  0  0  0  0  0  0  0
  1 15  2  0  0  0  0
  2 16  1  0  0  0  0
  3 16  2  0  0  0  0
  4 18  2  0  0  0  0
  5 21  1  0  0  0  0
  5 42  1  0  0  0  0
  6 21  2  0  0  0  0
  7 13  1  0  0  0  0
  7 18  1  0  0  0  0
  7 31  1  0  0  0  0
  8 15  1  0  0  0  0
  8 17  1  0  0  0  0
  8 33  1  0  0  0  0
  9 19  1  0  0  0  0
  9 39  1  0  0  0  0
  9 40  1  0  0  0  0
  9 41  1  0  0  0  0
 10 11  1  0  0  0  0
 10 12  1  0  0  0  0
 10 22  1  0  0  0  0
 10 23  1  0  0  0  0
 11 13  1  0  0  0  0
 11 24  1  0  0  0  0
 11 25  1  0  0  0  0
 12 14  1  0  0  0  0
 12 26  1  0  0  0  0
 12 27  1  0  0  0  0
 13 16  1  0  0  0  0
 13 28  1  0  0  0  0
 14 15  1  0  0  0  0
 14 29  1  0  0  0  0
 14 30  1  0  0  0  0
 17 20  1  0  0  0  0
 17 21  1  0  0  0  0
 17 32  1  0  0  0  0
 18 19  1  0  0  0  0
 19 34  1  0  0  0  0
 19 35  1  0  0  0  0
 20 36  1  0  0  0  0
 20 37  1  0  0  0  0
 20 38  1  0  0  0  0
M  CHG  2   2  -1   9   1
M  END
> <DATABASE_ID>
DB03927

> <DATABASE_NAME>
drugbank

> <ORIGINAL_SOURCE>
PUBCHEM

> <ORIGINAL_SOURCE_URL>
https://pubchem.ncbi.nlm.nih.gov/rest/pug/compound/inchikey/ZMQJQOKNTYQVHO-SFYZADRCSA-N/SDF?record_type=3d

> <SMILES>
[H][C@](C)(N=C(O)CCCC[C@]([H])(N=C(O)CN)C(O)=O)C(O)=O

> <INCHI_IDENTIFIER>
InChI=1S/C12H21N3O6/c1-7(11(18)19)14-9(16)5-3-2-4-8(12(20)21)15-10(17)6-13/h7-8H,2-6,13H2,1H3,(H,14,16)(H,15,17)(H,18,19)(H,20,21)/t7-,8+/m1/s1

> <INCHI_KEY>
ZMQJQOKNTYQVHO-SFYZADRCSA-N

> <FORMULA>
C12H21N3O6

> <MOLECULAR_WEIGHT>
303.3116

> <EXACT_MASS>
303.143035419

> <JCHEM_ACCEPTOR_COUNT>
9

> <JCHEM_AVERAGE_POLARIZABILITY>
29.6863924697646

> <JCHEM_BIOAVAILABILITY>
1

> <JCHEM_DONOR_COUNT>
5

> <JCHEM_FORMAL_CHARGE>
0

> <JCHEM_GHOSE_FILTER>
0

> <JCHEM_IUPAC>
(2S)-2-[(2-amino-1-hydroxyethylidene)amino]-6-{[(1R)-1-carboxyethyl]-C-hydroxycarbonimidoyl}hexanoic acid

> <ALOGPS_LOGP>
-2.76

> <JCHEM_LOGP>
-2.5965398773405646

> <ALOGPS_LOGS>
-2.96

> <JCHEM_MDDR_LIKE_RULE>
0

> <JCHEM_NUMBER_OF_RINGS>
0

> <JCHEM_PHYSIOLOGICAL_CHARGE>
0

> <JCHEM_PKA>
4.178442762516802

> <JCHEM_PKA_STRONGEST_ACIDIC>
3.583562319074459

> <JCHEM_PKA_STRONGEST_BASIC>
9.340716405102391

> <JCHEM_POLAR_SURFACE_AREA>
165.79999999999998

> <JCHEM_REFRACTIVITY>
71.634

> <JCHEM_ROTATABLE_BOND_COUNT>
10

> <JCHEM_RULE_OF_FIVE>
1

> <ALOGPS_SOLUBILITY>
3.32e-01 g/l

> <JCHEM_TRADITIONAL_IUPAC>
(2S)-2-[(2-amino-1-hydroxyethylidene)amino]-6-{[(1R)-1-carboxyethyl]-C-hydroxycarbonimidoyl}hexanoic acid

> <JCHEM_VEBER_RULE>
0

> <DRUGBANK_ID>
DB03927

> <SECONDARY_ACCESSION_NUMBERS>
EXPT02774

> <DRUG_GROUPS>
experimental

> <GENERIC_NAME>
Glycyl-L-Alpha-Amino-Epsilon-Pimelyl-D-Alanine

$$$$
