REMARK  Name = 446239
REMARK  5 active torsions:
REMARK  status: ('A' for Active; 'I' for Inactive)
REMARK    1  A    between atoms: N_2  and  C_17
REMARK    2  A    between atoms: C_3  and  C_5
REMARK    3  A    between atoms: C_6  and  S_11
REMARK    4  A    between atoms: S_11  and  N_14
REMARK    5  A    between atoms: C_17  and  C_20
REMARK                            x       y       z     vdW  Elec       q    Type
REMARK                         _______ _______ _______ _____ _____    ______ ____
ROOT
ATOM      1  O   UNL     1       0.608  -1.397   1.839  0.00  0.00    -0.270 OA
ATOM      2  N   UNL     1       1.008   0.785   1.165  0.00  0.00    -0.297 N 
ATOM      3  C   UNL     1       0.194  -0.342   1.326  0.00  0.00    +0.246 C 
ATOM      4  H   UNL     1       0.615   1.588   0.751  0.00  0.00    +0.150 HD
ENDROOT
BRANCH   3   5
ATOM      5  C   UNL     1      -1.173  -0.244   0.840  0.00  0.00    +0.053 C 
ATOM      6  C   UNL     1      -3.796  -0.056  -0.093  0.00  0.00    +0.122 C 
ATOM      7  C   UNL     1      -1.854  -1.393   0.438  0.00  0.00    +0.006 C 
ATOM      8  C   UNL     1      -1.803   0.999   0.776  0.00  0.00    +0.006 C 
ATOM      9  C   UNL     1      -3.166  -1.299  -0.029  0.00  0.00    +0.020 C 
ATOM     10  C   UNL     1      -3.114   1.093   0.309  0.00  0.00    +0.020 C 
BRANCH   6  11
ATOM     11  S   UNL     1      -5.437   0.061  -0.676  0.00  0.00    +0.057 S 
ATOM     12  O   UNL     1      -6.089  -1.225  -0.475  0.00  0.00    -0.153 OA
ATOM     13  O   UNL     1      -6.038   1.270  -0.127  0.00  0.00    -0.153 OA
BRANCH  11  14
ATOM     14  N   UNL     1      -5.174   0.291  -2.348  0.00  0.00    -0.203 NA
ATOM     15  H   UNL     1      -6.071   0.378  -2.825  0.00  0.00    +0.144 HD
ATOM     16  H   UNL     1      -4.664  -0.508  -2.725  0.00  0.00    +0.144 HD
ENDBRANCH  11  14
ENDBRANCH   6  11
ENDBRANCH   3   5
BRANCH   2  17
ATOM     17  C   UNL     1       2.393   0.836   1.574  0.00  0.00    +0.119 C 
BRANCH  17  20
ATOM     18  F   UNL     1       3.465   2.700  -0.259  0.00  0.00    -0.204 F 
ATOM     19  F   UNL     1       4.898  -2.542  -0.875  0.00  0.00    -0.204 F 
ATOM     20  C   UNL     1       3.322   0.443   0.462  0.00  0.00    +0.027 C 
ATOM     21  C   UNL     1       3.812   1.414  -0.404  0.00  0.00    +0.138 C 
ATOM     22  C   UNL     1       3.683  -0.891   0.310  0.00  0.00    +0.029 C 
ATOM     23  C   UNL     1       4.545  -1.259  -0.722  0.00  0.00    +0.140 C 
ATOM     24  C   UNL     1       4.675   1.045  -1.436  0.00  0.00    +0.032 C 
ATOM     25  C   UNL     1       5.041  -0.291  -1.595  0.00  0.00    +0.032 C 
ENDBRANCH  17  20
ENDBRANCH   2  17
TORSDOF 5
