445085
  -OEChem-10051720103D

 55 55  0     1  0  0  0  0  0999 V2000
    0.0367    3.0428    0.1131 P   0  0  0  0  0  0  0  0  0  0  0  0
   -0.4975   -0.9997    1.6620 O   0  0  0  0  0  0  0  0  0  0  0  0
    4.6241   -2.0174   -1.4280 O   0  0  0  0  0  0  0  0  0  0  0  0
    1.4341    2.3032   -0.2225 O   0  0  0  0  0  0  0  0  0  0  0  0
   -8.8246    0.1957   -1.2779 O   0  0  0  0  0  0  0  0  0  0  0  0
   -7.6859    1.1935    0.4136 O   0  0  0  0  0  0  0  0  0  0  0  0
   -0.8926    1.8275    0.6368 O   0  0  0  0  0  0  0  0  0  0  0  0
    0.3557    3.8753    1.4624 O   0  0  0  0  0  0  0  0  0  0  0  0
   -0.5450    3.8454   -1.0137 O   0  0  0  0  0  0  0  0  0  0  0  0
    1.8404   -1.9875    0.6056 N   0  0  0  0  0  0  0  0  0  0  0  0
    5.7008    1.1716   -0.0223 N   0  0  0  0  0  0  0  0  0  0  0  0
    0.6072   -2.7473    0.4110 C   0  0  2  0  0  0  0  0  0  0  0  0
   -2.9778   -1.1380    0.4047 C   0  0  0  0  0  0  0  0  0  0  0  0
   -1.8444   -2.0637   -0.0323 C   0  0  0  0  0  0  0  0  0  0  0  0
   -4.2342   -1.3593   -0.4395 C   0  0  0  0  0  0  0  0  0  0  0  0
   -0.5669   -1.8414    0.7660 C   0  0  0  0  0  0  0  0  0  0  0  0
    2.0851   -1.1031   -0.5234 C   0  0  0  0  0  0  0  0  0  0  0  0
   -5.3543   -0.3978   -0.0298 C   0  0  0  0  0  0  0  0  0  0  0  0
    3.3494   -0.3048   -0.3469 C   0  0  0  0  0  0  0  0  0  0  0  0
    0.5936   -3.9988    1.2765 C   0  0  0  0  0  0  0  0  0  0  0  0
   -6.6136   -0.5714   -0.8793 C   0  0  0  0  0  0  0  0  0  0  0  0
    3.3137    0.9355    0.2804 C   0  0  0  0  0  0  0  0  0  0  0  0
    4.5594   -0.8079   -0.8121 C   0  0  0  0  0  0  0  0  0  0  0  0
    2.0466    1.5230    0.7979 C   0  0  0  0  0  0  0  0  0  0  0  0
    5.6961   -0.0375   -0.6268 C   0  0  0  0  0  0  0  0  0  0  0  0
    4.5062    1.6279    0.4167 C   0  0  0  0  0  0  0  0  0  0  0  0
   -7.7341    0.3653   -0.4850 C   0  0  0  0  0  0  0  0  0  0  0  0
    7.0218   -0.5309   -1.1070 C   0  0  0  0  0  0  0  0  0  0  0  0
    0.5135   -3.0619   -0.6357 H   0  0  0  0  0  0  0  0  0  0  0  0
   -3.2071   -1.3051    1.4643 H   0  0  0  0  0  0  0  0  0  0  0  0
   -2.6588   -0.0953    0.3097 H   0  0  0  0  0  0  0  0  0  0  0  0
   -2.1484   -3.1084    0.0940 H   0  0  0  0  0  0  0  0  0  0  0  0
   -1.6108   -1.8922   -1.0890 H   0  0  0  0  0  0  0  0  0  0  0  0
   -4.5781   -2.3944   -0.3266 H   0  0  0  0  0  0  0  0  0  0  0  0
   -3.9961   -1.2102   -1.4997 H   0  0  0  0  0  0  0  0  0  0  0  0
    2.6236   -2.6354    0.6932 H   0  0  0  0  0  0  0  0  0  0  0  0
    2.1314   -1.6687   -1.4634 H   0  0  0  0  0  0  0  0  0  0  0  0
    1.2398   -0.4230   -0.6841 H   0  0  0  0  0  0  0  0  0  0  0  0
   -5.6027   -0.5544    1.0275 H   0  0  0  0  0  0  0  0  0  0  0  0
   -4.9997    0.6371   -0.1159 H   0  0  0  0  0  0  0  0  0  0  0  0
    0.6681   -3.7503    2.3416 H   0  0  0  0  0  0  0  0  0  0  0  0
   -0.3386   -4.5575    1.1391 H   0  0  0  0  0  0  0  0  0  0  0  0
    1.4249   -4.6653    1.0223 H   0  0  0  0  0  0  0  0  0  0  0  0
   -6.9837   -1.5981   -0.7797 H   0  0  0  0  0  0  0  0  0  0  0  0
   -6.3726   -0.3835   -1.9317 H   0  0  0  0  0  0  0  0  0  0  0  0
    1.3576    0.7672    1.1784 H   0  0  0  0  0  0  0  0  0  0  0  0
    2.2719    2.1751    1.6503 H   0  0  0  0  0  0  0  0  0  0  0  0
    4.5444    2.6019    0.8949 H   0  0  0  0  0  0  0  0  0  0  0  0
    7.0032   -0.6843   -2.1907 H   0  0  0  0  0  0  0  0  0  0  0  0
    7.8141    0.1919   -0.8849 H   0  0  0  0  0  0  0  0  0  0  0  0
    7.2807   -1.4732   -0.6138 H   0  0  0  0  0  0  0  0  0  0  0  0
    3.8791   -2.5767   -1.1566 H   0  0  0  0  0  0  0  0  0  0  0  0
   -9.5519    0.8072   -1.0344 H   0  0  0  0  0  0  0  0  0  0  0  0
   -1.8345    2.0093    0.8411 H   0  0  0  0  0  0  0  0  0  0  0  0
   -0.3367    4.4638    1.8316 H   0  0  0  0  0  0  0  0  0  0  0  0
  1  4  1  0  0  0  0
  1  7  1  0  0  0  0
  1  8  1  0  0  0  0
  1  9  2  0  0  0  0
  2 16  2  0  0  0  0
  3 23  1  0  0  0  0
  3 52  1  0  0  0  0
  4 24  1  0  0  0  0
  5 27  1  0  0  0  0
  5 53  1  0  0  0  0
  6 27  2  0  0  0  0
  7 54  1  0  0  0  0
  8 55  1  0  0  0  0
 10 12  1  0  0  0  0
 10 17  1  0  0  0  0
 10 36  1  0  0  0  0
 11 25  2  0  0  0  0
 11 26  1  0  0  0  0
 12 16  1  0  0  0  0
 12 20  1  0  0  0  0
 12 29  1  0  0  0  0
 13 14  1  0  0  0  0
 13 15  1  0  0  0  0
 13 30  1  0  0  0  0
 13 31  1  0  0  0  0
 14 16  1  0  0  0  0
 14 32  1  0  0  0  0
 14 33  1  0  0  0  0
 15 18  1  0  0  0  0
 15 34  1  0  0  0  0
 15 35  1  0  0  0  0
 17 19  1  0  0  0  0
 17 37  1  0  0  0  0
 17 38  1  0  0  0  0
 18 21  1  0  0  0  0
 18 39  1  0  0  0  0
 18 40  1  0  0  0  0
 19 22  1  0  0  0  0
 19 23  2  0  0  0  0
 20 41  1  0  0  0  0
 20 42  1  0  0  0  0
 20 43  1  0  0  0  0
 21 27  1  0  0  0  0
 21 44  1  0  0  0  0
 21 45  1  0  0  0  0
 22 24  1  0  0  0  0
 22 26  2  0  0  0  0
 23 25  1  0  0  0  0
 24 46  1  0  0  0  0
 24 47  1  0  0  0  0
 25 28  1  0  0  0  0
 26 48  1  0  0  0  0
 28 49  1  0  0  0  0
 28 50  1  0  0  0  0
 28 51  1  0  0  0  0
M  END
> <DATABASE_ID>
DB03160

> <DATABASE_NAME>
drugbank

> <ORIGINAL_SOURCE>
PUBCHEM

> <ORIGINAL_SOURCE_URL>
https://pubchem.ncbi.nlm.nih.gov/rest/pug/compound/inchikey/YXEXNGWPUWJMIT-NSHDSACASA-N/SDF?record_type=3d

> <SMILES>
[H][C@@](C)(NCC1=C(COP(O)(O)=O)C=NC(C)=C1O)C(=O)CCCCCC(O)=O

> <INCHI_IDENTIFIER>
InChI=1S/C17H27N2O8P/c1-11(15(20)6-4-3-5-7-16(21)22)19-9-14-13(10-27-28(24,25)26)8-18-12(2)17(14)23/h8,11,19,23H,3-7,9-10H2,1-2H3,(H,21,22)(H2,24,25,26)/t11-/m0/s1

> <INCHI_KEY>
YXEXNGWPUWJMIT-NSHDSACASA-N

> <FORMULA>
C17H27N2O8P

> <MOLECULAR_WEIGHT>
418.3786

> <EXACT_MASS>
418.150502362

> <JCHEM_ACCEPTOR_COUNT>
9

> <JCHEM_AVERAGE_POLARIZABILITY>
40.855453782988754

> <JCHEM_BIOAVAILABILITY>
1

> <JCHEM_DONOR_COUNT>
5

> <JCHEM_FORMAL_CHARGE>
0

> <JCHEM_GHOSE_FILTER>
0

> <JCHEM_IUPAC>
(8S)-8-[({3-hydroxy-2-methyl-5-[(phosphonooxy)methyl]pyridin-4-yl}methyl)amino]-7-oxononanoic acid

> <ALOGPS_LOGP>
-0.01

> <JCHEM_LOGP>
-0.7541523183101457

> <ALOGPS_LOGS>
-3.24

> <JCHEM_MDDR_LIKE_RULE>
0

> <JCHEM_NUMBER_OF_RINGS>
1

> <JCHEM_PHYSIOLOGICAL_CHARGE>
-2

> <JCHEM_PKA>
4.327626278712898

> <JCHEM_PKA_STRONGEST_ACIDIC>
1.7373397611029473

> <JCHEM_PKA_STRONGEST_BASIC>
7.987178797687906

> <JCHEM_POLAR_SURFACE_AREA>
166.28

> <JCHEM_REFRACTIVITY>
100.23619999999997

> <JCHEM_ROTATABLE_BOND_COUNT>
13

> <JCHEM_RULE_OF_FIVE>
1

> <ALOGPS_SOLUBILITY>
2.39e-01 g/l

> <JCHEM_TRADITIONAL_IUPAC>
(8S)-8-[({3-hydroxy-2-methyl-5-[(phosphonooxy)methyl]pyridin-4-yl}methyl)amino]-7-oxononanoic acid

> <JCHEM_VEBER_RULE>
0

> <DRUGBANK_ID>
DB03160

> <SECONDARY_ACCESSION_NUMBERS>
EXPT01960

> <DRUG_GROUPS>
experimental

> <GENERIC_NAME>
N-Pyridoxyl-7-Keto-8-Aminopelargonic Acid-5'-Monophosphate

$$$$
