REMARK  Name = 2734054
REMARK  2 active torsions:
REMARK  status: ('A' for Active; 'I' for Inactive)
REMARK    1  A    between atoms: C_2  and  C_8
REMARK    2  A    between atoms: C_8  and  N_9
REMARK                            x       y       z     vdW  Elec       q    Type
REMARK                         _______ _______ _______ _____ _____    ______ ____
ROOT
ATOM      1  N   UNL     1       0.720   1.165   0.155  0.00  0.00    +0.384 N 
ATOM      2  C   UNL     1      -0.310   0.241  -0.324  0.00  0.00    -0.084 C 
ATOM      3  C   UNL     1       0.213  -1.106   0.153  0.00  0.00    -0.026 C 
ATOM      4  C   UNL     1       1.728  -0.975   0.055  0.00  0.00    -0.026 C 
ATOM      5  C   UNL     1       1.992   0.511  -0.145  0.00  0.00    -0.082 C 
ATOM      6  H   UNL     1       0.625   1.317   1.159  0.00  0.00    -0.085 HD
ATOM      7  H   UNL     1       0.648   2.080  -0.289  0.00  0.00    -0.085 HD
ENDROOT
BRANCH   2   8
ATOM      8  C   UNL     1      -1.678   0.586   0.237  0.00  0.00    -0.108 C 
BRANCH   8   9
ATOM      9  N   UNL     1      -2.666  -0.421  -0.131  0.00  0.00    +0.379 N 
ATOM     10  H   UNL     1      -3.573  -0.165   0.258  0.00  0.00    -0.089 HD
ATOM     11  H   UNL     1      -2.381  -1.328   0.239  0.00  0.00    -0.089 HD
ATOM     12  H   UNL     1      -2.734  -0.474  -1.147  0.00  0.00    -0.089 HD
ENDBRANCH   8   9
ENDBRANCH   2   8
TORSDOF 2
