REMARK  Name = 76883
REMARK  3 active torsions:
REMARK  status: ('A' for Active; 'I' for Inactive)
REMARK    1  A    between atoms: C_1  and  C_10
REMARK    2  A    between atoms: C_2  and  O_8
REMARK    3  A    between atoms: C_10  and  C_11
REMARK                            x       y       z     vdW  Elec       q    Type
REMARK                         _______ _______ _______ _____ _____    ______ ____
ROOT
ATOM      1  C   UNL     1      -0.386  -0.511   0.379  0.00  0.00    +0.016 C 
ATOM      2  C   UNL     1       0.380   0.647   0.246  0.00  0.00    +0.126 C 
ATOM      3  C   UNL     1       1.724   0.557  -0.115  0.00  0.00    +0.012 C 
ATOM      4  C   UNL     1       0.193  -1.760   0.151  0.00  0.00    -0.001 C 
ATOM      5  C   UNL     1       2.303  -0.692  -0.343  0.00  0.00    -0.001 C 
ATOM      6  C   UNL     1       1.537  -1.850  -0.210  0.00  0.00    -0.000 C 
ATOM      7  C   UNL     1       2.560   1.785  -0.263  0.00  0.00    +0.034 C 
ENDROOT
BRANCH   2   8
ATOM      8  O   UNL     1      -0.185   1.868   0.468  0.00  0.00    -0.506 OA
ATOM      9  H   UNL     1      -1.088   1.930   0.710  0.00  0.00    +0.292 HD
ENDBRANCH   2   8
BRANCH   1  10
ATOM     10  C   UNL     1      -1.827  -0.436   0.764  0.00  0.00    +0.055 C 
BRANCH  10  11
ATOM     11  C   UNL     1      -2.748  -0.327  -0.422  0.00  0.00    -0.021 C 
ATOM     12  C   UNL     1      -3.551   0.717  -0.656  0.00  0.00    -0.005 C 
ENDBRANCH  10  11
ENDBRANCH   1  10
TORSDOF 3
