REMARK  Name = 6950455
REMARK  4 active torsions:
REMARK  status: ('A' for Active; 'I' for Inactive)
REMARK    1  A    between atoms: CA_1  and  N_2
REMARK    2  A    between atoms: CA_1  and  C_8
REMARK    3  A    between atoms: CA_1  and  C_9
REMARK    4  A    between atoms: C_9  and  C_11
REMARK                            x       y       z     vdW  Elec       q    Type
REMARK                         _______ _______ _______ _____ _____    ______ ____
ROOT
ATOM      1  CA  UNL     1      -2.197  -0.591   0.357  0.00  0.00    +0.045 C 
ENDROOT
BRANCH   1   2
ATOM      2  N   UNL     1      -3.524  -1.225   0.076  0.00  0.00    +0.389 N 
ATOM      3  H1  UNL     1      -3.430  -2.240   0.110  0.00  0.00    -0.088 HD
ATOM      4  H2  UNL     1      -3.845  -0.944  -0.851  0.00  0.00    -0.088 HD
ATOM      5  H3  UNL     1      -4.201  -0.922   0.776  0.00  0.00    -0.088 HD
ENDBRANCH   1   2
BRANCH   1   8
ATOM      6  O   UNL     1      -2.584   1.430  -0.803  0.00  0.00    -0.248 OA
ATOM      7  OXT UNL     1      -2.021   1.530   1.411  0.00  0.00    -0.248 OA
ATOM      8  C   UNL     1      -2.271   0.943   0.321  0.00  0.00    +0.345 C 
ENDBRANCH   1   8
BRANCH   1   9
ATOM      9  C   UNL     1      -1.208  -1.143  -0.675  0.00  0.00    +0.016 C 
BRANCH   9  11
ATOM     10  I   UNL     1       4.764   0.754   0.412  0.00  0.00    -0.043 I 
ATOM     11  C   UNL     1       0.212  -0.694  -0.418  0.00  0.00    -0.024 C 
ATOM     12  C   UNL     1       0.666   0.480  -0.996  0.00  0.00    -0.004 C 
ATOM     13  C   UNL     1       1.032  -1.464   0.391  0.00  0.00    -0.004 C 
ATOM     14  C   UNL     1       1.976   0.896  -0.758  0.00  0.00    +0.005 C 
ATOM     15  C   UNL     1       2.342  -1.049   0.629  0.00  0.00    +0.005 C 
ATOM     16  C   UNL     1       2.814   0.132   0.054  0.00  0.00    +0.030 C 
ENDBRANCH   9  11
ENDBRANCH   1   9
TORSDOF 4
