REMARK  Name = 107984
REMARK  8 active torsions:
REMARK  status: ('A' for Active; 'I' for Inactive)
REMARK    1  A    between atoms: C_1  and  C_2
REMARK    2  A    between atoms: C_1  and  CA_10
REMARK    3  A    between atoms: C_2  and  C_3
REMARK    4  A    between atoms: C_3  and  N_4
REMARK    5  A    between atoms: N_4  and  C_6
REMARK    6  A    between atoms: CA_10  and  N_11
REMARK    7  A    between atoms: CA_10  and  C_16
REMARK    8  A    between atoms: C_16  and  O_17
REMARK                            x       y       z     vdW  Elec       q    Type
REMARK                         _______ _______ _______ _____ _____    ______ ____
ROOT
ATOM      1  C   UNL     1       0.765  -0.466  -0.880  0.00  0.00    -0.009 C 
ENDROOT
BRANCH   1   2
ATOM      2  C   UNL     1       0.154  -0.848   0.476  0.00  0.00    +0.022 C 
BRANCH   2   3
ATOM      3  C   UNL     1      -1.364  -0.982   0.413  0.00  0.00    +0.113 C 
BRANCH   3   4
ATOM      4  N   UNL     1      -1.962   0.299   0.032  0.00  0.00    -0.226 NA
BRANCH   4   6
ATOM      5  N   UNL     1      -4.070   1.402  -0.329  0.00  0.00    -0.389 N 
ATOM      6  C   UNL     1      -3.250   0.343  -0.016  0.00  0.00    +0.095 C 
ATOM      7  C   UNL     1      -3.967  -0.945   0.330  0.00  0.00    +0.068 C 
ATOM      8  H   UNL     1      -3.679   2.274  -0.565  0.00  0.00    +0.157 HD
ATOM      9  H   UNL     1      -5.048   1.288  -0.316  0.00  0.00    +0.157 HD
ENDBRANCH   4   6
ENDBRANCH   3   4
ENDBRANCH   2   3
ENDBRANCH   1   2
BRANCH   1  10
ATOM     10  CA  UNL     1       2.296  -0.353  -0.816  0.00  0.00    +0.036 C 
BRANCH  10  11
ATOM     11  N   UNL     1       2.866  -1.612  -0.343  0.00  0.00    +0.389 N 
ATOM     12  H1  UNL     1       2.589  -2.368  -0.969  0.00  0.00    -0.088 HD
ATOM     13  H2  UNL     1       2.525  -1.808   0.599  0.00  0.00    -0.088 HD
ATOM     14  H3  UNL     1       3.884  -1.539  -0.327  0.00  0.00    -0.088 HD
ENDBRANCH  10  11
BRANCH  10  16
ATOM     15  OXT UNL     1       3.445   0.502   1.156  0.00  0.00    -0.253 OA
ATOM     16  C   UNL     1       2.755   0.709   0.166  0.00  0.00    +0.293 C 
BRANCH  16  17
ATOM     17  O   UNL     1       2.333   1.951  -0.190  0.00  0.00    -0.482 OA
ATOM     18  H   UNL     1       1.805   2.065  -0.956  0.00  0.00    +0.295 HD
ENDBRANCH  16  17
ENDBRANCH  10  16
ENDBRANCH   1  10
TORSDOF 8
