REMARK  Name = 3364666
REMARK  7 active torsions:
REMARK  status: ('A' for Active; 'I' for Inactive)
REMARK    1  A    between atoms: C_1  and  N_16
REMARK    2  A    between atoms: C_2  and  N_8
REMARK    3  A    between atoms: C_4  and  C_13
REMARK    4  A    between atoms: C_13  and  O_14
REMARK    5  A    between atoms: N_16  and  C_18
REMARK    6  A    between atoms: C_18  and  N_19
REMARK    7  A    between atoms: C_18  and  N_23
REMARK                            x       y       z     vdW  Elec       q    Type
REMARK                         _______ _______ _______ _____ _____    ______ ____
ROOT
ATOM      1  C   UNL     1      -0.040   0.594  -0.056  0.00  0.00    +0.055 C 
ATOM      2  C   UNL     1      -0.992  -0.425  -0.014  0.00  0.00    +0.063 C 
ATOM      3  C   UNL     1       1.319   0.279  -0.067  0.00  0.00    +0.022 C 
ATOM      4  C   UNL     1       1.726  -1.055  -0.037  0.00  0.00    +0.077 C 
ATOM      5  C   UNL     1      -0.584  -1.759   0.017  0.00  0.00    +0.016 C 
ATOM      6  C   UNL     1       0.774  -2.074   0.005  0.00  0.00    +0.008 C 
ENDROOT
BRANCH   2   8
ATOM      7  O   UNL     1      -3.380  -2.257   0.076  0.00  0.00    -0.275 OA
ATOM      8  N   UNL     1      -2.359  -0.134  -0.001  0.00  0.00    -0.283 N 
ATOM      9  C   UNL     1      -3.432  -1.032   0.040  0.00  0.00    +0.227 C 
ATOM     10  C   UNL     1      -4.758  -0.315   0.041  0.00  0.00    +0.095 C 
ATOM     11  H   UNL     1      -2.596   0.821  -0.024  0.00  0.00    +0.155 HD
ENDBRANCH   2   8
BRANCH   4  13
ATOM     12  O   UNL     1       4.067  -0.566  -0.085  0.00  0.00    -0.245 OA
ATOM     13  C   UNL     1       3.143  -1.384  -0.049  0.00  0.00    +0.338 C 
BRANCH  13  14
ATOM     14  O   UNL     1       3.366  -2.726  -0.015  0.00  0.00    -0.477 OA
ATOM     15  H   UNL     1       2.642  -3.321   0.013  0.00  0.00    +0.295 HD
ENDBRANCH  13  14
ENDBRANCH   4  13
BRANCH   1  16
ATOM     16  N   UNL     1      -0.431   1.951  -0.088  0.00  0.00    -0.372 N 
ATOM     17  H   UNL     1      -1.395   2.149  -0.080  0.00  0.00    +0.142 HD
BRANCH  16  18
ATOM     18  C   UNL     1       0.485   3.077  -0.133  0.00  0.00    -0.062 C 
BRANCH  18  19
ATOM     19  N   UNL     1      -0.046   4.311  -0.746  0.00  0.00    +0.381 N 
ATOM     20  H   UNL     1      -0.518   4.081  -1.620  0.00  0.00    -0.090 HD
ATOM     21  H   UNL     1       0.722   4.956  -0.933  0.00  0.00    -0.090 HD
ATOM     22  H   UNL     1      -0.709   4.750  -0.106  0.00  0.00    -0.090 HD
ENDBRANCH  18  19
BRANCH  18  23
ATOM     23  N   UNL     1       1.141   3.517   1.113  0.00  0.00    +0.381 N 
ATOM     24  H   UNL     1       1.535   2.709   1.594  0.00  0.00    -0.090 HD
ATOM     25  H   UNL     1       0.455   3.971   1.716  0.00  0.00    -0.090 HD
ATOM     26  H   UNL     1       1.887   4.176   0.889  0.00  0.00    -0.090 HD
ENDBRANCH  18  23
ENDBRANCH  16  18
ENDBRANCH   1  16
TORSDOF 7
