REMARK  Name = 5287781
REMARK  2 active torsions:
REMARK  status: ('A' for Active; 'I' for Inactive)
REMARK    1  A    between atoms: CA_3  and  C_9
REMARK    2  A    between atoms: C_9  and  O_10
REMARK                            x       y       z     vdW  Elec       q    Type
REMARK                         _______ _______ _______ _____ _____    ______ ____
ROOT
ATOM      1  N   ILE A   1      -0.328   1.272  -0.683  0.00  0.00    -0.324 N 
ATOM      2  CB  ILE A   1      -0.831  -0.775   0.359  0.00  0.00    +0.052 C 
ATOM      3  CA  ILE A   1       0.186  -0.076  -0.586  0.00  0.00    +0.173 C 
ATOM      4  CG1 ILE A   1      -1.813   0.331   0.688  0.00  0.00    -0.009 C 
ATOM      5  CG2 ILE A   1      -1.525  -1.949  -0.321  0.00  0.00    +0.007 C 
ATOM      6  CD1 ILE A   1      -1.455   1.452   0.056  0.00  0.00    +0.054 C 
ATOM      7  H   ILE A   1       0.091   1.981  -1.223  0.00  0.00    +0.147 HD
ENDROOT
BRANCH   3   9
ATOM      8  OXT ILE A   1       2.131   1.014   0.337  0.00  0.00    -0.248 OA
ATOM      9  C   ILE A   1       1.555  -0.013   0.010  0.00  0.00    +0.332 C 
BRANCH   9  10
ATOM     10  O   ILE A   1       2.079  -1.256   0.139  0.00  0.00    -0.479 OA
ATOM     11  H   ILE A   1       1.584  -2.004  -0.132  0.00  0.00    +0.295 HD
ENDBRANCH   9  10
ENDBRANCH   3   9
TORSDOF 2
