REMARK  Name = 6386
REMARK  1 active torsions:
REMARK  status: ('A' for Active; 'I' for Inactive)
REMARK    1  A    between atoms: C_1  and  O_5
REMARK                            x       y       z     vdW  Elec       q    Type
REMARK                         _______ _______ _______ _____ _____    ______ ____
ROOT
ATOM      1  C   UNL     1       0.000  -0.004   0.001  0.00  0.00    +0.089 C 
ATOM      2  C   UNL     1      -1.274  -0.724  -0.439  0.00  0.00    +0.029 C 
ATOM      3  C   UNL     1       0.032   1.419  -0.553  0.00  0.00    +0.029 C 
ATOM      4  C   UNL     1       1.242  -0.779  -0.436  0.00  0.00    +0.029 C 
ENDROOT
BRANCH   1   5
ATOM      5  O   UNL     1       0.000   0.089   1.426  0.00  0.00    -0.387 OA
ATOM      6  H   UNL     1      -0.784   0.579   1.719  0.00  0.00    +0.210 HD
ENDBRANCH   1   5
TORSDOF 1
