REMARK  Name = 4476954
REMARK  14 active torsions:
REMARK  status: ('A' for Active; 'I' for Inactive)
REMARK    1  A    between atoms: C_1  and  C_2
REMARK    2  A    between atoms: C_1  and  C_14
REMARK    3  A    between atoms: C_2  and  N_3
REMARK    4  A    between atoms: N_3  and  C_7
REMARK    5  A    between atoms: C_8  and  N_11
REMARK    6  A    between atoms: C_14  and  O_15
REMARK    7  A    between atoms: O_15  and  C_16
REMARK    8  A    between atoms: C_16  and  C_17
REMARK    9  A    between atoms: C_17  and  O_18
REMARK   10  A    between atoms: O_18  and  C_19
REMARK   11  A    between atoms: C_19  and  C_20
REMARK   12  A    between atoms: C_20  and  O_21
REMARK   13  A    between atoms: O_21  and  C_22
REMARK   14  A    between atoms: C_22  and  C_23
REMARK                            x       y       z     vdW  Elec       q    Type
REMARK                         _______ _______ _______ _____ _____    ______ ____
ROOT
ATOM      1  C   UNL     1       3.513  -2.165  -1.242  0.00  0.00    +0.053 C 
ENDROOT
BRANCH   1   2
ATOM      2  C   UNL     1       3.026  -0.749  -1.528  0.00  0.00    +0.090 C 
BRANCH   2   3
ATOM      3  N   UNL     1       3.362   0.141  -0.442  0.00  0.00    -0.329 N 
ATOM      4  H   UNL     1       4.176  -0.045   0.080  0.00  0.00    +0.147 HD
BRANCH   3   7
ATOM      5  O   UNL     1       4.120   3.128   0.478  0.00  0.00    -0.282 OA
ATOM      6  O   UNL     1       1.193   3.953   0.741  0.00  0.00    -0.282 OA
ATOM      7  C   UNL     1       2.636   1.185  -0.117  0.00  0.00    +0.104 C 
ATOM      8  C   UNL     1       1.334   1.552   0.000  0.00  0.00    +0.101 C 
ATOM      9  C   UNL     1       3.107   2.508   0.289  0.00  0.00    +0.250 C 
ATOM     10  C   UNL     1       1.691   2.906   0.416  0.00  0.00    +0.250 C 
BRANCH   8  11
ATOM     11  N   UNL     1       0.136   1.054  -0.149  0.00  0.00    -0.353 N 
ATOM     12  H   UNL     1       0.024   0.119  -0.437  0.00  0.00    +0.142 HD
ATOM     13  H   UNL     1      -0.655   1.613   0.026  0.00  0.00    +0.142 HD
ENDBRANCH   8  11
ENDBRANCH   3   7
ENDBRANCH   2   3
ENDBRANCH   1   2
BRANCH   1  14
ATOM     14  C   UNL     1       2.901  -2.759   0.021  0.00  0.00    +0.144 C 
BRANCH  14  15
ATOM     15  O   UNL     1       1.490  -2.816  -0.137  0.00  0.00    -0.351 OA
BRANCH  15  16
ATOM     16  C   UNL     1       0.858  -3.363   1.013  0.00  0.00    +0.174 C 
BRANCH  16  17
ATOM     17  C   UNL     1      -0.643  -3.374   0.794  0.00  0.00    +0.174 C 
BRANCH  17  18
ATOM     18  O   UNL     1      -1.095  -2.039   0.604  0.00  0.00    -0.348 OA
BRANCH  18  19
ATOM     19  C   UNL     1      -2.499  -1.990   0.393  0.00  0.00    +0.174 C 
BRANCH  19  20
ATOM     20  C   UNL     1      -2.919  -0.546   0.197  0.00  0.00    +0.174 C 
BRANCH  20  21
ATOM     21  O   UNL     1      -4.322  -0.498  -0.034  0.00  0.00    -0.351 OA
BRANCH  21  22
ATOM     22  C   UNL     1      -4.777   0.837  -0.203  0.00  0.00    +0.142 C 
BRANCH  22  23
ATOM     23  C   UNL     1      -6.278   0.819  -0.445  0.00  0.00    +0.032 C 
ATOM     24  C   UNL     1      -6.835   2.216  -0.650  0.00  0.00    +0.003 C 
ENDBRANCH  22  23
ENDBRANCH  21  22
ENDBRANCH  20  21
ENDBRANCH  19  20
ENDBRANCH  18  19
ENDBRANCH  17  18
ENDBRANCH  16  17
ENDBRANCH  15  16
ENDBRANCH  14  15
ENDBRANCH   1  14
TORSDOF 14
