REMARK  Name = 5288685
REMARK  3 active torsions:
REMARK  status: ('A' for Active; 'I' for Inactive)
REMARK    1  A    between atoms: C_4  and  C_16
REMARK    2  A    between atoms: C_6  and  C_10
REMARK    3  A    between atoms: C_19  and  O_22
REMARK                            x       y       z     vdW  Elec       q    Type
REMARK                         _______ _______ _______ _____ _____    ______ ____
ROOT
ATOM      1  O   UNL     1      -2.468   2.933  -0.124  0.00  0.00    -0.273 OA
ATOM      2  N   UNL     1      -0.585   1.599  -0.218  0.00  0.00    -0.178 N 
ATOM      3  N   UNL     1       0.695   1.379   0.198  0.00  0.00    -0.180 NA
ATOM      4  C   UNL     1      -1.041   0.625  -1.212  0.00  0.00    +0.127 C 
ATOM      5  C   UNL     1       0.236  -0.120  -1.581  0.00  0.00    +0.074 C 
ATOM      6  C   UNL     1       1.169   0.404  -0.517  0.00  0.00    +0.079 C 
ATOM      7  C   UNL     1      -1.323   2.670   0.248  0.00  0.00    +0.245 C 
ATOM      8  C   UNL     1      -0.633   3.535   1.274  0.00  0.00    +0.097 C 
ENDROOT
BRANCH   6  10
ATOM      9 CL   UNL     1       2.391   0.452   2.320  0.00  0.00    -0.082 Cl
ATOM     10  C   UNL     1       2.532  -0.142  -0.339  0.00  0.00    +0.026 C 
ATOM     11  C   UNL     1       3.168  -0.164   0.906  0.00  0.00    +0.059 C 
ATOM     12  C   UNL     1       3.194  -0.650  -1.460  0.00  0.00    +0.002 C 
ATOM     13  C   UNL     1       4.454  -0.690   1.029  0.00  0.00    +0.011 C 
ATOM     14  C   UNL     1       4.481  -1.176  -1.338  0.00  0.00    +0.000 C 
ATOM     15  C   UNL     1       5.111  -1.195  -0.093  0.00  0.00    +0.001 C 
ENDBRANCH   6  10
BRANCH   4  16
ATOM     16  C   UNL     1      -2.128  -0.285  -0.675  0.00  0.00    +0.001 C 
ATOM     17  C   UNL     1      -1.872  -1.097   0.429  0.00  0.00    +0.034 C 
ATOM     18  C   UNL     1      -3.379  -0.309  -1.287  0.00  0.00    -0.002 C 
ATOM     19  C   UNL     1      -2.872  -1.934   0.923  0.00  0.00    +0.133 C 
ATOM     20  C   UNL     1      -4.380  -1.146  -0.793  0.00  0.00    +0.003 C 
ATOM     21  C   UNL     1      -4.126  -1.959   0.312  0.00  0.00    +0.037 C 
BRANCH  19  22
ATOM     22  O   UNL     1      -2.625  -2.728   2.000  0.00  0.00    -0.506 OA
ATOM     23  H   UNL     1      -1.782  -2.711   2.411  0.00  0.00    +0.292 HD
ENDBRANCH  19  22
ENDBRANCH   4  16
TORSDOF 3
