REMARK  Name = 1933
REMARK  3 active torsions:
REMARK  status: ('A' for Active; 'I' for Inactive)
REMARK    1  A    between atoms: C_8  and  N_15
REMARK    2  A    between atoms: N_15  and  C_17
REMARK    3  A    between atoms: C_17  and  C_18
REMARK                            x       y       z     vdW  Elec       q    Type
REMARK                         _______ _______ _______ _____ _____    ______ ____
ROOT
ATOM      1  N   UNL     1      -3.339   0.127  -0.297  0.00  0.00    -0.410 NA
ATOM      2  C   UNL     1      -0.346   2.389   0.302  0.00  0.00    +0.030 C 
ATOM      3  C   UNL     1      -1.207   1.162   0.178  0.00  0.00    +0.013 C 
ATOM      4  C   UNL     1      -1.155   3.677   0.458  0.00  0.00    +0.005 C 
ATOM      5  C   UNL     1      -2.297   3.716  -0.550  0.00  0.00    +0.008 C 
ATOM      6  C   UNL     1      -3.257   2.553  -0.307  0.00  0.00    +0.059 C 
ATOM      7  C   UNL     1      -2.558   1.228  -0.151  0.00  0.00    +0.105 C 
ATOM      8  C   UNL     1      -0.645  -0.106   0.330  0.00  0.00    +0.030 C 
ATOM      9  C   UNL     1      -1.429  -1.257   0.177  0.00  0.00    +0.109 C 
ATOM     10  C   UNL     1      -2.790  -1.091  -0.139  0.00  0.00    +0.118 C 
ATOM     11  C   UNL     1      -0.887  -2.544   0.331  0.00  0.00    -0.014 C 
ATOM     12  C   UNL     1      -3.572  -2.233  -0.290  0.00  0.00    +0.028 C 
ATOM     13  C   UNL     1      -1.690  -3.670   0.175  0.00  0.00    -0.004 C 
ATOM     14  C   UNL     1      -3.035  -3.514  -0.136  0.00  0.00    +0.002 C 
ENDROOT
BRANCH   8  15
ATOM     15  N   UNL     1       0.733  -0.220   0.649  0.00  0.00    -0.332 N 
ATOM     16  H   UNL     1       1.059  -1.059   1.046  0.00  0.00    +0.147 HD
BRANCH  15  17
ATOM     17  C   UNL     1       1.664   0.834   0.415  0.00  0.00    +0.114 C 
BRANCH  17  18
ATOM     18  C   UNL     1       3.039   0.308   0.099  0.00  0.00    -0.003 C 
ATOM     19  C   UNL     1       3.939   0.086   1.132  0.00  0.00    -0.003 C 
ATOM     20  C   UNL     1       3.386   0.054  -1.220  0.00  0.00    -0.003 C 
ATOM     21  C   UNL     1       5.213  -0.402   0.839  0.00  0.00    -0.000 C 
ATOM     22  C   UNL     1       4.660  -0.434  -1.513  0.00  0.00    -0.000 C 
ATOM     23  C   UNL     1       5.574  -0.661  -0.483  0.00  0.00    -0.000 C 
ENDBRANCH  17  18
ENDBRANCH  15  17
ENDBRANCH   8  15
TORSDOF 3
