REMARK  Name = 11309850
REMARK  9 active torsions:
REMARK  status: ('A' for Active; 'I' for Inactive)
REMARK    1  A    between atoms: C_1  and  O_2
REMARK    2  A    between atoms: C_1  and  C_4
REMARK    3  A    between atoms: C_1  and  C_10
REMARK    4  A    between atoms: C_4  and  O_5
REMARK    5  A    between atoms: C_4  and  C_7
REMARK    6  A    between atoms: C_7  and  O_8
REMARK    7  A    between atoms: C_10  and  C_12
REMARK    8  A    between atoms: C_12  and  C_14
REMARK    9  A    between atoms: C_14  and  O_15
REMARK                            x       y       z     vdW  Elec       q    Type
REMARK                         _______ _______ _______ _____ _____    ______ ____
ROOT
ATOM      1  C   UNL     1       0.847   0.685   0.113  0.00  0.00    +0.148 C 
ENDROOT
BRANCH   1   2
ATOM      2  O   UNL     1       0.634   1.892  -0.619  0.00  0.00    -0.381 OA
ATOM      3  H   UNL     1       1.349   2.518  -0.425  0.00  0.00    +0.210 HD
ENDBRANCH   1   2
BRANCH   1   4
ATOM      4  C   UNL     1       2.218   0.115  -0.281  0.00  0.00    +0.167 C 
BRANCH   4   5
ATOM      5  O   UNL     1       3.221   1.093  -0.006  0.00  0.00    -0.379 OA
ATOM      6  H   UNL     1       3.018   1.909  -0.490  0.00  0.00    +0.211 HD
ENDBRANCH   4   5
BRANCH   4   7
ATOM      7  C   UNL     1       2.560  -1.158   0.493  0.00  0.00    +0.169 C 
BRANCH   7   8
ATOM      8  O   UNL     1       3.855  -1.602   0.098  0.00  0.00    -0.379 OA
ATOM      9  H   UNL     1       4.082  -2.410   0.584  0.00  0.00    +0.211 HD
ENDBRANCH   7   8
ENDBRANCH   4   7
ENDBRANCH   1   4
BRANCH   1  10
ATOM     10  C   UNL     1      -0.292  -0.295  -0.204  0.00  0.00    +0.108 C 
BRANCH  10  12
ATOM     11  O   UNL     1      -1.878   1.383   0.596  0.00  0.00    -0.284 OA
ATOM     12  C   UNL     1      -1.653   0.271   0.141  0.00  0.00    +0.250 C 
BRANCH  12  14
ATOM     13  O   UNL     1      -2.711  -1.763  -0.498  0.00  0.00    -0.242 OA
ATOM     14  C   UNL     1      -2.836  -0.625  -0.094  0.00  0.00    +0.373 C 
BRANCH  14  15
ATOM     15  O   UNL     1      -3.964   0.003   0.260  0.00  0.00    -0.475 OA
ATOM     16  H   UNL     1      -3.932   0.890   0.560  0.00  0.00    +0.295 HD
ENDBRANCH  14  15
ENDBRANCH  12  14
ENDBRANCH  10  12
ENDBRANCH   1  10
TORSDOF 9
