445463
  -OEChem-10051720103D

 48 48  0     1  0  0  0  0  0999 V2000
   -3.9672    1.1663    0.3199 O   0  0  0  0  0  0  0  0  0  0  0  0
   -0.5025    0.4619   -0.6017 O   0  0  0  0  0  0  0  0  0  0  0  0
   -1.5332   -2.1416    0.3153 O   0  0  0  0  0  0  0  0  0  0  0  0
   -4.3317   -2.4150   -0.3545 O   0  0  0  0  0  0  0  0  0  0  0  0
   -2.1329    2.6073    0.2626 O   0  0  0  0  0  0  0  0  0  0  0  0
   -6.6978    1.0737    0.0168 O   0  0  0  0  0  0  0  0  0  0  0  0
   -2.3116   -1.1025   -0.2804 C   0  0  2  0  0  0  0  0  0  0  0  0
   -1.7261    0.2563    0.1040 C   0  0  2  0  0  0  0  0  0  0  0  0
   -3.7504   -1.2457    0.2162 C   0  0  1  0  0  0  0  0  0  0  0  0
   -4.5841   -0.0234   -0.1753 C   0  0  1  0  0  0  0  0  0  0  0  0
   -2.6818    1.3948   -0.2529 C   0  0  1  0  0  0  0  0  0  0  0  0
   -5.9916   -0.0891    0.4094 C   0  0  0  0  0  0  0  0  0  0  0  0
    0.5772   -0.2264    0.0143 C   0  0  0  0  0  0  0  0  0  0  0  0
    1.8855    0.4124   -0.4301 C   0  0  0  0  0  0  0  0  0  0  0  0
    3.0943   -0.2915    0.1850 C   0  0  0  0  0  0  0  0  0  0  0  0
    4.4016    0.3841   -0.2350 C   0  0  0  0  0  0  0  0  0  0  0  0
    5.6494   -0.2963    0.3357 C   0  0  0  0  0  0  0  0  0  0  0  0
    6.9591    0.3337   -0.1431 C   0  0  0  0  0  0  0  0  0  0  0  0
    8.1698   -0.4282    0.3983 C   0  0  0  0  0  0  0  0  0  0  0  0
    9.4742    0.1693   -0.1044 C   0  0  0  0  0  0  0  0  0  0  0  0
   -2.2526   -1.2582   -1.3641 H   0  0  0  0  0  0  0  0  0  0  0  0
   -1.5400    0.2976    1.1865 H   0  0  0  0  0  0  0  0  0  0  0  0
   -3.7531   -1.3774    1.3052 H   0  0  0  0  0  0  0  0  0  0  0  0
   -4.6738    0.0595   -1.2671 H   0  0  0  0  0  0  0  0  0  0  0  0
   -2.7671    1.5093   -1.3410 H   0  0  0  0  0  0  0  0  0  0  0  0
   -6.5351   -0.9683    0.0504 H   0  0  0  0  0  0  0  0  0  0  0  0
   -5.9589   -0.1054    1.5040 H   0  0  0  0  0  0  0  0  0  0  0  0
    0.5116   -0.1835    1.1079 H   0  0  0  0  0  0  0  0  0  0  0  0
    0.5763   -1.2715   -0.3084 H   0  0  0  0  0  0  0  0  0  0  0  0
    1.9494    0.3902   -1.5252 H   0  0  0  0  0  0  0  0  0  0  0  0
    1.8816    1.4736   -0.1512 H   0  0  0  0  0  0  0  0  0  0  0  0
    3.0140   -0.2794    1.2787 H   0  0  0  0  0  0  0  0  0  0  0  0
    3.1069   -1.3427   -0.1273 H   0  0  0  0  0  0  0  0  0  0  0  0
   -1.5538   -2.0199    1.2798 H   0  0  0  0  0  0  0  0  0  0  0  0
   -4.3455   -2.3027   -1.3204 H   0  0  0  0  0  0  0  0  0  0  0  0
    4.4671    0.3875   -1.3303 H   0  0  0  0  0  0  0  0  0  0  0  0
    4.3889    1.4335    0.0843 H   0  0  0  0  0  0  0  0  0  0  0  0
    5.6357   -1.3560    0.0512 H   0  0  0  0  0  0  0  0  0  0  0  0
    5.6083   -0.2627    1.4315 H   0  0  0  0  0  0  0  0  0  0  0  0
   -2.4990    3.3344   -0.2690 H   0  0  0  0  0  0  0  0  0  0  0  0
    7.0029    1.3806    0.1800 H   0  0  0  0  0  0  0  0  0  0  0  0
    6.9854    0.3319   -1.2395 H   0  0  0  0  0  0  0  0  0  0  0  0
   -7.5884    1.0127    0.4025 H   0  0  0  0  0  0  0  0  0  0  0  0
    8.1166   -1.4795    0.0922 H   0  0  0  0  0  0  0  0  0  0  0  0
    8.1618   -0.4084    1.4943 H   0  0  0  0  0  0  0  0  0  0  0  0
    9.5742    1.2131    0.2099 H   0  0  0  0  0  0  0  0  0  0  0  0
    9.5273    0.1326   -1.1972 H   0  0  0  0  0  0  0  0  0  0  0  0
   10.3261   -0.3892    0.2958 H   0  0  0  0  0  0  0  0  0  0  0  0
  1 10  1  0  0  0  0
  1 11  1  0  0  0  0
  2  8  1  0  0  0  0
  2 13  1  0  0  0  0
  3  7  1  0  0  0  0
  3 34  1  0  0  0  0
  4  9  1  0  0  0  0
  4 35  1  0  0  0  0
  5 11  1  0  0  0  0
  5 40  1  0  0  0  0
  6 12  1  0  0  0  0
  6 43  1  0  0  0  0
  7  8  1  0  0  0  0
  7  9  1  0  0  0  0
  7 21  1  0  0  0  0
  8 11  1  0  0  0  0
  8 22  1  0  0  0  0
  9 10  1  0  0  0  0
  9 23  1  0  0  0  0
 10 12  1  0  0  0  0
 10 24  1  0  0  0  0
 11 25  1  0  0  0  0
 12 26  1  0  0  0  0
 12 27  1  0  0  0  0
 13 14  1  0  0  0  0
 13 28  1  0  0  0  0
 13 29  1  0  0  0  0
 14 15  1  0  0  0  0
 14 30  1  0  0  0  0
 14 31  1  0  0  0  0
 15 16  1  0  0  0  0
 15 32  1  0  0  0  0
 15 33  1  0  0  0  0
 16 17  1  0  0  0  0
 16 36  1  0  0  0  0
 16 37  1  0  0  0  0
 17 18  1  0  0  0  0
 17 38  1  0  0  0  0
 17 39  1  0  0  0  0
 18 19  1  0  0  0  0
 18 41  1  0  0  0  0
 18 42  1  0  0  0  0
 19 20  1  0  0  0  0
 19 44  1  0  0  0  0
 19 45  1  0  0  0  0
 20 46  1  0  0  0  0
 20 47  1  0  0  0  0
 20 48  1  0  0  0  0
M  END
> <DATABASE_ID>
DB03152

> <DATABASE_NAME>
drugbank

> <ORIGINAL_SOURCE>
PUBCHEM

> <ORIGINAL_SOURCE_URL>
https://pubchem.ncbi.nlm.nih.gov/rest/pug/compound/inchikey/BVHPDIWLWHHJPD-RKQHYHRCSA-N/SDF?record_type=3d

> <SMILES>
[H][C@@]1(O)O[C@]([H])(CO)[C@@]([H])(O)[C@]([H])(O)[C@@]1([H])OCCCCCCCC

> <INCHI_IDENTIFIER>
InChI=1S/C14H28O6/c1-2-3-4-5-6-7-8-19-13-12(17)11(16)10(9-15)20-14(13)18/h10-18H,2-9H2,1H3/t10-,11-,12+,13-,14-/m1/s1

> <INCHI_KEY>
BVHPDIWLWHHJPD-RKQHYHRCSA-N

> <FORMULA>
C14H28O6

> <MOLECULAR_WEIGHT>
292.3685

> <EXACT_MASS>
292.188588628

> <JCHEM_ACCEPTOR_COUNT>
6

> <JCHEM_AVERAGE_POLARIZABILITY>
33.39282697677727

> <JCHEM_BIOAVAILABILITY>
1

> <JCHEM_DONOR_COUNT>
4

> <JCHEM_FORMAL_CHARGE>
0

> <JCHEM_GHOSE_FILTER>
1

> <JCHEM_IUPAC>
(2R,3R,4S,5S,6R)-6-(hydroxymethyl)-3-(octyloxy)oxane-2,4,5-triol

> <ALOGPS_LOGP>
1.20

> <JCHEM_LOGP>
0.8127609603333328

> <ALOGPS_LOGS>
-1.28

> <JCHEM_MDDR_LIKE_RULE>
0

> <JCHEM_NUMBER_OF_RINGS>
1

> <JCHEM_PHYSIOLOGICAL_CHARGE>
0

> <JCHEM_PKA>
12.788478169160264

> <JCHEM_PKA_STRONGEST_ACIDIC>
11.326057034301938

> <JCHEM_PKA_STRONGEST_BASIC>
-2.981079411309678

> <JCHEM_POLAR_SURFACE_AREA>
99.38000000000001

> <JCHEM_REFRACTIVITY>
72.9522

> <JCHEM_ROTATABLE_BOND_COUNT>
9

> <JCHEM_RULE_OF_FIVE>
1

> <ALOGPS_SOLUBILITY>
1.52e+01 g/l

> <JCHEM_TRADITIONAL_IUPAC>
Î²-2-octylglucoside

> <JCHEM_VEBER_RULE>
0

> <DRUGBANK_ID>
DB03152

> <SECONDARY_ACCESSION_NUMBERS>
EXPT00687

> <DRUG_GROUPS>
experimental

> <GENERIC_NAME>
B-2-Octylglucoside

$$$$
