REMARK  Name = 54369
REMARK  4 active torsions:
REMARK  status: ('A' for Active; 'I' for Inactive)
REMARK    1  A    between atoms: C_6  and  C_18
REMARK    2  A    between atoms: C_18  and  C_19
REMARK    3  A    between atoms: C_20  and  O_25
REMARK    4  A    between atoms: C_22  and  O_27
REMARK                            x       y       z     vdW  Elec       q    Type
REMARK                         _______ _______ _______ _____ _____    ______ ____
ROOT
ATOM      1  N   UNL     1      -1.208   1.156   1.009  0.00  0.00    -0.182 NA
ATOM      2  N   UNL     1      -3.500   1.441   1.174  0.00  0.00    -0.273 NA
ATOM      3  N   UNL     1      -5.028   0.148  -0.165  0.00  0.00    -0.312 NA
ATOM      4  N   UNL     1      -4.255  -1.437  -1.677  0.00  0.00    -0.332 N 
ATOM      5  N   UNL     1      -5.820   1.744   1.354  0.00  0.00    -0.283 N 
ATOM      6  C   UNL     1      -0.259  -0.456  -0.519  0.00  0.00    -0.001 C 
ATOM      7  C   UNL     1      -1.535  -0.804  -0.923  0.00  0.00    -0.010 C 
ATOM      8  C   UNL     1      -2.643  -0.162  -0.350  0.00  0.00    +0.115 C 
ATOM      9  C   UNL     1      -0.150   0.524   0.444  0.00  0.00    +0.106 C 
ATOM     10  C   UNL     1      -2.447   0.825   0.624  0.00  0.00    +0.104 C 
ATOM     11  C   UNL     1      -1.635  -1.871  -1.971  0.00  0.00    +0.032 C 
ATOM     12  C   UNL     1      -3.957  -0.457  -0.704  0.00  0.00    +0.201 C 
ATOM     13  C   UNL     1      -4.730   1.076   0.756  0.00  0.00    +0.206 C 
ATOM     14  H   UNL     1      -5.191  -1.629  -1.912  0.00  0.00    +0.145 HD
ATOM     15  H   UNL     1      -3.525  -1.927  -2.121  0.00  0.00    +0.145 HD
ATOM     16  H   UNL     1      -5.659   2.435   2.037  0.00  0.00    +0.156 HD
ATOM     17  H   UNL     1      -6.741   1.520   1.088  0.00  0.00    +0.156 HD
ENDROOT
BRANCH   6  18
ATOM     18  C   UNL     1       0.968  -1.089  -1.079  0.00  0.00    +0.057 C 
BRANCH  18  19
ATOM     19  C   UNL     1       2.260  -0.554  -0.493  0.00  0.00    +0.019 C 
ATOM     20  C   UNL     1       2.806  -1.148   0.631  0.00  0.00    +0.135 C 
ATOM     21  C   UNL     1       2.864   0.529  -1.107  0.00  0.00    +0.036 C 
ATOM     22  C   UNL     1       4.053   1.034  -0.581  0.00  0.00    +0.139 C 
ATOM     23  C   UNL     1       3.995  -0.643   1.157  0.00  0.00    +0.040 C 
ATOM     24  C   UNL     1       4.618   0.448   0.552  0.00  0.00    +0.040 C 
BRANCH  20  25
ATOM     25  O   UNL     1       2.209  -2.213   1.235  0.00  0.00    -0.472 OA
ATOM     26  C   UNL     1       2.856  -2.750   2.388  0.00  0.00    +0.252 C 
ENDBRANCH  20  25
BRANCH  22  27
ATOM     27  O   UNL     1       4.662   2.097  -1.172  0.00  0.00    -0.471 OA
ATOM     28  C   UNL     1       5.875   2.562  -0.582  0.00  0.00    +0.252 C 
ENDBRANCH  22  27
ENDBRANCH  18  19
ENDBRANCH   6  18
TORSDOF 4
