REMARK  Name = 1836
REMARK  3 active torsions:
REMARK  status: ('A' for Active; 'I' for Inactive)
REMARK    1  A    between atoms: C_1  and  C_12
REMARK    2  A    between atoms: C_6  and  O_19
REMARK    3  A    between atoms: O_19  and  C_20
REMARK                            x       y       z     vdW  Elec       q    Type
REMARK                         _______ _______ _______ _____ _____    ______ ____
ROOT
ATOM      1  C   UNL     1       1.087   0.867  -0.151  0.00  0.00    -0.006 C 
ATOM      2  C   UNL     1       0.354  -0.100   0.525  0.00  0.00    -0.000 C 
ATOM      3  C   UNL     1       0.476   2.019  -0.629  0.00  0.00    -0.000 C 
ATOM      4  C   UNL     1      -1.014   0.089   0.727  0.00  0.00    +0.037 C 
ATOM      5  C   UNL     1      -0.892   2.208  -0.427  0.00  0.00    +0.037 C 
ATOM      6  C   UNL     1      -1.636   1.242   0.251  0.00  0.00    +0.145 C 
ENDROOT
BRANCH   1  12
ATOM      7  O   UNL     1       3.332   1.492   1.773  0.00  0.00    -0.274 OA
ATOM      8  O   UNL     1       2.432  -0.452  -2.515  0.00  0.00    -0.274 OA
ATOM      9  O   UNL     1       4.225  -2.917   0.904  0.00  0.00    -0.252 OA
ATOM     10  N   UNL     1       3.732  -0.714   1.319  0.00  0.00    -0.239 N 
ATOM     11  N   UNL     1       3.289  -1.665  -0.776  0.00  0.00    -0.239 N 
ATOM     12  C   UNL     1       2.560   0.664  -0.369  0.00  0.00    +0.157 C 
ATOM     13  C   UNL     1       3.134   1.911  -1.055  0.00  0.00    +0.023 C 
ATOM     14  C   UNL     1       3.246   0.540   0.995  0.00  0.00    +0.240 C 
ATOM     15  C   UNL     1       2.758  -0.513  -1.328  0.00  0.00    +0.240 C 
ATOM     16  C   UNL     1       3.772  -1.840   0.511  0.00  0.00    +0.312 C 
ATOM     17  H   UNL     1       4.091  -0.819   2.230  0.00  0.00    +0.159 HD
ATOM     18  H   UNL     1       3.330  -2.452  -1.366  0.00  0.00    +0.159 HD
ENDBRANCH   1  12
BRANCH   6  19
ATOM     19  O   UNL     1      -2.970   1.428   0.449  0.00  0.00    -0.453 OA
BRANCH  19  20
ATOM     20  C   UNL     1      -3.812   0.355   0.207  0.00  0.00    +0.145 C 
ATOM     21  C   UNL     1      -3.634  -0.394  -0.942  0.00  0.00    +0.037 C 
ATOM     22  C   UNL     1      -4.808   0.061   1.120  0.00  0.00    +0.037 C 
ATOM     23  C   UNL     1      -4.481  -1.474  -1.187  0.00  0.00    +0.003 C 
ATOM     24  C   UNL     1      -5.656  -1.019   0.875  0.00  0.00    +0.003 C 
ATOM     25  C   UNL     1      -5.493  -1.787  -0.278  0.00  0.00    +0.000 C 
ENDBRANCH  19  20
ENDBRANCH   6  19
TORSDOF 3
