REMARK  Name = 6323197
REMARK  8 active torsions:
REMARK  status: ('A' for Active; 'I' for Inactive)
REMARK    1  A    between atoms: C_3  and  C_24
REMARK    2  A    between atoms: C_4  and  N_8
REMARK    3  A    between atoms: C_7  and  C_14
REMARK    4  A    between atoms: N_8  and  S_10
REMARK    5  A    between atoms: C_15  and  C_16
REMARK    6  A    between atoms: C_16  and  N_17
REMARK    7  A    between atoms: C_24  and  C_25
REMARK    8  A    between atoms: C_24  and  C_29
REMARK                            x       y       z     vdW  Elec       q    Type
REMARK                         _______ _______ _______ _____ _____    ______ ____
ROOT
ATOM      1  O   UNL     1       0.296  -0.457  -2.179  0.00  0.00    -0.270 OA
ATOM      2  N   UNL     1      -0.602   0.328  -0.192  0.00  0.00    -0.276 N 
ATOM      3  C   UNL     1      -1.915  -0.308  -0.355  0.00  0.00    +0.099 C 
ATOM      4  C   UNL     1      -2.808   0.406   0.667  0.00  0.00    +0.095 C 
ATOM      5  C   UNL     1      -1.839   0.804   1.777  0.00  0.00    +0.041 C 
ATOM      6  C   UNL     1      -0.546   1.120   1.036  0.00  0.00    +0.095 C 
ATOM      7  C   UNL     1       0.385   0.223  -1.157  0.00  0.00    +0.249 C 
ENDROOT
BRANCH   4   8
ATOM      8  N   UNL     1      -3.399   1.623   0.054  0.00  0.00    -0.183 NA
ATOM      9  H   UNL     1      -3.020   2.426   0.556  0.00  0.00    +0.148 HD
BRANCH   8  10
ATOM     10  S   UNL     1      -5.092   1.796   0.042  0.00  0.00    +0.043 S 
ATOM     11  O   UNL     1      -5.724   0.493  -0.029  0.00  0.00    -0.157 OA
ATOM     12  O   UNL     1      -5.433   2.838  -0.907  0.00  0.00    -0.157 OA
ATOM     13  C   UNL     1      -5.369   2.451   1.671  0.00  0.00    +0.196 C 
ENDBRANCH   8  10
ENDBRANCH   4   8
BRANCH   7  14
ATOM     14  C   UNL     1       1.624   0.992  -0.927  0.00  0.00    +0.051 C 
ATOM     15  C   UNL     1       2.777   0.519  -1.412  0.00  0.00    -0.044 C 
BRANCH  15  16
ATOM     16  C   UNL     1       4.090   1.223  -1.244  0.00  0.00    -0.050 C 
BRANCH  16  17
ATOM     17  N   UNL     1       5.058   0.393  -0.529  0.00  0.00    +0.390 N 
ATOM     18  C   UNL     1       4.808   0.442   0.919  0.00  0.00    -0.077 C 
ATOM     19  C   UNL     1       6.430   0.814  -0.845  0.00  0.00    -0.077 C 
ATOM     20  C   UNL     1       5.782  -0.461   1.678  0.00  0.00    -0.023 C 
ATOM     21  C   UNL     1       7.457  -0.076  -0.144  0.00  0.00    -0.023 C 
ATOM     22  C   UNL     1       7.230  -0.103   1.363  0.00  0.00    -0.004 C 
ATOM     23  H   UNL     1       4.948  -0.574  -0.834  0.00  0.00    -0.079 HD
ENDBRANCH  16  17
ENDBRANCH  15  16
ENDBRANCH   7  14
BRANCH   3  24
ATOM     24  C   UNL     1      -1.834  -1.810  -0.083  0.00  0.00    +0.084 C 
BRANCH  24  25
ATOM     25  C   UNL     1      -3.144  -2.587  -0.350  0.00  0.00    +0.009 C 
ATOM     26  C   UNL     1      -3.724  -2.341  -1.747  0.00  0.00    +0.001 C 
ATOM     27  C   UNL     1      -2.963  -4.091  -0.121  0.00  0.00    +0.001 C 
ENDBRANCH  24  25
BRANCH  24  29
ATOM     28  O   UNL     1      -0.184  -2.148   1.680  0.00  0.00    -0.288 OA
ATOM     29  C   UNL     1      -1.360  -2.083   1.335  0.00  0.00    +0.209 C 
ENDBRANCH  24  29
ENDBRANCH   3  24
TORSDOF 8
