REMARK  Name = 44277954
REMARK  6 active torsions:
REMARK  status: ('A' for Active; 'I' for Inactive)
REMARK    1  A    between atoms: C_1  and  N_2
REMARK    2  A    between atoms: C_1  and  C_7
REMARK    3  A    between atoms: C_1  and  C_10
REMARK    4  A    between atoms: C_7  and  O_8
REMARK    5  A    between atoms: C_10  and  O_11
REMARK    6  A    between atoms: O_11  and  S_12
REMARK                            x       y       z     vdW  Elec       q    Type
REMARK                         _______ _______ _______ _____ _____    ______ ____
ROOT
ATOM      1  C   UNK     1       1.583   0.708   0.626  0.00  0.00    +0.068 C 
ENDROOT
BRANCH   1   2
ATOM      2  N   UNK     1       1.600   1.929  -0.232  0.00  0.00    +0.390 N 
ATOM      3  H   UNK     1       1.158   2.701   0.268  0.00  0.00    -0.088 HD
ATOM      4  H   UNK     1       1.088   1.746  -1.095  0.00  0.00    -0.088 HD
ATOM      5  H   UNK     1       2.564   2.176  -0.454  0.00  0.00    -0.088 HD
ENDBRANCH   1   2
BRANCH   1   7
ATOM      6  O   UNK     1       2.638  -0.384  -1.273  0.00  0.00    -0.253 OA
ATOM      7  C   UNK     1       2.240  -0.436  -0.117  0.00  0.00    +0.295 C 
BRANCH   7   8
ATOM      8  O   UNK     1       2.354  -1.548   0.654  0.00  0.00    -0.482 OA
ATOM      9  H   UNK     1       2.035  -1.543   1.535  0.00  0.00    +0.295 HD
ENDBRANCH   7   8
ENDBRANCH   1   7
BRANCH   1  10
ATOM     10  C   UNK     1       0.133   0.393   0.967  0.00  0.00    +0.166 C 
BRANCH  10  11
ATOM     11  O   UNK     1      -0.623   0.199  -0.224  0.00  0.00    -0.202 OA
BRANCH  11  12
ATOM     12  S   UNK     1      -2.221  -0.153  -0.120  0.00  0.00    +0.239 S 
ATOM     13  O   UNK     1      -2.804   0.989   0.583  0.00  0.00    -0.116 OA
ATOM     14  O   UNK     1      -2.244  -1.400   0.644  0.00  0.00    -0.022 OA
ATOM     15  O   UNK     1      -2.656  -0.297  -1.509  0.00  0.00    -0.116 OA
ENDBRANCH  11  12
ENDBRANCH  10  11
ENDBRANCH   1  10
TORSDOF 6
