REMARK  Name = 5288557
REMARK  3 active torsions:
REMARK  status: ('A' for Active; 'I' for Inactive)
REMARK    1  A    between atoms: C_4  and  C_9
REMARK    2  A    between atoms: C_9  and  C_10
REMARK    3  A    between atoms: C_10  and  C_13
REMARK                            x       y       z     vdW  Elec       q    Type
REMARK                         _______ _______ _______ _____ _____    ______ ____
ROOT
ATOM      1  S   UNL     1       2.871   1.038   0.553  0.00  0.00    -0.060 S 
ATOM      2  N   UNL     1       1.226  -0.648  -0.512  0.00  0.00    -0.389 NA
ATOM      3  N   UNL     1       3.410  -1.472  -0.139  0.00  0.00    -0.328 N 
ATOM      4  C   UNL     1       0.565   0.534  -0.307  0.00  0.00    +0.101 C 
ATOM      5  C   UNL     1       1.266   1.563   0.252  0.00  0.00    +0.120 C 
ATOM      6  C   UNL     1       2.463  -0.499  -0.091  0.00  0.00    +0.204 C 
ATOM      7  H   UNL     1       4.319  -1.291   0.194  0.00  0.00    +0.145 HD
ATOM      8  H   UNL     1       3.188  -2.358  -0.506  0.00  0.00    +0.145 HD
ENDROOT
BRANCH   4   9
ATOM      9  C   UNL     1      -0.878   0.600  -0.716  0.00  0.00    +0.063 C 
BRANCH   9  10
ATOM     10  C   UNL     1      -1.859   0.192   0.396  0.00  0.00    +0.072 C 
ATOM     11  C   UNL     1      -1.658  -1.250   0.859  0.00  0.00    +0.009 C 
BRANCH  10  13
ATOM     12  O   UNL     1      -4.132  -0.466  -0.185  0.00  0.00    -0.288 OA
ATOM     13  C   UNL     1      -3.275   0.408  -0.110  0.00  0.00    +0.207 C 
ENDBRANCH  10  13
ENDBRANCH   9  10
ENDBRANCH   4   9
TORSDOF 3
