REMARK  Name = 5287841
REMARK  5 active torsions:
REMARK  status: ('A' for Active; 'I' for Inactive)
REMARK    1  A    between atoms: C2*_2  and  O2*_15
REMARK    2  A    between atoms: C3*_3  and  O3*_17
REMARK    3  A    between atoms: C1*_4  and  N_7
REMARK    4  A    between atoms: C4*_5  and  C5*_19
REMARK    5  A    between atoms: C5*_19  and  O5*_20
REMARK                            x       y       z     vdW  Elec       q    Type
REMARK                         _______ _______ _______ _____ _____    ______ ____
ROOT
ATOM      1  O4* UNL     1      -1.300  -0.493   1.031  0.00  0.00    -0.333 OA
ATOM      2  C2* UNL     1      -1.258   0.998  -0.810  0.00  0.00    +0.187 C 
ATOM      3  C3* UNL     1      -2.700   0.669  -0.487  0.00  0.00    +0.171 C 
ATOM      4  C1* UNL     1      -0.547   0.595   0.470  0.00  0.00    +0.229 C 
ATOM      5  C4* UNL     1      -2.560  -0.607   0.333  0.00  0.00    +0.175 C 
ENDROOT
BRANCH   4   7
ATOM      6  O   UNL     1       1.520   2.297   0.680  0.00  0.00    -0.252 OA
ATOM      7  N   UNL     1       0.799   0.158   0.236  0.00  0.00    -0.217 N 
ATOM      8  N   UNL     1       3.147   0.871   0.178  0.00  0.00    -0.267 N 
ATOM      9  C   UNL     1       1.814   1.131   0.371  0.00  0.00    +0.313 C 
ATOM     10  C   UNL     1       0.973  -1.188  -0.103  0.00  0.00    +0.071 C 
ATOM     11  C   UNL     1       2.061  -1.904  -0.381  0.00  0.00    +0.018 C 
ATOM     12  C   UNL     1       3.862  -0.239  -0.159  0.00  0.00    +0.065 C 
ATOM     13  C   UNL     1       3.418  -1.467  -0.410  0.00  0.00    +0.017 C 
ATOM     14  H   UNL     1       3.714   1.664   0.314  0.00  0.00    +0.156 HD
ENDBRANCH   4   7
BRANCH   2  15
ATOM     15  O2* UNL     1      -1.077   2.363  -1.126  0.00  0.00    -0.378 OA
ATOM     16  H2* UNL     1      -1.548   2.570  -1.949  0.00  0.00    +0.211 HD
ENDBRANCH   2  15
BRANCH   3  17
ATOM     17  O3* UNL     1      -3.260   1.674   0.357  0.00  0.00    -0.379 OA
ATOM     18  H3* UNL     1      -3.359   2.499  -0.144  0.00  0.00    +0.211 HD
ENDBRANCH   3  17
BRANCH   5  19
ATOM     19  C5* UNL     1      -2.517  -1.868  -0.519  0.00  0.00    +0.169 C 
BRANCH  19  20
ATOM     20  O5* UNL     1      -2.375  -2.989   0.336  0.00  0.00    -0.379 OA
ATOM     21  H5* UNL     1      -2.347  -3.800  -0.195  0.00  0.00    +0.211 HD
ENDBRANCH  19  20
ENDBRANCH   5  19
TORSDOF 5
