REMARK  Name = 3713
REMARK  7 active torsions:
REMARK  status: ('A' for Active; 'I' for Inactive)
REMARK    1  A    between atoms: C_1  and  C_3
REMARK    2  A    between atoms: C_1  and  C_12
REMARK    3  A    between atoms: C_12  and  C_13
REMARK    4  A    between atoms: C_13  and  O_14
REMARK    5  A    between atoms: O_14  and  P_15
REMARK    6  A    between atoms: P_15  and  O_17
REMARK    7  A    between atoms: P_15  and  O_19
REMARK                            x       y       z     vdW  Elec       q    Type
REMARK                         _______ _______ _______ _____ _____    ______ ____
ROOT
ATOM      1  C   UNL     1       0.003  -0.764   0.953  0.00  0.00    +0.030 C 
ENDROOT
BRANCH   1   3
ATOM      2  N   UNL     1       3.195  -1.875  -0.428  0.00  0.00    -0.312 N 
ATOM      3  C   UNL     1       1.368  -0.940   0.417  0.00  0.00    -0.006 C 
ATOM      4  C   UNL     1       2.348   0.077   0.242  0.00  0.00    +0.011 C 
ATOM      5  C   UNL     1       3.484  -0.536  -0.289  0.00  0.00    +0.048 C 
ATOM      6  C   UNL     1       1.919  -2.129  -0.004  0.00  0.00    +0.058 C 
ATOM      7  C   UNL     1       2.377   1.464   0.485  0.00  0.00    +0.001 C 
ATOM      8  C   UNL     1       4.653   0.172  -0.591  0.00  0.00    +0.015 C 
ATOM      9  C   UNL     1       3.539   2.185   0.188  0.00  0.00    +0.000 C 
ATOM     10  C   UNL     1       4.658   1.547  -0.341  0.00  0.00    +0.001 C 
ATOM     11  H   UNL     1       3.817  -2.552  -0.781  0.00  0.00    +0.152 HD
ENDBRANCH   1   3
BRANCH   1  12
ATOM     12  C   UNL     1      -1.037  -0.453  -0.136  0.00  0.00    +0.037 C 
BRANCH  12  13
ATOM     13  C   UNL     1      -2.428  -0.224   0.438  0.00  0.00    +0.154 C 
BRANCH  13  14
ATOM     14  O   UNL     1      -3.328   0.041  -0.629  0.00  0.00    -0.273 OA
BRANCH  14  15
ATOM     15  P   UNL     1      -4.881   0.321  -0.274  0.00  0.00    +0.473 P 
ATOM     16  O   UNL     1      -5.764   0.592  -1.457  0.00  0.00    -0.227 OA
BRANCH  15  17
ATOM     17  O   UNL     1      -4.817   1.503   0.827  0.00  0.00    -0.303 OA
ATOM     18  H   UNL     1      -4.226   1.241   1.550  0.00  0.00    +0.222 HD
ENDBRANCH  15  17
BRANCH  15  19
ATOM     19  O   UNL     1      -5.288  -0.979   0.599  0.00  0.00    -0.303 OA
ATOM     20  H   UNL     1      -4.668  -1.078   1.338  0.00  0.00    +0.222 HD
ENDBRANCH  15  19
ENDBRANCH  14  15
ENDBRANCH  13  14
ENDBRANCH  12  13
ENDBRANCH   1  12
TORSDOF 7
