REMARK  Name = 449013
REMARK  7 active torsions:
REMARK  status: ('A' for Active; 'I' for Inactive)
REMARK    1  A    between atoms: C_1  and  N_2
REMARK    2  A    between atoms: C_1  and  C_12
REMARK    3  A    between atoms: C_1  and  C_16
REMARK    4  A    between atoms: C_6  and  C_9
REMARK    5  A    between atoms: C_12  and  O_14
REMARK    6  A    between atoms: C_16  and  C_17
REMARK    7  A    between atoms: C_17  and  C_18
REMARK                            x       y       z     vdW  Elec       q    Type
REMARK                         _______ _______ _______ _____ _____    ______ ____
ROOT
ATOM      1  C   UNL     1      -1.257  -1.750  -0.039  0.00  0.00    +0.087 C 
ENDROOT
BRANCH   1   2
ATOM      2  N   UNL     1      -2.346  -0.832   0.327  0.00  0.00    -0.246 NA
ATOM      3  N   UNL     1      -4.098  -0.045   1.388  0.00  0.00    -0.251 NA
ATOM      4  C   UNL     1      -2.596   0.357  -0.261  0.00  0.00    +0.125 C 
ATOM      5  C   UNL     1      -3.253  -1.048   1.304  0.00  0.00    +0.201 C 
ATOM      6  C   UNL     1      -3.694   0.835   0.415  0.00  0.00    +0.124 C 
BRANCH   6   9
ATOM      7  O   UNL     1      -4.020   2.881  -0.723  0.00  0.00    -0.269 OA
ATOM      8  N   UNL     1      -5.467   2.389   0.968  0.00  0.00    -0.324 N 
ATOM      9  C   UNL     1      -4.361   2.077   0.172  0.00  0.00    +0.257 C 
ATOM     10  H   UNL     1      -5.950   3.236   0.829  0.00  0.00    +0.145 HD
ATOM     11  H   UNL     1      -5.762   1.763   1.668  0.00  0.00    +0.145 HD
ENDBRANCH   6   9
ENDBRANCH   1   2
BRANCH   1  12
ATOM     12  C   UNL     1      -1.713  -2.838  -1.046  0.00  0.00    +0.125 C 
ATOM     13  C   UNL     1      -2.133  -2.281  -2.403  0.00  0.00    +0.033 C 
BRANCH  12  14
ATOM     14  O   UNL     1      -2.778  -3.615  -0.506  0.00  0.00    -0.383 OA
ATOM     15  H   UNL     1      -2.514  -3.971   0.356  0.00  0.00    +0.210 HD
ENDBRANCH  12  14
ENDBRANCH   1  12
BRANCH   1  16
ATOM     16  C   UNL     1       0.019  -1.020  -0.534  0.00  0.00    +0.023 C 
BRANCH  16  17
ATOM     17  C   UNL     1       0.605   0.005   0.457  0.00  0.00    +0.028 C 
BRANCH  17  18
ATOM     18  C   UNL     1       1.863   0.676  -0.002  0.00  0.00    -0.022 C 
ATOM     19  C   UNL     1       3.134   0.147   0.279  0.00  0.00    -0.004 C 
ATOM     20  C   UNL     1       1.729   1.859  -0.728  0.00  0.00    -0.004 C 
ATOM     21  C   UNL     1       4.284   0.829  -0.183  0.00  0.00    -0.000 C 
ATOM     22  C   UNL     1       3.288  -1.043   1.009  0.00  0.00    -0.000 C 
ATOM     23  C   UNL     1       2.860   2.530  -1.183  0.00  0.00    -0.000 C 
ATOM     24  C   UNL     1       4.131   2.019  -0.913  0.00  0.00    -0.000 C 
ATOM     25  C   UNL     1       5.555   0.301   0.098  0.00  0.00    -0.000 C 
ATOM     26  C   UNL     1       4.558  -1.553   1.278  0.00  0.00    -0.000 C 
ATOM     27  C   UNL     1       5.690  -0.882   0.824  0.00  0.00    -0.000 C 
ENDBRANCH  17  18
ENDBRANCH  16  17
ENDBRANCH   1  16
TORSDOF 7
