REMARK  Name = 445940
REMARK  4 active torsions:
REMARK  status: ('A' for Active; 'I' for Inactive)
REMARK    1  A    between atoms: C_7  and  O_15
REMARK    2  A    between atoms: O_15  and  C_16
REMARK    3  A    between atoms: C_16  and  C_18
REMARK    4  A    between atoms: C_18  and  C_19
REMARK                            x       y       z     vdW  Elec       q    Type
REMARK                         _______ _______ _______ _____ _____    ______ ____
ROOT
ATOM      1  N   UNL     1      -2.056  -2.084  -0.078  0.00  0.00    -0.266 NA
ATOM      2  N   UNL     1      -0.744   1.348   0.088  0.00  0.00    -0.293 NA
ATOM      3  N   UNL     1      -4.036  -1.060  -0.081  0.00  0.00    -0.296 N 
ATOM      4  N   UNL     1      -3.179   1.212   0.028  0.00  0.00    -0.316 NA
ATOM      5  N   UNL     1      -2.077   3.273   0.135  0.00  0.00    -0.283 N 
ATOM      6  C   UNL     1      -1.782  -0.748  -0.019  0.00  0.00    +0.215 C 
ATOM      7  C   UNL     1      -0.627   0.003   0.037  0.00  0.00    +0.288 C 
ATOM      8  C   UNL     1      -3.027  -0.133  -0.022  0.00  0.00    +0.196 C 
ATOM      9  C   UNL     1      -3.418  -2.222  -0.114  0.00  0.00    +0.164 C 
ATOM     10  C   UNL     1      -1.997   1.863   0.081  0.00  0.00    +0.200 C 
ATOM     11  H   UNL     1      -1.396  -2.814  -0.093  0.00  0.00    +0.126 HD
ATOM     12  H   UNL     1      -5.006  -0.894  -0.096  0.00  0.00    +0.150 HD
ATOM     13  H   UNL     1      -1.253   3.811   0.175  0.00  0.00    +0.156 HD
ATOM     14  H   UNL     1      -2.955   3.717   0.133  0.00  0.00    +0.156 HD
ENDROOT
BRANCH   7  15
ATOM     15  O   UNL     1       0.630  -0.552   0.042  0.00  0.00    -0.445 OA
BRANCH  15  16
ATOM     16  C   UNL     1       1.727   0.336   0.101  0.00  0.00    +0.271 C 
BRANCH  16  18
ATOM     17  O   UNL     1       3.066  -1.657   0.006  0.00  0.00    -0.292 OA
ATOM     18  C   UNL     1       3.037  -0.429   0.080  0.00  0.00    +0.194 C 
BRANCH  18  19
ATOM     19  C   UNL     1       4.312   0.409   0.131  0.00  0.00    +0.061 C 
ATOM     20  C   UNL     1       5.424  -0.333   0.868  0.00  0.00    +0.008 C 
ATOM     21  C   UNL     1       4.747   0.774  -1.283  0.00  0.00    +0.008 C 
ENDBRANCH  18  19
ENDBRANCH  16  18
ENDBRANCH  15  16
ENDBRANCH   7  15
TORSDOF 4
