4755801
  -OEChem-10051720093D

 13 12  0     0  0  0  0  0  0999 V2000
   -1.8869    0.5986   -0.5398 O   0  5  0  0  0  0  0  0  0  0  0  0
   -0.8974   -1.2804    0.2997 O   0  0  0  0  0  0  0  0  0  0  0  0
    1.9647   -0.2499   -0.8408 N   0  3  0  0  0  0  0  0  0  0  0  0
    1.5786    0.1609    0.5316 C   0  0  0  0  0  0  0  0  0  0  0  0
    0.2099    0.8180    0.5051 C   0  0  0  0  0  0  0  0  0  0  0  0
   -0.9690   -0.0472    0.0442 C   0  0  0  0  0  0  0  0  0  0  0  0
    2.3473    0.8557    0.8819 H   0  0  0  0  0  0  0  0  0  0  0  0
    1.5955   -0.7426    1.1479 H   0  0  0  0  0  0  0  0  0  0  0  0
   -0.0326    1.1618    1.5184 H   0  0  0  0  0  0  0  0  0  0  0  0
    0.2547    1.7148   -0.1266 H   0  0  0  0  0  0  0  0  0  0  0  0
    2.9018   -0.6740   -0.8490 H   0  0  0  0  0  0  0  0  0  0  0  0
    1.9865    0.5520   -1.4848 H   0  0  0  0  0  0  0  0  0  0  0  0
    1.3129   -0.9443   -1.2295 H   0  0  0  0  0  0  0  0  0  0  0  0
  1  6  1  0  0  0  0
  2  6  2  0  0  0  0
  3  4  1  0  0  0  0
  3 11  1  0  0  0  0
  3 12  1  0  0  0  0
  3 13  1  0  0  0  0
  4  5  1  0  0  0  0
  4  7  1  0  0  0  0
  4  8  1  0  0  0  0
  5  6  1  0  0  0  0
  5  9  1  0  0  0  0
  5 10  1  0  0  0  0
M  CHG  2   1  -1   3   1
M  END
> <DATABASE_ID>
DB03107

> <DATABASE_NAME>
drugbank

> <ORIGINAL_SOURCE>
PUBCHEM

> <ORIGINAL_SOURCE_URL>
https://pubchem.ncbi.nlm.nih.gov/rest/pug/compound/inchikey/UCMIRNVEIXFBKS-UHFFFAOYSA-N/SDF?record_type=3d

> <SMILES>
NCCC(O)=O

> <INCHI_IDENTIFIER>
InChI=1S/C3H7NO2/c4-2-1-3(5)6/h1-2,4H2,(H,5,6)

> <INCHI_KEY>
UCMIRNVEIXFBKS-UHFFFAOYSA-N

> <FORMULA>
C3H7NO2

> <MOLECULAR_WEIGHT>
89.0932

> <EXACT_MASS>
89.047678473

> <JCHEM_ACCEPTOR_COUNT>
3

> <JCHEM_AVERAGE_POLARIZABILITY>
8.617827871828379

> <JCHEM_BIOAVAILABILITY>
1

> <JCHEM_DONOR_COUNT>
2

> <JCHEM_FORMAL_CHARGE>
0

> <JCHEM_GHOSE_FILTER>
0

> <JCHEM_IUPAC>
3-aminopropanoic acid

> <ALOGPS_LOGP>
-3.26

> <JCHEM_LOGP>
-3.173589452576714

> <ALOGPS_LOGS>
0.74

> <JCHEM_MDDR_LIKE_RULE>
0

> <JCHEM_NUMBER_OF_RINGS>
0

> <JCHEM_PHYSIOLOGICAL_CHARGE>
0

> <JCHEM_PKA_STRONGEST_ACIDIC>
4.084398800362644

> <JCHEM_PKA_STRONGEST_BASIC>
10.307201201262663

> <JCHEM_POLAR_SURFACE_AREA>
63.32

> <JCHEM_REFRACTIVITY>
20.7028

> <JCHEM_ROTATABLE_BOND_COUNT>
2

> <JCHEM_RULE_OF_FIVE>
1

> <ALOGPS_SOLUBILITY>
4.94e+02 g/l

> <JCHEM_TRADITIONAL_IUPAC>
Î² alanine

> <JCHEM_VEBER_RULE>
0

> <DRUGBANK_ID>
DB03107

> <SECONDARY_ACCESSION_NUMBERS>
EXPT00624

> <DRUG_GROUPS>
experimental

> <GENERIC_NAME>
Beta-Alanine

$$$$
