REMARK  Name = 6419228
REMARK  9 active torsions:
REMARK  status: ('A' for Active; 'I' for Inactive)
REMARK    1  A    between atoms: C_1  and  S_3
REMARK    2  A    between atoms: C_1  and  CA_6
REMARK    3  A    between atoms: C_1  and  C_17
REMARK    4  A    between atoms: CA_6  and  C_8
REMARK    5  A    between atoms: CA_6  and  N_11
REMARK    6  A    between atoms: C_8  and  O_9
REMARK    7  A    between atoms: N_11  and  C_13
REMARK    8  A    between atoms: C_14  and  C_16
REMARK    9  A    between atoms: C_17  and  N_18
REMARK                            x       y       z     vdW  Elec       q    Type
REMARK                         _______ _______ _______ _____ _____    ______ ____
ROOT
ATOM      1  C   UNL     1      -0.373   0.107  -0.112  0.00  0.00    +0.155 C 
ATOM      2  C   UNL     1      -0.294   0.075  -1.649  0.00  0.00    +0.027 C 
ENDROOT
BRANCH   1   3
ATOM      3  S   UNL     1      -0.421  -1.620   0.466  0.00  0.00    -0.018 S 
ATOM      4  O   UNL     1      -0.494  -1.542   1.899  0.00  0.00    -0.078 OA
ATOM      5  O   UNL     1      -1.430  -2.262  -0.329  0.00  0.00    -0.078 OA
ENDBRANCH   1   3
BRANCH   1   6
ATOM      6  CA  UNL     1       0.895   0.760   0.524  0.00  0.00    +0.191 C 
BRANCH   6   8
ATOM      7  OXT UNL     1       1.747   2.534  -0.913  0.00  0.00    -0.248 OA
ATOM      8  C   UNL     1       1.125   2.199   0.087  0.00  0.00    +0.334 C 
BRANCH   8   9
ATOM      9  O   UNL     1       0.565   3.098   0.938  0.00  0.00    -0.479 OA
ATOM     10  H   UNL     1       0.097   2.800   1.693  0.00  0.00    +0.295 HD
ENDBRANCH   8   9
ENDBRANCH   6   8
BRANCH   6  11
ATOM     11  N   UNL     1       2.098   0.019   0.182  0.00  0.00    -0.323 N 
ATOM     12  H   UNL     1       2.010  -0.778  -0.390  0.00  0.00    +0.147 HD
BRANCH  11  13
ATOM     13  C   UNL     1       3.331   0.368   0.611  0.00  0.00    +0.062 C 
ATOM     14  C   UNL     1       4.488  -0.235   0.322  0.00  0.00    +0.061 C 
BRANCH  14  16
ATOM     15  O   UNL     1       5.511  -2.012  -0.854  0.00  0.00    -0.283 OA
ATOM     16  C   UNL     1       4.481  -1.420  -0.557  0.00  0.00    +0.236 C 
ENDBRANCH  14  16
ENDBRANCH  11  13
ENDBRANCH   6  11
ENDBRANCH   1   6
BRANCH   1  17
ATOM     17  C   UNL     1      -1.648   0.853   0.385  0.00  0.00    +0.142 C 
BRANCH  17  18
ATOM     18  N   UNL     1      -2.944   0.288   0.013  0.00  0.00    -0.189 N 
ATOM     19  N   UNL     1      -3.528  -0.610   0.805  0.00  0.00    -0.073 NA
ATOM     20  N   UNL     1      -4.673  -0.942   0.218  0.00  0.00    -0.129 NA
ATOM     21  C   UNL     1      -3.665   0.570  -1.091  0.00  0.00    +0.108 C 
ATOM     22  C   UNL     1      -4.772  -0.228  -0.944  0.00  0.00    +0.141 C 
ENDBRANCH  17  18
ENDBRANCH   1  17
TORSDOF 9
