REMARK  Name = 1032
REMARK  2 active torsions:
REMARK  status: ('A' for Active; 'I' for Inactive)
REMARK    1  A    between atoms: C_2  and  O_3
REMARK    2  A    between atoms: C_2  and  C_5
REMARK                            x       y       z     vdW  Elec       q    Type
REMARK                         _______ _______ _______ _____ _____    ______ ____
ROOT
ATOM      1  O   UNL     1      -0.570   1.303  -0.002  0.00  0.00    -0.250 OA
ATOM      2  C   UNL     1      -0.523   0.082  -0.001  0.00  0.00    +0.314 C 
ENDROOT
BRANCH   2   3
ATOM      3  O   UNL     1      -1.621  -0.716   0.005  0.00  0.00    -0.480 OA
ATOM      4  H   UNL     1      -1.524  -1.647   0.005  0.00  0.00    +0.295 HD
ENDBRANCH   2   3
BRANCH   2   5
ATOM      5  C   UNL     1       0.728  -0.760  -0.007  0.00  0.00    +0.109 C 
ATOM      6  C   UNL     1       1.986   0.090   0.005  0.00  0.00    +0.012 C 
ENDBRANCH   2   5
TORSDOF 2
