REMARK  Name = 3382778
REMARK  7 active torsions:
REMARK  status: ('A' for Active; 'I' for Inactive)
REMARK    1  A    between atoms: N_2  and  C_7
REMARK    2  A    between atoms: C_4  and  C_18
REMARK    3  A    between atoms: C_7  and  C_11
REMARK    4  A    between atoms: C_18  and  C_19
REMARK    5  A    between atoms: C_19  and  O_20
REMARK    6  A    between atoms: O_20  and  P_21
REMARK    7  A    between atoms: P_21  and  O_24
REMARK                            x       y       z     vdW  Elec       q    Type
REMARK                         _______ _______ _______ _____ _____    ______ ____
ROOT
ATOM      1  S   UNL     1       0.589   2.106   1.749  0.00  0.00    -0.095 S 
ATOM      2  N   UNL     1      -0.536   1.451  -0.369  0.00  0.00    -0.297 N 
ATOM      3  C   UNL     1       0.784   1.510  -0.714  0.00  0.00    +0.028 C 
ATOM      4  C   UNL     1       1.569   1.866   0.356  0.00  0.00    +0.016 C 
ATOM      5  C   UNL     1      -0.829   1.729   0.871  0.00  0.00    +0.154 C 
ATOM      6  C   UNL     1       1.175   1.207  -2.099  0.00  0.00    +0.047 C 
ENDROOT
BRANCH   2   7
ATOM      7  C   UNL     1      -1.589   1.095  -1.323  0.00  0.00    +0.124 C 
BRANCH   7  11
ATOM      8  N   UNL     1      -4.519  -0.388   0.548  0.00  0.00    -0.340 NA
ATOM      9  N   UNL     1      -3.130  -2.170  -0.290  0.00  0.00    -0.186 NA
ATOM     10  N   UNL     1      -3.936   1.874   0.137  0.00  0.00    -0.332 N 
ATOM     11  C   UNL     1      -2.532   0.123  -0.711  0.00  0.00    +0.062 C 
ATOM     12  C   UNL     1      -3.661   0.492  -0.009  0.00  0.00    +0.187 C 
ATOM     13  C   UNL     1      -2.315  -1.236  -0.821  0.00  0.00    +0.111 C 
ATOM     14  C   UNL     1      -4.197  -1.684   0.372  0.00  0.00    +0.066 C 
ATOM     15  C   UNL     1      -5.122  -2.687   0.973  0.00  0.00    +0.129 C 
ATOM     16  H   UNL     1      -4.735   2.167   0.633  0.00  0.00    +0.145 HD
ATOM     17  H   UNL     1      -3.330   2.541  -0.258  0.00  0.00    +0.145 HD
ENDBRANCH   7  11
ENDBRANCH   2   7
BRANCH   4  18
ATOM     18  C   UNL     1       3.032   2.048   0.439  0.00  0.00    +0.066 C 
BRANCH  18  19
ATOM     19  C   UNL     1       3.784   0.759   0.816  0.00  0.00    +0.159 C 
BRANCH  19  20
ATOM     20  O   UNL     1       3.537  -0.259  -0.146  0.00  0.00    -0.271 OA
BRANCH  20  21
ATOM     21  P   UNL     1       4.232  -1.724   0.044  0.00  0.00    +0.503 P 
ATOM     22  O   UNL     1       3.805  -2.605  -1.110  0.00  0.00    -0.225 OA
ATOM     23  O   UNL     1       4.060  -2.193   1.472  0.00  0.00    -0.116 OA
BRANCH  21  24
ATOM     24  O   UNL     1       5.798  -1.314  -0.184  0.00  0.00    -0.301 OA
ATOM     25  H   UNL     1       5.923  -1.011  -1.097  0.00  0.00    +0.222 HD
ENDBRANCH  21  24
ENDBRANCH  20  21
ENDBRANCH  19  20
ENDBRANCH  18  19
ENDBRANCH   4  18
TORSDOF 7
