REMARK  Name = 58049682
REMARK  2 active torsions:
REMARK  status: ('A' for Active; 'I' for Inactive)
REMARK    1  A    between atoms: C_2  and  C_4
REMARK    2  A    between atoms: C_2  and  N_10
REMARK                            x       y       z     vdW  Elec       q    Type
REMARK                         _______ _______ _______ _____ _____    ______ ____
ROOT
ATOM      1  N   UNL     1       2.423   1.095   0.409  0.00  0.00    -0.287 NA
ATOM      2  C   UNL     1       1.735   0.054   0.017  0.00  0.00    +0.101 C 
ATOM      3  H   UNL     1       3.407   1.068   0.396  0.00  0.00    +0.188 HD
ENDROOT
BRANCH   2   4
ATOM      4  C   UNL     1       0.281   0.024   0.009  0.00  0.00    +0.029 C 
ATOM      5  C   UNL     1      -0.391  -1.183   0.198  0.00  0.00    +0.003 C 
ATOM      6  C   UNL     1      -0.441   1.201  -0.189  0.00  0.00    +0.003 C 
ATOM      7  C   UNL     1      -1.786  -1.214   0.189  0.00  0.00    +0.000 C 
ATOM      8  C   UNL     1      -1.835   1.171  -0.198  0.00  0.00    +0.000 C 
ATOM      9  C   UNL     1      -2.508  -0.037  -0.009  0.00  0.00    +0.000 C 
ENDBRANCH   2   4
BRANCH   2  10
ATOM     10  N   UNL     1       2.522  -1.110  -0.426  0.00  0.00    -0.402 NA
ATOM     11  H   UNL     1       3.505  -1.073  -0.415  0.00  0.00    +0.122 HD
ATOM     12  H   UNL     1       2.063  -1.926  -0.733  0.00  0.00    +0.122 HD
ATOM     13  H   UNL     1       1.896  -1.490   0.233  0.00  0.00    +0.122 HD
ENDBRANCH   2  10
TORSDOF 2
