REMARK  Name = 5288817
REMARK  2 active torsions:
REMARK  status: ('A' for Active; 'I' for Inactive)
REMARK    1  A    between atoms: P_1  and  C_5
REMARK    2  A    between atoms: C_5  and  S_6
REMARK                            x       y       z     vdW  Elec       q    Type
REMARK                         _______ _______ _______ _____ _____    ______ ____
ROOT
ATOM      1  P   UNL     1       0.600   0.091   0.000  0.00  0.00    +0.406 P 
ATOM      2  O   UNL     1       1.731  -0.933   0.001  0.00  0.00    -0.137 OA
ATOM      3  O   UNL     1       0.458   0.891   1.290  0.00  0.00    -0.137 OA
ATOM      4  O   UNL     1       0.457   0.888  -1.292  0.00  0.00    -0.252 OA
ENDROOT
BRANCH   1   5
ATOM      5  C   UNL     1      -0.897  -1.002   0.001  0.00  0.00    +0.174 C 
BRANCH   5   6
ATOM      6  S   UNL     1      -2.349   0.065   0.000  0.00  0.00    -0.155 S 
ATOM      7  H   UNL     1      -3.474  -0.699   0.001  0.00  0.00    +0.103 HD
ENDBRANCH   5   6
ENDBRANCH   1   5
TORSDOF 2
