REMARK  Name = 446637
REMARK  1 active torsions:
REMARK  status: ('A' for Active; 'I' for Inactive)
REMARK    1  A    between atoms: C_4  and  O_10
REMARK                            x       y       z     vdW  Elec       q    Type
REMARK                         _______ _______ _______ _____ _____    ______ ____
ROOT
ATOM      1  O   UNL     1       2.343   0.853  -0.089  0.00  0.00    -0.252 OA
ATOM      2  N   UNL     1       0.089   1.025   0.305  0.00  0.00    -0.263 N 
ATOM      3  N   UNL     1       1.066  -1.052  -0.189  0.00  0.00    -0.267 N 
ATOM      4  C   UNL     1      -1.250   0.463   0.415  0.00  0.00    +0.214 C 
ATOM      5  C   UNL     1      -1.259  -1.012   0.189  0.00  0.00    +0.040 C 
ATOM      6  C   UNL     1       1.240   0.311   0.001  0.00  0.00    +0.306 C 
ATOM      7  C   UNL     1      -0.141  -1.686  -0.092  0.00  0.00    +0.065 C 
ATOM      8  H   UNL     1       0.186   1.993   0.458  0.00  0.00    +0.153 HD
ATOM      9  H   UNL     1       1.858  -1.594  -0.406  0.00  0.00    +0.156 HD
ENDROOT
BRANCH   4  10
ATOM     10  O   UNL     1      -2.087   1.097  -0.539  0.00  0.00    -0.364 OA
ATOM     11  H   UNL     1      -2.079   2.056  -0.390  0.00  0.00    +0.213 HD
ENDBRANCH   4  10
TORSDOF 1
