REMARK  Name = 5288442
REMARK  7 active torsions:
REMARK  status: ('A' for Active; 'I' for Inactive)
REMARK    1  A    between atoms: C_1  and  O_2
REMARK    2  A    between atoms: C_1  and  C_4
REMARK    3  A    between atoms: C_1  and  C_10
REMARK    4  A    between atoms: C_4  and  C_7
REMARK    5  A    between atoms: C_4  and  O_8
REMARK    6  A    between atoms: C_10  and  C_12
REMARK    7  A    between atoms: C_12  and  C_15
REMARK                            x       y       z     vdW  Elec       q    Type
REMARK                         _______ _______ _______ _____ _____    ______ ____
ROOT
ATOM      1  C   UNL     1      -0.594  -0.282   0.237  0.00  0.00    +0.156 C 
ENDROOT
BRANCH   1   2
ATOM      2  O   UNL     1      -0.639  -0.957  -1.024  0.00  0.00    -0.381 OA
ATOM      3  H   UNL     1      -1.452  -1.482  -1.081  0.00  0.00    +0.210 HD
ENDBRANCH   1   2
BRANCH   1   4
ATOM      4  C   UNL     1      -1.855   0.581   0.367  0.00  0.00    +0.242 C 
BRANCH   4   7
ATOM      5  O   UNL     1      -3.241  -1.333   0.667  0.00  0.00    -0.243 OA
ATOM      6  O   UNL     1      -4.127   0.541  -0.288  0.00  0.00    -0.243 OA
ATOM      7  C   UNL     1      -3.201  -0.149   0.231  0.00  0.00    +0.394 C 
ENDBRANCH   4   7
BRANCH   4   8
ATOM      8  O   UNL     1      -1.819   1.619  -0.615  0.00  0.00    -0.372 OA
ATOM      9  H   UNL     1      -0.977   2.097  -0.550  0.00  0.00    +0.211 HD
ENDBRANCH   4   8
ENDBRANCH   1   4
BRANCH   1  10
ATOM     10  C   UNL     1       0.706   0.531   0.277  0.00  0.00    +0.109 C 
BRANCH  10  12
ATOM     11  O   UNL     1       1.930  -1.532  -0.172  0.00  0.00    -0.284 OA
ATOM     12  C   UNL     1       1.930  -0.329   0.048  0.00  0.00    +0.255 C 
BRANCH  12  15
ATOM     13  O   UNL     1       4.263  -0.511  -0.117  0.00  0.00    -0.237 OA
ATOM     14  O   UNL     1       3.345   1.532   0.307  0.00  0.00    -0.237 OA
ATOM     15  C   UNL     1       3.302   0.287   0.083  0.00  0.00    +0.422 C 
ENDBRANCH  12  15
ENDBRANCH  10  12
ENDBRANCH   1  10
TORSDOF 7
