REMARK  Name = 446277
REMARK  7 active torsions:
REMARK  status: ('A' for Active; 'I' for Inactive)
REMARK    1  A    between atoms: N_2  and  C_17
REMARK    2  A    between atoms: C_3  and  C_5
REMARK    3  A    between atoms: C_8  and  S_11
REMARK    4  A    between atoms: S_11  and  N_14
REMARK    5  A    between atoms: C_17  and  C_18
REMARK    6  A    between atoms: C_18  and  C_20
REMARK    7  A    between atoms: C_20  and  N_21
REMARK                            x       y       z     vdW  Elec       q    Type
REMARK                         _______ _______ _______ _____ _____    ______ ____
ROOT
ATOM      1  O   UNL     1      -0.736  -2.329  -1.885  0.00  0.00    -0.270 OA
ATOM      2  N   UNL     1      -0.165  -2.303   0.364  0.00  0.00    -0.301 N 
ATOM      3  C   UNL     1      -0.963  -1.983  -0.728  0.00  0.00    +0.246 C 
ATOM      4  H   UNL     1      -0.431  -1.979   1.254  0.00  0.00    +0.150 HD
ENDROOT
BRANCH   3   5
ATOM      5  C   UNL     1      -2.154  -1.141  -0.444  0.00  0.00    +0.053 C 
ATOM      6  C   UNL     1      -3.252  -1.238  -1.273  0.00  0.00    +0.006 C 
ATOM      7  C   UNL     1      -2.123  -0.289   0.641  0.00  0.00    +0.006 C 
ATOM      8  C   UNL     1      -4.364   0.422   0.085  0.00  0.00    +0.122 C 
ATOM      9  C   UNL     1      -4.370  -0.447  -1.006  0.00  0.00    +0.020 C 
ATOM     10  C   UNL     1      -3.241   0.501   0.908  0.00  0.00    +0.020 C 
BRANCH   8  11
ATOM     11  S   UNL     1      -5.764   1.411   0.420  0.00  0.00    +0.057 S 
ATOM     12  O   UNL     1      -5.331   2.578   1.177  0.00  0.00    -0.153 OA
ATOM     13  O   UNL     1      -6.512   1.588  -0.817  0.00  0.00    -0.153 OA
BRANCH  11  14
ATOM     14  N   UNL     1      -6.651   0.381   1.454  0.00  0.00    -0.203 NA
ATOM     15  H   UNL     1      -7.516   0.843   1.735  0.00  0.00    +0.144 HD
ATOM     16  H   UNL     1      -6.094   0.169   2.282  0.00  0.00    +0.144 HD
ENDBRANCH  11  14
ENDBRANCH   8  11
ENDBRANCH   3   5
BRANCH   2  17
ATOM     17  C   UNL     1       1.033  -3.089   0.245  0.00  0.00    +0.091 C 
BRANCH  17  18
ATOM     18  C   UNL     1       2.295  -2.250  -0.009  0.00  0.00    +0.040 C 
ATOM     19  C   UNL     1       3.533  -3.144  -0.138  0.00  0.00    +0.004 C 
BRANCH  18  20
ATOM     20  C   UNL     1       2.472  -1.174   1.081  0.00  0.00    +0.097 C 
BRANCH  20  21
ATOM     21  N   UNL     1       3.586  -0.263   0.833  0.00  0.00    -0.286 N 
ATOM     22  C   UNL     1       3.502   0.911   0.135  0.00  0.00    +0.052 C 
ATOM     23  C   UNL     1       4.783   1.468   0.133  0.00  0.00    +0.015 C 
ATOM     24  C   UNL     1       4.856  -0.481   1.274  0.00  0.00    +0.065 C 
ATOM     25  C   UNL     1       5.627   0.579   0.855  0.00  0.00    +0.017 C 
ATOM     26  C   UNL     1       2.411   1.525  -0.490  0.00  0.00    +0.015 C 
ATOM     27  C   UNL     1       4.987   2.698  -0.525  0.00  0.00    +0.001 C 
ATOM     28  C   UNL     1       2.637   2.744  -1.137  0.00  0.00    +0.001 C 
ATOM     29  C   UNL     1       3.905   3.323  -1.155  0.00  0.00    +0.000 C 
ENDBRANCH  20  21
ENDBRANCH  18  20
ENDBRANCH  17  18
ENDBRANCH   2  17
TORSDOF 7
