REMARK  Name = 6992003
REMARK  7 active torsions:
REMARK  status: ('A' for Active; 'I' for Inactive)
REMARK    1  A    between atoms: C_1  and  C_2
REMARK    2  A    between atoms: C_1  and  C_9
REMARK    3  A    between atoms: C_2  and  C_3
REMARK    4  A    between atoms: C_3  and  C_4
REMARK    5  A    between atoms: C_4  and  N_5
REMARK    6  A    between atoms: C_9  and  N_10
REMARK    7  A    between atoms: C_9  and  C_16
REMARK                            x       y       z     vdW  Elec       q    Type
REMARK                         _______ _______ _______ _____ _____    ______ ____
ROOT
ATOM      1  C   UNK     1      -1.393   0.565  -0.942  0.00  0.00    -0.011 C 
ENDROOT
BRANCH   1   2
ATOM      2  C   UNK     1      -0.396   0.228   0.175  0.00  0.00    -0.004 C 
BRANCH   2   3
ATOM      3  C   UNK     1       1.044   0.237  -0.352  0.00  0.00    -0.022 C 
BRANCH   3   4
ATOM      4  C   UNK     1       2.083  -0.082   0.716  0.00  0.00    -0.073 C 
BRANCH   4   5
ATOM      5  N   UNK     1       3.444  -0.106   0.132  0.00  0.00    +0.386 N 
ATOM      6  C   UNK     1       3.553  -1.180  -0.960  0.00  0.00    -0.096 C 
ATOM      7  C   UNK     1       3.793   1.250  -0.499  0.00  0.00    -0.096 C 
ATOM      8  C   UNK     1       4.496  -0.414   1.208  0.00  0.00    -0.096 C 
ENDBRANCH   4   5
ENDBRANCH   3   4
ENDBRANCH   2   3
ENDBRANCH   1   2
BRANCH   1   9
ATOM      9  C   UNK     1      -2.856   0.639  -0.487  0.00  0.00    +0.040 C 
BRANCH   9  10
ATOM     10  N   UNK     1      -3.016   1.808   0.434  0.00  0.00    +0.389 N 
ATOM     11  H   UNK     1      -2.609   2.638   0.003  0.00  0.00    -0.088 HD
ATOM     12  H   UNK     1      -2.541   1.615   1.315  0.00  0.00    -0.088 HD
ATOM     13  H   UNK     1      -4.008   1.969   0.611  0.00  0.00    -0.088 HD
ENDBRANCH   9  10
BRANCH   9  16
ATOM     14  O   UNK     1      -4.369  -0.535   0.911  0.00  0.00    -0.248 OA
ATOM     15  O   UNK     1      -2.942  -1.736  -0.402  0.00  0.00    -0.248 OA
ATOM     16  C   UNK     1      -3.439  -0.673   0.067  0.00  0.00    +0.345 C 
ENDBRANCH   9  16
ENDBRANCH   1   9
TORSDOF 7
