REMARK  Name = 65130
REMARK  11 active torsions:
REMARK  status: ('A' for Active; 'I' for Inactive)
REMARK    1  A    between atoms: C_1  and  C_2
REMARK    2  A    between atoms: C_1  and  C_18
REMARK    3  A    between atoms: C_2  and  C_3
REMARK    4  A    between atoms: C_3  and  C_4
REMARK    5  A    between atoms: C_4  and  O_5
REMARK    6  A    between atoms: O_5  and  C_6
REMARK    7  A    between atoms: C_9  and  C_14
REMARK    8  A    between atoms: C_18  and  C_19
REMARK    9  A    between atoms: C_19  and  O_20
REMARK   10  A    between atoms: O_20  and  C_21
REMARK   11  A    between atoms: C_24  and  C_29
REMARK                            x       y       z     vdW  Elec       q    Type
REMARK                         _______ _______ _______ _____ _____    ______ ____
ROOT
ATOM      1  C   UNL     1      -0.677  -1.240   0.355  0.00  0.00    +0.004 C 
ENDROOT
BRANCH   1   2
ATOM      2  C   UNL     1       0.677  -1.241  -0.355  0.00  0.00    +0.004 C 
BRANCH   2   3
ATOM      3  C   UNL     1       1.830  -1.257   0.647  0.00  0.00    +0.047 C 
BRANCH   3   4
ATOM      4  C   UNL     1       3.182  -1.215  -0.052  0.00  0.00    +0.205 C 
BRANCH   4   5
ATOM      5  O   UNL     1       4.207  -1.217   0.932  0.00  0.00    -0.475 OA
BRANCH   5   6
ATOM      6  C   UNL     1       5.381  -0.590   0.603  0.00  0.00    +0.139 C 
ATOM      7  C   UNL     1       6.158   0.002   1.599  0.00  0.00    +0.037 C 
ATOM      8  C   UNL     1       5.799  -0.545  -0.727  0.00  0.00    +0.037 C 
ATOM      9  C   UNL     1       7.772   0.683  -0.065  0.00  0.00    +0.031 C 
ATOM     10  C   UNL     1       7.354   0.638   1.264  0.00  0.00    +0.006 C 
ATOM     11  C   UNL     1       6.995   0.091  -1.061  0.00  0.00    +0.006 C 
BRANCH   9  14
ATOM     12  N   UNL     1       9.463   1.406  -1.733  0.00  0.00    -0.343 N 
ATOM     13  N   UNL     1       9.755   1.902   0.532  0.00  0.00    -0.285 NA
ATOM     14  C   UNL     1       9.018   1.345  -0.414  0.00  0.00    +0.117 C 
ATOM     15  H   UNL     1      10.310   1.860  -1.947  0.00  0.00    +0.144 HD
ATOM     16  H   UNL     1       8.930   0.995  -2.452  0.00  0.00    +0.144 HD
ATOM     17  H   UNL     1      10.599   2.351   0.298  0.00  0.00    +0.188 HD
ENDBRANCH   9  14
ENDBRANCH   5   6
ENDBRANCH   4   5
ENDBRANCH   3   4
ENDBRANCH   2   3
ENDBRANCH   1   2
BRANCH   1  18
ATOM     18  C   UNL     1      -1.830  -1.257  -0.646  0.00  0.00    +0.047 C 
BRANCH  18  19
ATOM     19  C   UNL     1      -3.182  -1.214   0.053  0.00  0.00    +0.205 C 
BRANCH  19  20
ATOM     20  O   UNL     1      -4.207  -1.218  -0.931  0.00  0.00    -0.475 OA
BRANCH  20  21
ATOM     21  C   UNL     1      -5.381  -0.591  -0.602  0.00  0.00    +0.139 C 
ATOM     22  C   UNL     1      -6.158   0.000  -1.599  0.00  0.00    +0.037 C 
ATOM     23  C   UNL     1      -5.799  -0.544   0.728  0.00  0.00    +0.037 C 
ATOM     24  C   UNL     1      -7.772   0.683   0.065  0.00  0.00    +0.031 C 
ATOM     25  C   UNL     1      -7.354   0.636  -1.265  0.00  0.00    +0.006 C 
ATOM     26  C   UNL     1      -6.994   0.092   1.061  0.00  0.00    +0.006 C 
BRANCH  24  29
ATOM     27  N   UNL     1      -9.463   1.407   1.732  0.00  0.00    -0.343 N 
ATOM     28  N   UNL     1      -9.755   1.901  -0.533  0.00  0.00    -0.285 NA
ATOM     29  C   UNL     1      -9.019   1.346   0.413  0.00  0.00    +0.117 C 
ATOM     30  H   UNL     1     -10.310   1.861   1.946  0.00  0.00    +0.144 HD
ATOM     31  H   UNL     1      -8.930   0.997   2.451  0.00  0.00    +0.144 HD
ATOM     32  H   UNL     1     -10.600   2.350  -0.300  0.00  0.00    +0.188 HD
ENDBRANCH  24  29
ENDBRANCH  20  21
ENDBRANCH  19  20
ENDBRANCH  18  19
ENDBRANCH   1  18
TORSDOF 11
