REMARK  Name = 5362422
REMARK  13 active torsions:
REMARK  status: ('A' for Active; 'I' for Inactive)
REMARK    1  A    between atoms: C_1  and  C_4
REMARK    2  A    between atoms: C_1  and  C_19
REMARK    3  A    between atoms: C_1  and  C_23
REMARK    4  A    between atoms: N_3  and  C_6
REMARK    5  A    between atoms: C_6  and  C_9
REMARK    6  A    between atoms: C_6  and  C_12
REMARK    7  A    between atoms: C_12  and  C_13
REMARK    8  A    between atoms: C_19  and  C_20
REMARK    9  A    between atoms: C_23  and  C_26
REMARK   10  A    between atoms: C_23  and  C_30
REMARK   11  A    between atoms: N_25  and  O_28
REMARK   12  A    between atoms: C_30  and  S_31
REMARK   13  A    between atoms: S_31  and  C_33
REMARK                            x       y       z     vdW  Elec       q    Type
REMARK                         _______ _______ _______ _____ _____    ______ ____
ROOT
ATOM      1  C   UNL     1      -0.719   0.577  -0.609  0.00  0.00    +0.086 C 
ENDROOT
BRANCH   1   4
ATOM      2  O   UNL     1       0.306   1.375   1.421  0.00  0.00    -0.275 OA
ATOM      3  N   UNL     1       1.698   0.983  -0.382  0.00  0.00    -0.298 N 
ATOM      4  C   UNL     1       0.472   1.008   0.257  0.00  0.00    +0.223 C 
ATOM      5  H   UNL     1       1.743   0.675  -1.316  0.00  0.00    +0.150 HD
BRANCH   3   6
ATOM      6  C   UNL     1       2.914   1.394   0.278  0.00  0.00    +0.153 C 
BRANCH   6   9
ATOM      7  O   UNL     1       2.672   3.485  -0.924  0.00  0.00    -0.273 OA
ATOM      8  N   UNL     1       3.562   3.521   1.221  0.00  0.00    -0.301 N 
ATOM      9  C   UNL     1       3.039   2.902   0.094  0.00  0.00    +0.241 C 
ATOM     10  C   UNL     1       3.740   4.952   1.330  0.00  0.00    +0.111 C 
ATOM     11  H   UNL     1       3.826   2.958   1.984  0.00  0.00    +0.150 HD
ENDBRANCH   6   9
BRANCH   6  12
ATOM     12  C   UNL     1       4.149   0.684  -0.288  0.00  0.00    +0.055 C 
BRANCH  12  13
ATOM     13  C   UNL     1       4.068  -0.818  -0.161  0.00  0.00    -0.020 C 
ATOM     14  C   UNL     1       4.562  -1.449   0.981  0.00  0.00    -0.004 C 
ATOM     15  C   UNL     1       3.498  -1.575  -1.185  0.00  0.00    -0.004 C 
ATOM     16  C   UNL     1       4.487  -2.837   1.098  0.00  0.00    -0.000 C 
ATOM     17  C   UNL     1       3.423  -2.962  -1.067  0.00  0.00    -0.000 C 
ATOM     18  C   UNL     1       3.917  -3.594   0.074  0.00  0.00    -0.000 C 
ENDBRANCH  12  13
ENDBRANCH   6  12
ENDBRANCH   3   6
ENDBRANCH   1   4
BRANCH   1  19
ATOM     19  C   UNL     1      -1.655   1.771  -0.901  0.00  0.00    +0.010 C 
BRANCH  19  20
ATOM     20  C   UNL     1      -2.841   1.479  -1.842  0.00  0.00    +0.000 C 
ATOM     21  C   UNL     1      -3.699   2.741  -1.992  0.00  0.00    +0.000 C 
ATOM     22  C   UNL     1      -2.394   1.002  -3.225  0.00  0.00    +0.000 C 
ENDBRANCH  19  20
ENDBRANCH   1  19
BRANCH   1  23
ATOM     23  C   UNL     1      -1.368  -0.712  -0.012  0.00  0.00    +0.098 C 
BRANCH  23  26
ATOM     24  O   UNL     1       0.698  -1.898   0.491  0.00  0.00    -0.273 OA
ATOM     25  N   UNL     1      -0.811  -2.873  -0.954  0.00  0.00    -0.197 N 
ATOM     26  C   UNL     1      -0.370  -1.876  -0.116  0.00  0.00    +0.245 C 
ATOM     27  H   UNL     1      -1.675  -2.817  -1.423  0.00  0.00    +0.182 HD
BRANCH  25  28
ATOM     28  O   UNL     1       0.045  -3.973  -1.101  0.00  0.00    -0.295 OA
ATOM     29  H   UNL     1      -0.355  -4.615  -1.708  0.00  0.00    +0.241 HD
ENDBRANCH  25  28
ENDBRANCH  23  26
BRANCH  23  30
ATOM     30  C   UNL     1      -1.917  -0.549   1.416  0.00  0.00    +0.072 C 
BRANCH  30  31
ATOM     31  S   UNL     1      -3.231  -1.760   1.789  0.00  0.00    -0.107 S 
BRANCH  31  33
ATOM     32  S   UNL     1      -5.677  -1.397   0.019  0.00  0.00    -0.080 S 
ATOM     33  C   UNL     1      -4.639  -0.837   1.261  0.00  0.00    +0.055 C 
ATOM     34  C   UNL     1      -5.042   0.382   1.761  0.00  0.00    +0.013 C 
ATOM     35  C   UNL     1      -6.219   0.862   1.118  0.00  0.00    +0.008 C 
ATOM     36  C   UNL     1      -6.670  -0.008   0.149  0.00  0.00    +0.036 C 
ENDBRANCH  31  33
ENDBRANCH  30  31
ENDBRANCH  23  30
ENDBRANCH   1  23
TORSDOF 13
