REMARK  Name = 3698251
REMARK  0 active torsions:
REMARK  status: ('A' for Active; 'I' for Inactive)
REMARK                            x       y       z     vdW  Elec       q    Type
REMARK                         _______ _______ _______ _____ _____    ______ ____
ROOT
ATOM      1  C   UNL     1       0.819  -0.472  -0.505  0.00  0.00    +0.126 C 
ATOM      2  O   UNL     1      -0.675   1.284  -0.039  0.00  0.00    -0.246 OA
ATOM      3  O   UNL     1      -1.380  -0.875   0.227  0.00  0.00    -0.246 OA
ATOM      4  C   UNL     1      -0.544   0.028  -0.059  0.00  0.00    +0.365 C 
ENDROOT
TORSDOF 0
REMARK  Name = 3698251
REMARK  0 active torsions:
REMARK  status: ('A' for Active; 'I' for Inactive)
REMARK                            x       y       z     vdW  Elec       q    Type
REMARK                         _______ _______ _______ _____ _____    ______ ____
ROOT
ATOM      1  O   UNL     1       1.780   0.034   0.376  0.00  0.00    -0.410 OA
ATOM      2  H   UNL     1       2.660  -0.274   0.107  0.00  0.00    +0.205 HD
ATOM      3  H   UNL     1       1.590  -0.275   1.275  0.00  0.00    +0.205 HD
ENDROOT
TORSDOF 0
