REMARK  Name = 96595
REMARK  1 active torsions:
REMARK  status: ('A' for Active; 'I' for Inactive)
REMARK    1  A    between atoms: C_3  and  N_9
REMARK                            x       y       z     vdW  Elec       q    Type
REMARK                         _______ _______ _______ _____ _____    ______ ____
ROOT
ATOM      1  F   UNL     1      -1.369  -2.372   0.001  0.00  0.00    -0.204 F 
ATOM      2  F   UNL     1      -1.380   2.365   0.000  0.00  0.00    -0.204 F 
ATOM      3  C   UNL     1       1.387   0.003   0.000  0.00  0.00    +0.046 C 
ATOM      4  C   UNL     1       0.687   1.210   0.000  0.00  0.00    +0.044 C 
ATOM      5  C   UNL     1       0.692  -1.206  -0.001  0.00  0.00    +0.044 C 
ATOM      6  C   UNL     1      -0.703  -1.210  -0.001  0.00  0.00    +0.144 C 
ATOM      7  C   UNL     1      -0.708   1.206   0.000  0.00  0.00    +0.144 C 
ATOM      8  C   UNL     1      -1.403  -0.003   0.000  0.00  0.00    +0.059 C 
ENDROOT
BRANCH   3   9
ATOM      9  N   UNL     1       2.797   0.006   0.000  0.00  0.00    -0.357 N 
ATOM     10  H   UNL     1       3.288   0.860   0.001  0.00  0.00    +0.142 HD
ATOM     11  H   UNL     1       3.291  -0.845   0.000  0.00  0.00    +0.142 HD
ENDBRANCH   3   9
TORSDOF 1
