REMARK  Name = 445279
REMARK  4 active torsions:
REMARK  status: ('A' for Active; 'I' for Inactive)
REMARK    1  A    between atoms: C_1  and  C_4
REMARK    2  A    between atoms: C_1  and  N_7
REMARK    3  A    between atoms: C_1  and  C_11
REMARK    4  A    between atoms: C_11  and  O_13
REMARK                            x       y       z     vdW  Elec       q    Type
REMARK                         _______ _______ _______ _____ _____    ______ ____
ROOT
ATOM      1  C   UNL     1       0.858  -0.513   0.440  0.00  0.00    +0.010 C 
ENDROOT
BRANCH   1   4
ATOM      2  S   UNL     1      -1.578   0.346   1.403  0.00  0.00    -0.072 S 
ATOM      3  N   UNL     1      -1.117  -0.359  -1.040  0.00  0.00    -0.243 NA
ATOM      4  C   UNL     1      -0.606  -0.209   0.133  0.00  0.00    +0.070 C 
ATOM      5  C   UNL     1      -2.880   0.415   0.289  0.00  0.00    +0.057 C 
ATOM      6  C   UNL     1      -2.446   0.004  -0.954  0.00  0.00    +0.106 C 
ENDBRANCH   1   4
BRANCH   1   7
ATOM      7  N   UNL     1       1.122  -1.943   0.242  0.00  0.00    +0.387 N 
ATOM      8  H   UNL     1       2.101  -2.140   0.449  0.00  0.00    -0.089 HD
ATOM      9  H   UNL     1       0.922  -2.194  -0.726  0.00  0.00    -0.089 HD
ATOM     10  H   UNL     1       0.526  -2.488   0.865  0.00  0.00    -0.089 HD
ENDBRANCH   1   7
BRANCH   1  11
ATOM     11  C   UNL     1       1.813   0.386  -0.381  0.00  0.00    +0.097 C 
ATOM     12  C   UNL     1       1.675   1.871  -0.056  0.00  0.00    +0.030 C 
BRANCH  11  13
ATOM     13  O   UNL     1       3.158   0.003  -0.075  0.00  0.00    -0.386 OA
ATOM     14  H   UNL     1       3.278  -0.939  -0.271  0.00  0.00    +0.210 HD
ENDBRANCH  11  13
ENDBRANCH   1  11
TORSDOF 4
