REMARK  Name = 4288
REMARK  5 active torsions:
REMARK  status: ('A' for Active; 'I' for Inactive)
REMARK    1  A    between atoms: N_2  and  C_17
REMARK    2  A    between atoms: C_3  and  C_5
REMARK    3  A    between atoms: C_6  and  S_11
REMARK    4  A    between atoms: S_11  and  N_14
REMARK    5  A    between atoms: C_17  and  C_20
REMARK                            x       y       z     vdW  Elec       q    Type
REMARK                         _______ _______ _______ _____ _____    ______ ____
ROOT
ATOM      1  O   UNL     1       0.699  -2.114   0.779  0.00  0.00    -0.270 OA
ATOM      2  N   UNL     1       1.131   0.112   1.265  0.00  0.00    -0.297 N 
ATOM      3  C   UNL     1       0.296  -0.941   0.873  0.00  0.00    +0.246 C 
ATOM      4  H   UNL     1       0.746   1.016   1.319  0.00  0.00    +0.150 HD
ENDROOT
BRANCH   3   5
ATOM      5  C   UNL     1      -1.081  -0.606   0.550  0.00  0.00    +0.053 C 
ATOM      6  C   UNL     1      -3.724   0.038  -0.070  0.00  0.00    +0.122 C 
ATOM      7  C   UNL     1      -1.801  -1.398  -0.345  0.00  0.00    +0.006 C 
ATOM      8  C   UNL     1      -1.684   0.509   1.134  0.00  0.00    +0.006 C 
ATOM      9  C   UNL     1      -3.122  -1.076  -0.655  0.00  0.00    +0.020 C 
ATOM     10  C   UNL     1      -3.005   0.831   0.824  0.00  0.00    +0.020 C 
BRANCH   6  11
ATOM     11  S   UNL     1      -5.378   0.441  -0.458  0.00  0.00    +0.057 S 
ATOM     12  O   UNL     1      -6.054  -0.771  -0.900  0.00  0.00    -0.153 OA
ATOM     13  O   UNL     1      -5.934   1.220   0.640  0.00  0.00    -0.153 OA
BRANCH  11  14
ATOM     14  N   UNL     1      -5.156   1.470  -1.803  0.00  0.00    -0.203 NA
ATOM     15  H   UNL     1      -6.064   1.789  -2.142  0.00  0.00    +0.144 HD
ATOM     16  H   UNL     1      -4.676   0.961  -2.546  0.00  0.00    +0.144 HD
ENDBRANCH  11  14
ENDBRANCH   6  11
ENDBRANCH   3   5
BRANCH   2  17
ATOM     17  C   UNL     1       2.528  -0.057   1.595  0.00  0.00    +0.121 C 
BRANCH  17  20
ATOM     18  F   UNL     1       3.589   2.464   0.899  0.00  0.00    -0.204 F 
ATOM     19  F   UNL     1       3.275  -2.159  -0.135  0.00  0.00    -0.204 F 
ATOM     20  C   UNL     1       3.416   0.149   0.403  0.00  0.00    +0.052 C 
ATOM     21  C   UNL     1       3.903   1.420   0.119  0.00  0.00    +0.140 C 
ATOM     22  C   UNL     1       3.743  -0.933  -0.407  0.00  0.00    +0.140 C 
ATOM     23  C   UNL     1       4.729   1.612  -0.989  0.00  0.00    +0.030 C 
ATOM     24  C   UNL     1       4.569  -0.741  -1.515  0.00  0.00    +0.030 C 
ATOM     25  C   UNL     1       5.061   0.531  -1.806  0.00  0.00    +0.005 C 
ENDBRANCH  17  20
ENDBRANCH   2  17
TORSDOF 5
