REMARK  Name = 150959
REMARK  8 active torsions:
REMARK  status: ('A' for Active; 'I' for Inactive)
REMARK    1  A    between atoms: C_2  and  O_15
REMARK    2  A    between atoms: C_3  and  O_17
REMARK    3  A    between atoms: C_4  and  C_19
REMARK    4  A    between atoms: C_5  and  N_8
REMARK    5  A    between atoms: C_19  and  O_20
REMARK    6  A    between atoms: O_20  and  P_21
REMARK    7  A    between atoms: P_21  and  O_23
REMARK    8  A    between atoms: P_21  and  O_25
REMARK                            x       y       z     vdW  Elec       q    Type
REMARK                         _______ _______ _______ _____ _____    ______ ____
ROOT
ATOM      1  O   UNL     1       0.315   0.980  -1.134  0.00  0.00    -0.332 OA
ATOM      2  C   UNL     1       0.665   2.717   0.438  0.00  0.00    +0.171 C 
ATOM      3  C   UNL     1      -0.612   1.988   0.800  0.00  0.00    +0.188 C 
ATOM      4  C   UNL     1       1.366   1.707  -0.460  0.00  0.00    +0.176 C 
ATOM      5  C   UNL     1      -0.940   1.266  -0.495  0.00  0.00    +0.246 C 
ENDROOT
BRANCH   5   8
ATOM      6  O   UNL     1      -3.770   0.924  -0.528  0.00  0.00    -0.250 OA
ATOM      7  O   UNL     1      -3.274  -3.561   0.383  0.00  0.00    -0.268 OA
ATOM      8  N   UNL     1      -1.641   0.033  -0.274  0.00  0.00    -0.136 N 
ATOM      9  N   UNL     1      -0.846  -1.058  -0.028  0.00  0.00    -0.166 NA
ATOM     10  N   UNL     1      -3.586  -1.301  -0.076  0.00  0.00    -0.233 N 
ATOM     11  C   UNL     1      -3.042  -0.047  -0.307  0.00  0.00    +0.331 C 
ATOM     12  C   UNL     1      -1.391  -2.207   0.181  0.00  0.00    +0.176 C 
ATOM     13  C   UNL     1      -2.856  -2.433   0.175  0.00  0.00    +0.274 C 
ATOM     14  H   UNL     1      -4.566  -1.384  -0.094  0.00  0.00    +0.159 HD
ENDBRANCH   5   8
BRANCH   2  15
ATOM     15  O   UNL     1       0.370   3.872  -0.346  0.00  0.00    -0.379 OA
ATOM     16  H   UNL     1      -0.078   4.532   0.206  0.00  0.00    +0.211 HD
ENDBRANCH   2  15
BRANCH   3  17
ATOM     17  O   UNL     1      -1.637   2.871   1.205  0.00  0.00    -0.378 OA
ATOM     18  H   UNL     1      -1.381   3.306   2.033  0.00  0.00    +0.211 HD
ENDBRANCH   3  17
BRANCH   4  19
ATOM     19  C   UNL     1       2.217   0.705   0.310  0.00  0.00    +0.186 C 
BRANCH  19  20
ATOM     20  O   UNL     1       2.811  -0.189  -0.614  0.00  0.00    -0.271 OA
BRANCH  20  21
ATOM     21  P   UNL     1       3.773  -1.361  -0.045  0.00  0.00    +0.473 P 
ATOM     22  O   UNL     1       4.360  -2.263  -1.092  0.00  0.00    -0.227 OA
BRANCH  21  23
ATOM     23  O   UNL     1       2.862  -2.098   1.069  0.00  0.00    -0.303 OA
ATOM     24  H   UNL     1       2.528  -1.440   1.700  0.00  0.00    +0.222 HD
ENDBRANCH  21  23
BRANCH  21  25
ATOM     25  O   UNL     1       4.854  -0.545   0.838  0.00  0.00    -0.303 OA
ATOM     26  H   UNL     1       4.391   0.009   1.485  0.00  0.00    +0.222 HD
ENDBRANCH  21  25
ENDBRANCH  20  21
ENDBRANCH  19  20
ENDBRANCH   4  19
TORSDOF 8
