REMARK  Name = 54688710
REMARK  6 active torsions:
REMARK  status: ('A' for Active; 'I' for Inactive)
REMARK    1  A    between atoms: C_2  and  O_7
REMARK    2  A    between atoms: C_3  and  O_9
REMARK    3  A    between atoms: C_4  and  O_11
REMARK    4  A    between atoms: C_5  and  O_13
REMARK    5  A    between atoms: C_6  and  C_16
REMARK    6  A    between atoms: C_16  and  O_17
REMARK                            x       y       z     vdW  Elec       q    Type
REMARK                         _______ _______ _______ _____ _____    ______ ____
ROOT
ATOM      1  O   UNL     1      -0.153  -1.400   0.072  0.00  0.00    -0.441 OA
ATOM      2  C   UNL     1       1.976  -0.234   0.505  0.00  0.00    +0.215 C 
ATOM      3  C   UNL     1       1.337   1.118   0.172  0.00  0.00    +0.203 C 
ATOM      4  C   UNL     1       1.254  -1.384  -0.204  0.00  0.00    +0.315 C 
ATOM      5  C   UNL     1      -0.159   1.011   0.072  0.00  0.00    +0.181 C 
ATOM      6  C   UNL     1      -0.786  -0.178   0.054  0.00  0.00    +0.248 C 
ENDROOT
BRANCH   2   7
ATOM      7  O   UNL     1       1.907  -0.434   1.916  0.00  0.00    -0.376 OA
ATOM      8  H   UNL     1       2.362   0.293   2.369  0.00  0.00    +0.211 HD
ENDBRANCH   2   7
BRANCH   3   9
ATOM      9  O   UNL     1       1.853   1.578  -1.075  0.00  0.00    -0.375 OA
ATOM     10  H   UNL     1       2.819   1.650  -1.019  0.00  0.00    +0.211 HD
ENDBRANCH   3   9
BRANCH   4  11
ATOM     11  O   UNL     1       1.507  -1.314  -1.606  0.00  0.00    -0.348 OA
ATOM     12  H   UNL     1       1.050  -2.042  -2.054  0.00  0.00    +0.214 HD
ENDBRANCH   4  11
BRANCH   5  13
ATOM     13  O   UNL     1      -0.849   2.208   0.050  0.00  0.00    -0.505 OA
ATOM     14  H   UNL     1      -0.380   3.019   0.064  0.00  0.00    +0.292 HD
ENDBRANCH   5  13
BRANCH   6  16
ATOM     15  O   UNL     1      -2.971   0.758   0.011  0.00  0.00    -0.242 OA
ATOM     16  C   UNL     1      -2.252  -0.223   0.022  0.00  0.00    +0.375 C 
BRANCH  16  17
ATOM     17  O   UNL     1      -2.663  -1.508   0.009  0.00  0.00    -0.475 OA
ATOM     18  H   UNL     1      -2.033  -2.201   0.020  0.00  0.00    +0.296 HD
ENDBRANCH  16  17
ENDBRANCH   6  16
TORSDOF 6
