REMARK  Name = 445579
REMARK  10 active torsions:
REMARK  status: ('A' for Active; 'I' for Inactive)
REMARK    1  A    between atoms: C_1  and  O_18
REMARK    2  A    between atoms: C_4  and  C_9
REMARK    3  A    between atoms: N_8  and  C_11
REMARK    4  A    between atoms: C_11  and  C_12
REMARK    5  A    between atoms: O_18  and  C_24
REMARK    6  A    between atoms: C_20  and  O_27
REMARK    7  A    between atoms: C_21  and  O_25
REMARK    8  A    between atoms: C_22  and  C_31
REMARK    9  A    between atoms: C_23  and  O_29
REMARK   10  A    between atoms: C_31  and  O_32
REMARK                            x       y       z     vdW  Elec       q    Type
REMARK                         _______ _______ _______ _____ _____    ______ ____
ROOT
ATOM      1  C   UNL     1      -1.564   1.957   0.469  0.00  0.00    +0.142 C 
ATOM      2  C   UNL     1      -0.255   1.737   0.051  0.00  0.00    +0.042 C 
ATOM      3  C   UNL     1      -2.005   3.244   0.762  0.00  0.00    +0.037 C 
ATOM      4  C   UNL     1       0.622   2.815  -0.074  0.00  0.00    +0.056 C 
ATOM      5  C   UNL     1      -1.128   4.321   0.636  0.00  0.00    +0.003 C 
ATOM      6  C   UNL     1       0.185   4.107   0.218  0.00  0.00    +0.005 C 
ENDROOT
BRANCH   4   9
ATOM      7  O   UNL     1       2.652   3.475  -1.073  0.00  0.00    -0.270 OA
ATOM      8  N   UNL     1       2.527   1.333  -0.231  0.00  0.00    -0.297 N 
ATOM      9  C   UNL     1       1.991   2.591  -0.511  0.00  0.00    +0.246 C 
ATOM     10  H   UNL     1       1.958   0.666   0.219  0.00  0.00    +0.150 HD
BRANCH   8  11
ATOM     11  C   UNL     1       3.883   0.968  -0.573  0.00  0.00    +0.117 C 
BRANCH  11  12
ATOM     12  C   UNL     1       4.207  -0.439  -0.163  0.00  0.00    -0.003 C 
ATOM     13  C   UNL     1       4.735  -0.683   1.100  0.00  0.00    -0.003 C 
ATOM     14  C   UNL     1       3.977  -1.485  -1.050  0.00  0.00    -0.003 C 
ATOM     15  C   UNL     1       5.037  -1.991   1.481  0.00  0.00    -0.000 C 
ATOM     16  C   UNL     1       4.278  -2.792  -0.668  0.00  0.00    -0.000 C 
ATOM     17  C   UNL     1       4.808  -3.045   0.597  0.00  0.00    -0.000 C 
ENDBRANCH  11  12
ENDBRANCH   8  11
ENDBRANCH   4   9
BRANCH   1  18
ATOM     18  O   UNL     1      -2.424   0.900   0.592  0.00  0.00    -0.451 OA
BRANCH  18  24
ATOM     19  O   UNL     1      -1.720  -0.907  -0.764  0.00  0.00    -0.316 OA
ATOM     20  C   UNL     1      -3.129  -2.560   0.356  0.00  0.00    +0.169 C 
ATOM     21  C   UNL     1      -4.221  -1.500   0.530  0.00  0.00    +0.173 C 
ATOM     22  C   UNL     1      -1.749  -1.894   0.279  0.00  0.00    +0.177 C 
ATOM     23  C   UNL     1      -4.096  -0.431  -0.555  0.00  0.00    +0.210 C 
ATOM     24  C   UNL     1      -2.677   0.141  -0.589  0.00  0.00    +0.318 C 
BRANCH  21  25
ATOM     25  O   UNL     1      -5.507  -2.107   0.447  0.00  0.00    -0.379 OA
ATOM     26  H   UNL     1      -5.590  -2.786   1.135  0.00  0.00    +0.211 HD
ENDBRANCH  21  25
BRANCH  20  27
ATOM     27  O   UNL     1      -3.359  -3.289  -0.852  0.00  0.00    -0.379 OA
ATOM     28  H   UNL     1      -4.230  -3.714  -0.812  0.00  0.00    +0.211 HD
ENDBRANCH  20  27
BRANCH  23  29
ATOM     29  O   UNL     1      -5.023   0.624  -0.319  0.00  0.00    -0.377 OA
ATOM     30  H   UNL     1      -5.924   0.264  -0.297  0.00  0.00    +0.211 HD
ENDBRANCH  23  29
BRANCH  22  31
ATOM     31  C   UNL     1      -0.637  -2.894  -0.015  0.00  0.00    +0.169 C 
BRANCH  31  32
ATOM     32  O   UNL     1       0.594  -2.196  -0.080  0.00  0.00    -0.379 OA
ATOM     33  H   UNL     1       1.311  -2.821  -0.266  0.00  0.00    +0.211 HD
ENDBRANCH  31  32
ENDBRANCH  22  31
ENDBRANCH  18  24
ENDBRANCH   1  18
TORSDOF 10
