REMARK  Name = 5289554
REMARK  9 active torsions:
REMARK  status: ('A' for Active; 'I' for Inactive)
REMARK    1  A    between atoms: C_1  and  C_2
REMARK    2  A    between atoms: C_1  and  C_12
REMARK    3  A    between atoms: C_2  and  CA_3
REMARK    4  A    between atoms: CA_3  and  N_4
REMARK    5  A    between atoms: CA_3  and  C_9
REMARK    6  A    between atoms: C_9  and  O_10
REMARK    7  A    between atoms: C_12  and  N_13
REMARK    8  A    between atoms: C_15  and  C_19
REMARK    9  A    between atoms: C_19  and  C_20
REMARK                            x       y       z     vdW  Elec       q    Type
REMARK                         _______ _______ _______ _____ _____    ______ ____
ROOT
ATOM      1  C   UNL     1       0.778  -0.084  -0.289  0.00  0.00    +0.020 C 
ENDROOT
BRANCH   1   2
ATOM      2  C   UNL     1       1.649   1.122   0.098  0.00  0.00    -0.009 C 
BRANCH   2   3
ATOM      3  CA  UNL     1       3.142   0.978  -0.238  0.00  0.00    +0.036 C 
BRANCH   3   4
ATOM      4  N   UNL     1       3.372   0.898  -1.680  0.00  0.00    +0.389 N 
ATOM      5  H1  UNL     1       2.960   1.713  -2.136  0.00  0.00    -0.088 HD
ATOM      6  H2  UNL     1       2.942   0.050  -2.047  0.00  0.00    -0.088 HD
ATOM      7  H3  UNL     1       4.375   0.878  -1.864  0.00  0.00    -0.088 HD
ENDBRANCH   3   4
BRANCH   3   9
ATOM      8  OXT UNL     1       4.287  -1.177  -0.170  0.00  0.00    -0.253 OA
ATOM      9  C   UNL     1       3.762  -0.242   0.421  0.00  0.00    +0.293 C 
BRANCH   9  10
ATOM     10  O   UNL     1       3.670  -0.191   1.776  0.00  0.00    -0.482 OA
ATOM     11  H   UNL     1       3.260   0.543   2.190  0.00  0.00    +0.295 HD
ENDBRANCH   9  10
ENDBRANCH   3   9
ENDBRANCH   2   3
ENDBRANCH   1   2
BRANCH   1  12
ATOM     12  C   UNL     1      -0.677   0.104   0.122  0.00  0.00    +0.088 C 
BRANCH  12  13
ATOM     13  N   UNL     1      -1.459  -1.058  -0.300  0.00  0.00    -0.323 N 
ATOM     14  N   UNL     1      -3.540  -2.195  -0.418  0.00  0.00    -0.390 N 
ATOM     15  C   UNL     1      -2.767  -1.173  -0.069  0.00  0.00    +0.075 C 
ATOM     16  H   UNL     1      -1.000  -1.787  -0.776  0.00  0.00    +0.148 HD
ATOM     17  H   UNL     1      -3.153  -2.963  -0.897  0.00  0.00    +0.157 HD
ATOM     18  H   UNL     1      -4.499  -2.185  -0.197  0.00  0.00    +0.157 HD
BRANCH  15  19
ATOM     19  C   UNL     1      -3.428  -0.054   0.650  0.00  0.00    +0.058 C 
BRANCH  19  20
ATOM     20  C   UNL     1      -4.029   0.972  -0.310  0.00  0.00    +0.008 C 
ATOM     21  C   UNL     1      -4.761   2.097   0.408  0.00  0.00    +0.000 C 
ENDBRANCH  19  20
ENDBRANCH  15  19
ENDBRANCH  12  13
ENDBRANCH   1  12
TORSDOF 9
