REMARK  Name = 1894
REMARK  1 active torsions:
REMARK  status: ('A' for Active; 'I' for Inactive)
REMARK    1  A    between atoms: C_8  and  N_18
REMARK                            x       y       z     vdW  Elec       q    Type
REMARK                         _______ _______ _______ _____ _____    ______ ____
ROOT
ATOM      1  N   UNL     1       1.786  -0.061   0.000  0.00  0.00    -0.160 N 
ATOM      2  N   UNL     1       0.713   0.755   0.000  0.00  0.00    -0.170 NA
ATOM      3  N   UNL     1       3.173   1.877  -0.001  0.00  0.00    -0.330 N 
ATOM      4  N   UNL     1       4.067  -0.286   0.000  0.00  0.00    -0.271 NA
ATOM      5  C   UNL     1       0.125  -1.439   0.000  0.00  0.00    +0.038 C 
ATOM      6  C   UNL     1      -0.345  -0.074   0.000  0.00  0.00    +0.123 C 
ATOM      7  C   UNL     1       1.490  -1.393   0.000  0.00  0.00    +0.094 C 
ATOM      8  C   UNL     1      -1.724   0.207   0.000  0.00  0.00    +0.162 C 
ATOM      9  C   UNL     1      -0.647  -2.595   0.000  0.00  0.00    +0.003 C 
ATOM     10  C   UNL     1      -2.536  -0.948   0.000  0.00  0.00    +0.026 C 
ATOM     11  C   UNL     1      -2.021  -2.283   0.000  0.00  0.00    +0.002 C 
ATOM     12  C   UNL     1       3.040   0.511   0.000  0.00  0.00    +0.197 C 
ATOM     13  H   UNL     1       2.372   2.449   0.000  0.00  0.00    +0.145 HD
ATOM     14  H   UNL     1       4.069   2.284  -0.001  0.00  0.00    +0.145 HD
ATOM     15  H   UNL     1       3.934  -1.262   0.000  0.00  0.00    +0.189 HD
ENDROOT
BRANCH   8  18
ATOM     16  O   UNL     1      -3.473   1.711   0.000  0.00  0.00    -0.126 OA
ATOM     17  O   UNL     1      -1.421   2.493   0.000  0.00  0.00    -0.126 OA
ATOM     18  N   UNL     1      -2.227   1.526   0.000  0.00  0.00    +0.059 N 
ENDBRANCH   8  18
TORSDOF 1
