REMARK  Name = 446920
REMARK  10 active torsions:
REMARK  status: ('A' for Active; 'I' for Inactive)
REMARK    1  A    between atoms: P_1  and  O_3
REMARK    2  A    between atoms: P_1  and  C_5
REMARK    3  A    between atoms: P_1  and  C_12
REMARK    4  A    between atoms: C_5  and  C_6
REMARK    5  A    between atoms: C_6  and  C_9
REMARK    6  A    between atoms: C_9  and  O_10
REMARK    7  A    between atoms: C_12  and  N_13
REMARK    8  A    between atoms: C_12  and  C_17
REMARK    9  A    between atoms: C_17  and  C_19
REMARK   10  A    between atoms: C_19  and  O_20
REMARK                            x       y       z     vdW  Elec       q    Type
REMARK                         _______ _______ _______ _____ _____    ______ ____
ROOT
ATOM      1  P   UNL     1       0.386   0.742   0.682  0.00  0.00    +0.201 P 
ATOM      2  O   UNL     1       0.822  -0.246   1.727  0.00  0.00    -0.292 OA
ENDROOT
BRANCH   1   3
ATOM      3  O   UNL     1       0.765   2.266   1.074  0.00  0.00    -0.344 OA
ATOM      4  H   UNL     1       0.379   2.483   1.937  0.00  0.00    +0.218 HD
ENDBRANCH   1   3
BRANCH   1   5
ATOM      5  C   UNL     1      -1.383   0.824   0.491  0.00  0.00    +0.096 C 
BRANCH   5   6
ATOM      6  C   UNL     1      -2.015  -0.425  -0.120  0.00  0.00    +0.108 C 
ATOM      7  C   UNL     1      -1.661  -1.681   0.673  0.00  0.00    +0.012 C 
BRANCH   6   9
ATOM      8  O   UNL     1      -4.209   0.402   0.543  0.00  0.00    -0.250 OA
ATOM      9  C   UNL     1      -3.521  -0.258  -0.224  0.00  0.00    +0.314 C 
BRANCH   9  10
ATOM     10  O   UNL     1      -4.041  -0.940  -1.278  0.00  0.00    -0.480 OA
ATOM     11  H   UNL     1      -3.478  -1.433  -1.841  0.00  0.00    +0.295 HD
ENDBRANCH   9  10
ENDBRANCH   6   9
ENDBRANCH   5   6
ENDBRANCH   1   5
BRANCH   1  12
ATOM     12  C   UNL     1       1.164   0.505  -0.910  0.00  0.00    +0.026 C 
BRANCH  12  13
ATOM     13  N   UNL     1       0.708   1.698  -1.618  0.00  0.00    +0.388 N 
ATOM     14  H   UNL     1      -0.311   1.746  -1.581  0.00  0.00    -0.088 HD
ATOM     15  H   UNL     1       1.011   1.653  -2.591  0.00  0.00    -0.088 HD
ATOM     16  H   UNL     1       1.103   2.528  -1.176  0.00  0.00    -0.088 HD
ENDBRANCH  12  13
BRANCH  12  17
ATOM     17  C   UNL     1       2.686   0.410  -0.951  0.00  0.00    +0.097 C 
BRANCH  17  19
ATOM     18  O   UNL     1       2.632  -1.884  -0.138  0.00  0.00    -0.250 OA
ATOM     19  C   UNL     1       3.213  -0.811  -0.230  0.00  0.00    +0.312 C 
BRANCH  19  20
ATOM     20  O   UNL     1       4.455  -0.599   0.279  0.00  0.00    -0.480 OA
ATOM     21  H   UNL     1       4.862   0.239   0.185  0.00  0.00    +0.295 HD
ENDBRANCH  19  20
ENDBRANCH  17  19
ENDBRANCH  12  17
ENDBRANCH   1  12
TORSDOF 10
