REMARK  Name = 6857384
REMARK  5 active torsions:
REMARK  status: ('A' for Active; 'I' for Inactive)
REMARK    1  A    between atoms: C_2  and  O_6
REMARK    2  A    between atoms: C_3  and  C_12
REMARK    3  A    between atoms: C_4  and  O_8
REMARK    4  A    between atoms: C_5  and  O_10
REMARK    5  A    between atoms: C_12  and  O_13
REMARK                            x       y       z     vdW  Elec       q    Type
REMARK                         _______ _______ _______ _____ _____    ______ ____
ROOT
ATOM      1  O   UNL     1      -0.545   1.038   0.683  0.00  0.00    -0.326 OA
ATOM      2  C   UNL     1       0.330  -0.963  -0.266  0.00  0.00    +0.172 C 
ATOM      3  C   UNL     1      -0.911  -0.312   0.331  0.00  0.00    +0.176 C 
ATOM      4  C   UNL     1       1.430  -0.202   0.439  0.00  0.00    +0.196 C 
ATOM      5  C   UNL     1       0.862   1.207   0.446  0.00  0.00    +0.262 C 
ENDROOT
BRANCH   2   6
ATOM      6  O   UNL     1       0.369  -2.346   0.032  0.00  0.00    -0.379 OA
ATOM      7  H   UNL     1      -0.349  -2.799  -0.437  0.00  0.00    +0.211 HD
ENDBRANCH   2   6
BRANCH   4   8
ATOM      8  O   UNL     1       2.664  -0.302  -0.240  0.00  0.00    -0.378 OA
ATOM      9  H   UNL     1       2.976  -1.220  -0.211  0.00  0.00    +0.211 HD
ENDBRANCH   4   8
BRANCH   5  10
ATOM     10  O   UNL     1       1.077   1.834  -0.815  0.00  0.00    -0.358 OA
ATOM     11  H   UNL     1       0.710   2.731  -0.796  0.00  0.00    +0.213 HD
ENDBRANCH   5  10
BRANCH   3  12
ATOM     12  C   UNL     1      -2.087  -0.283  -0.630  0.00  0.00    +0.169 C 
BRANCH  12  13
ATOM     13  O   UNL     1      -3.189   0.329   0.019  0.00  0.00    -0.379 OA
ATOM     14  H   UNL     1      -3.947   0.353  -0.586  0.00  0.00    +0.211 HD
ENDBRANCH  12  13
ENDBRANCH   3  12
TORSDOF 5
