REMARK  Name = 54676715
REMARK  10 active torsions:
REMARK  status: ('A' for Active; 'I' for Inactive)
REMARK    1  A    between atoms: C_1  and  C_5
REMARK    2  A    between atoms: C_1  and  C_12
REMARK    3  A    between atoms: C_6  and  O_10
REMARK    4  A    between atoms: C_12  and  C_13
REMARK    5  A    between atoms: C_13  and  C_14
REMARK    6  A    between atoms: C_14  and  C_15
REMARK    7  A    between atoms: C_15  and  C_16
REMARK    8  A    between atoms: C_16  and  C_17
REMARK    9  A    between atoms: C_17  and  C_18
REMARK   10  A    between atoms: C_18  and  C_19
REMARK                            x       y       z     vdW  Elec       q    Type
REMARK                         _______ _______ _______ _____ _____    ______ ____
ROOT
ATOM      1  C   UNL     1      -2.649  -1.770   0.799  0.00  0.00    +0.034 C 
ENDROOT
BRANCH   1   5
ATOM      2  O   UNL     1      -3.130  -1.172  -2.102  0.00  0.00    -0.270 OA
ATOM      3  O   UNL     1      -4.449   2.697  -0.009  0.00  0.00    -0.266 OA
ATOM      4  N   UNL     1      -3.884   0.927  -1.423  0.00  0.00    -0.246 N 
ATOM      5  C   UNL     1      -3.186  -0.513   0.201  0.00  0.00    +0.070 C 
ATOM      6  C   UNL     1      -3.574   0.622   0.794  0.00  0.00    +0.188 C 
ATOM      7  C   UNL     1      -3.381  -0.334  -1.253  0.00  0.00    +0.251 C 
ATOM      8  C   UNL     1      -4.032   1.575  -0.229  0.00  0.00    +0.285 C 
ATOM      9  H   UNL     1      -4.111   1.319  -2.297  0.00  0.00    +0.158 HD
BRANCH   6  10
ATOM     10  O   UNL     1      -3.568   0.900   2.126  0.00  0.00    -0.502 OA
ATOM     11  H   UNL     1      -3.266   0.258   2.738  0.00  0.00    +0.292 HD
ENDBRANCH   6  10
ENDBRANCH   1   5
BRANCH   1  12
ATOM     12  C   UNL     1      -1.234  -2.114   0.328  0.00  0.00    +0.005 C 
BRANCH  12  13
ATOM     13  C   UNL     1      -0.212  -1.019   0.652  0.00  0.00    +0.000 C 
BRANCH  13  14
ATOM     14  C   UNL     1       1.181  -1.392   0.138  0.00  0.00    +0.000 C 
BRANCH  14  15
ATOM     15  C   UNL     1       2.209  -0.316   0.494  0.00  0.00    +0.000 C 
BRANCH  15  16
ATOM     16  C   UNL     1       3.622  -0.633  -0.003  0.00  0.00    +0.000 C 
BRANCH  16  17
ATOM     17  C   UNL     1       4.691   0.420   0.304  0.00  0.00    +0.000 C 
BRANCH  17  18
ATOM     18  C   UNL     1       6.069   0.074  -0.266  0.00  0.00    +0.000 C 
BRANCH  18  19
ATOM     19  C   UNL     1       7.072   1.199  -0.008  0.00  0.00    +0.000 C 
ATOM     20  C   UNL     1       8.452   0.849  -0.542  0.00  0.00    +0.000 C 
ENDBRANCH  18  19
ENDBRANCH  17  18
ENDBRANCH  16  17
ENDBRANCH  15  16
ENDBRANCH  14  15
ENDBRANCH  13  14
ENDBRANCH  12  13
ENDBRANCH   1  12
TORSDOF 10
