REMARK  Name = 443388
REMARK  13 active torsions:
REMARK  status: ('A' for Active; 'I' for Inactive)
REMARK    1  A    between atoms: C_1  and  N_22
REMARK    2  A    between atoms: C_2  and  C_9
REMARK    3  A    between atoms: N_8  and  CA_11
REMARK    4  A    between atoms: CA_11  and  C_13
REMARK    5  A    between atoms: CA_11  and  CB_16
REMARK    6  A    between atoms: C_13  and  O_14
REMARK    7  A    between atoms: CB_16  and  CG_17
REMARK    8  A    between atoms: CG_17  and  CD_19
REMARK    9  A    between atoms: CD_19  and  OE1_20
REMARK   10  A    between atoms: N_22  and  C_23
REMARK   11  A    between atoms: N_22  and  C_39
REMARK   12  A    between atoms: C_23  and  C_28
REMARK   13  A    between atoms: C_39  and  C_40
REMARK                            x       y       z     vdW  Elec       q    Type
REMARK                         _______ _______ _______ _____ _____    ______ ____
ROOT
ATOM      1  C   UNL     1      -0.418  -1.500  -0.283  0.00  0.00    +0.049 C 
ATOM      2  C   UNL     1       1.968  -0.349  -1.156  0.00  0.00    +0.053 C 
ATOM      3  C   UNL     1       0.383  -0.791   0.613  0.00  0.00    +0.015 C 
ATOM      4  C   UNL     1      -0.026  -1.633  -1.615  0.00  0.00    +0.015 C 
ATOM      5  C   UNL     1       1.576  -0.216   0.176  0.00  0.00    +0.006 C 
ATOM      6  C   UNL     1       1.167  -1.057  -2.051  0.00  0.00    +0.006 C 
ENDROOT
BRANCH   2   9
ATOM      7  O   UNL     1       3.346   0.607  -2.795  0.00  0.00    -0.270 OA
ATOM      8  N   UNL     1       4.221   0.424  -0.655  0.00  0.00    -0.293 N 
ATOM      9  C   ACE A   0       3.213   0.251  -1.610  0.00  0.00    +0.246 C 
ATOM     10  H   UNL     1       4.048   0.119   0.265  0.00  0.00    +0.150 HD
BRANCH   8  11
ATOM     11  CA  UNL     1       5.503   1.025  -0.946  0.00  0.00    +0.172 C 
BRANCH  11  13
ATOM     12  OXT UNL     1       6.426  -1.223  -1.098  0.00  0.00    -0.248 OA
ATOM     13  C   UNL     1       6.407  -0.063  -1.487  0.00  0.00    +0.332 C 
BRANCH  13  14
ATOM     14  O   UNL     1       7.190   0.387  -2.503  0.00  0.00    -0.479 OA
ATOM     15  H   UNL     1       7.143   1.284  -2.769  0.00  0.00    +0.295 HD
ENDBRANCH  13  14
ENDBRANCH  11  13
BRANCH  11  16
ATOM     16  CB  UNL     1       6.090   1.778   0.254  0.00  0.00    +0.043 C 
BRANCH  16  17
ATOM     17  CG  UNL     1       6.398   0.926   1.492  0.00  0.00    +0.112 C 
BRANCH  17  19
ATOM     18  OE2 UNL     1       7.165   2.923   2.657  0.00  0.00    -0.250 OA
ATOM     19  CD  UNL     1       6.963   1.717   2.652  0.00  0.00    +0.314 C 
BRANCH  19  20
ATOM     20  OE1 UNL     1       7.269   0.913   3.704  0.00  0.00    -0.480 OA
ATOM     21  HE1 UNL     1       7.097  -0.007   3.656  0.00  0.00    +0.295 HD
ENDBRANCH  19  20
ENDBRANCH  17  19
ENDBRANCH  16  17
ENDBRANCH  11  16
ENDBRANCH   8  11
ENDBRANCH   2   9
BRANCH   1  22
ATOM     22  N   UNL     1      -1.616  -2.079   0.155  0.00  0.00    -0.292 N 
BRANCH  22  23
ATOM     23  C   UNL     1      -2.747  -2.231  -0.733  0.00  0.00    +0.118 C 
BRANCH  23  28
ATOM     24  O   UNL     1      -6.796  -0.521   1.955  0.00  0.00    -0.209 OA
ATOM     25  N   UNL     1      -6.025   2.415  -0.659  0.00  0.00    -0.275 N 
ATOM     26  N   UNL     1      -7.337   1.546   1.128  0.00  0.00    -0.302 NA
ATOM     27  N   UNL     1      -7.767   3.647   0.182  0.00  0.00    -0.320 N 
ATOM     28  C   UNL     1      -3.605  -1.010  -0.719  0.00  0.00    -0.002 C 
ATOM     29  C   UNL     1      -4.652  -0.907   0.196  0.00  0.00    +0.011 C 
ATOM     30  C   UNL     1      -5.449   0.241   0.202  0.00  0.00    +0.108 C 
ATOM     31  C   UNL     1      -5.205   1.285  -0.699  0.00  0.00    +0.063 C 
ATOM     32  C   UNL     1      -3.355   0.025  -1.620  0.00  0.00    -0.001 C 
ATOM     33  C   UNL     1      -4.153   1.171  -1.610  0.00  0.00    +0.015 C 
ATOM     34  C   UNL     1      -6.577   0.390   1.163  0.00  0.00    +0.208 C 
ATOM     35  C   UNL     1      -7.049   2.479   0.258  0.00  0.00    +0.248 C 
ATOM     36  H   UNL     1      -5.871   3.160  -1.284  0.00  0.00    +0.156 HD
ATOM     37  H   UNL     1      -7.526   4.330  -0.484  0.00  0.00    +0.146 HD
ATOM     38  H   UNL     1      -8.523   3.800   0.794  0.00  0.00    +0.146 HD
ENDBRANCH  23  28
ENDBRANCH  22  23
BRANCH  22  39
ATOM     39  C   UNL     1      -1.750  -2.533   1.539  0.00  0.00    +0.170 C 
BRANCH  39  40
ATOM     40  C   UNL     1      -0.777  -3.587   1.834  0.00  0.00    -0.056 C 
ATOM     41  C   UNL     1       0.020  -4.451   2.080  0.00  0.00    -0.012 C 
ENDBRANCH  39  40
ENDBRANCH  22  39
ENDBRANCH   1  22
TORSDOF 13
