REMARK  Name = 5287610
REMARK  3 active torsions:
REMARK  status: ('A' for Active; 'I' for Inactive)
REMARK    1  A    between atoms: N_1  and  C_10
REMARK    2  A    between atoms: C_11  and  O_15
REMARK    3  A    between atoms: C_12  and  O_17
REMARK                            x       y       z     vdW  Elec       q    Type
REMARK                         _______ _______ _______ _____ _____    ______ ____
ROOT
ATOM      1  N   UNL     1       0.160  -0.088  -0.155  0.00  0.00    -0.267 N 
ATOM      2  N   UNL     1      -1.197  -1.836   0.101  0.00  0.00    -0.242 NA
ATOM      3  N   UNL     1      -1.473   1.708  -0.204  0.00  0.00    -0.228 NA
ATOM      4  N   UNL     1      -3.744   0.846   0.035  0.00  0.00    -0.229 NA
ATOM      5  C   UNL     1      -1.105   0.421  -0.112  0.00  0.00    +0.151 C 
ATOM      6  C   UNL     1       0.054  -1.447  -0.023  0.00  0.00    +0.221 C 
ATOM      7  C   UNL     1      -1.933  -0.678   0.048  0.00  0.00    +0.140 C 
ATOM      8  C   UNL     1      -3.300  -0.431   0.122  0.00  0.00    +0.143 C 
ATOM      9  C   UNL     1      -2.817   1.822  -0.120  0.00  0.00    +0.253 C 
ATOM     10  N   UNL     1      -4.212  -1.488   0.285  0.00  0.00    -0.342 N 
ATOM     11  H   UNL     1      -5.178  -1.301   0.336  0.00  0.00    +0.144 HD
ATOM     12  H   UNL     1      -3.886  -2.414   0.348  0.00  0.00    +0.144 HD
ENDROOT
BRANCH   1  13
ATOM     13  C   UNL     1       1.407   0.667  -0.312  0.00  0.00    +0.127 C 
ATOM     14  C   UNL     1       2.412   0.456   0.843  0.00  0.00    +0.164 C 
ATOM     15  C   UNL     1       3.652  -0.216   0.231  0.00  0.00    +0.161 C 
ATOM     16  C   UNL     1       2.178   0.278  -1.535  0.00  0.00    -0.006 C 
ATOM     17  C   UNL     1       3.390  -0.196  -1.239  0.00  0.00    +0.002 C 
BRANCH  14  18
ATOM     18  O   UNL     1       2.776   1.740   1.352  0.00  0.00    -0.380 OA
ATOM     19  H   UNL     1       1.996   2.167   1.739  0.00  0.00    +0.211 HD
ENDBRANCH  14  18
BRANCH  15  20
ATOM     20  O   UNL     1       3.751  -1.558   0.683  0.00  0.00    -0.378 OA
ATOM     21  H   UNL     1       3.921  -1.566   1.638  0.00  0.00    +0.211 HD
ENDBRANCH  15  20
ENDBRANCH   1  13
TORSDOF 3
