REMARK  Name = 447476
REMARK  4 active torsions:
REMARK  status: ('A' for Active; 'I' for Inactive)
REMARK    1  A    between atoms: C_2  and  C_17
REMARK    2  A    between atoms: C_8  and  C_13
REMARK    3  A    between atoms: C_18  and  O_29
REMARK    4  A    between atoms: C_19  and  C_23
REMARK                            x       y       z     vdW  Elec       q    Type
REMARK                         _______ _______ _______ _____ _____    ______ ____
ROOT
ATOM      1  N   UNL     1      -0.966  -0.477   0.559  0.00  0.00    -0.312 N 
ATOM      2  C   UNL     1      -0.594   0.766   0.122  0.00  0.00    +0.051 C 
ATOM      3  C   UNL     1      -2.830   0.540  -0.126  0.00  0.00    +0.015 C 
ATOM      4  C   UNL     1      -2.326  -0.643   0.419  0.00  0.00    +0.048 C 
ATOM      5  C   UNL     1      -1.726   1.420  -0.308  0.00  0.00    +0.016 C 
ATOM      6  C   UNL     1      -4.214   0.638  -0.372  0.00  0.00    +0.004 C 
ATOM      7  C   UNL     1      -3.139  -1.738   0.730  0.00  0.00    +0.015 C 
ATOM      8  C   UNL     1      -5.040  -0.450  -0.066  0.00  0.00    +0.031 C 
ATOM      9  C   UNL     1      -4.509  -1.618   0.476  0.00  0.00    +0.004 C 
ATOM     10  H   UNL     1      -0.350  -1.155   0.920  0.00  0.00    +0.152 HD
ENDROOT
BRANCH   8  13
ATOM     11  N   UNL     1      -7.327  -1.417  -0.028  0.00  0.00    -0.343 N 
ATOM     12  N   UNL     1      -6.976   0.747  -0.836  0.00  0.00    -0.285 NA
ATOM     13  C   UNL     1      -6.470  -0.357  -0.318  0.00  0.00    +0.117 C 
ATOM     14  H   UNL     1      -8.291  -1.334  -0.207  0.00  0.00    +0.144 HD
ATOM     15  H   UNL     1      -6.967  -2.250   0.356  0.00  0.00    +0.144 HD
ATOM     16  H   UNL     1      -7.943   0.812  -1.008  0.00  0.00    +0.188 HD
ENDBRANCH   8  13
BRANCH   2  17
ATOM     17  C   UNL     1       0.778   1.209   0.154  0.00  0.00    +0.047 C 
ATOM     18  C   UNL     1       1.832   0.302   0.023  0.00  0.00    +0.135 C 
ATOM     19  C   UNL     1       3.151   0.754   0.057  0.00  0.00    +0.034 C 
ATOM     20  C   UNL     1       1.049   2.569   0.319  0.00  0.00    +0.004 C 
ATOM     21  C   UNL     1       3.419   2.113   0.221  0.00  0.00    +0.003 C 
ATOM     22  C   UNL     1       2.368   3.020   0.352  0.00  0.00    +0.000 C 
BRANCH  19  23
ATOM     23  C   UNL     1       4.260  -0.170  -0.078  0.00  0.00    +0.003 C 
ATOM     24  C   UNL     1       4.812  -0.762   1.057  0.00  0.00    +0.000 C 
ATOM     25  C   UNL     1       4.771  -0.464  -1.341  0.00  0.00    +0.000 C 
ATOM     26  C   UNL     1       5.879  -1.652   0.928  0.00  0.00    +0.000 C 
ATOM     27  C   UNL     1       5.838  -1.353  -1.469  0.00  0.00    +0.000 C 
ATOM     28  C   UNL     1       6.391  -1.947  -0.335  0.00  0.00    +0.000 C 
ENDBRANCH  19  23
BRANCH  18  29
ATOM     29  O   UNL     1       1.569  -1.029  -0.139  0.00  0.00    -0.505 OA
ATOM     30  H   UNL     1       0.683  -1.333  -0.161  0.00  0.00    +0.292 HD
ENDBRANCH  18  29
ENDBRANCH   2  17
TORSDOF 4
