REMARK  Name = 5289579
REMARK  3 active torsions:
REMARK  status: ('A' for Active; 'I' for Inactive)
REMARK    1  A    between atoms: C_3  and  C_14
REMARK    2  A    between atoms: C_5  and  N_9
REMARK    3  A    between atoms: C_14  and  O_15
REMARK                            x       y       z     vdW  Elec       q    Type
REMARK                         _______ _______ _______ _____ _____    ______ ____
ROOT
ATOM      1  N   UNK     1       0.651  -0.821  -0.782  0.00  0.00    +0.382 N 
ATOM      2  C   UNK     1      -0.013   1.209   0.309  0.00  0.00    -0.013 C 
ATOM      3  C   UNK     1      -0.482   0.097  -0.632  0.00  0.00    +0.037 C 
ATOM      4  C   UNK     1       1.486   0.956   0.458  0.00  0.00    -0.044 C 
ATOM      5  C   UNK     1       1.576  -0.555   0.317  0.00  0.00    -0.134 C 
ATOM      6  C   UNK     1      -0.316   2.604  -0.221  0.00  0.00    -0.002 C 
ATOM      7  H   UNK     1       1.115  -0.659  -1.676  0.00  0.00    -0.087 HD
ATOM      8  H   UNK     1       0.334  -1.791  -0.761  0.00  0.00    -0.087 HD
ENDROOT
BRANCH   5   9
ATOM      9  N   UNK     1       2.925  -0.993   0.005  0.00  0.00    +0.370 N 
ATOM     10  H   UNK     1       2.941  -2.009  -0.081  0.00  0.00    -0.092 HD
ATOM     11  H   UNK     1       3.557  -0.705   0.751  0.00  0.00    -0.092 HD
ATOM     12  H   UNK     1       3.224  -0.572  -0.875  0.00  0.00    -0.092 HD
ENDBRANCH   5   9
BRANCH   3  14
ATOM     13  O   UNK     1      -1.527  -1.874   0.342  0.00  0.00    -0.253 OA
ATOM     14  C   UNK     1      -1.600  -0.698   0.017  0.00  0.00    +0.293 C 
BRANCH  14  15
ATOM     15  O   UNK     1      -2.700   0.075   0.188  0.00  0.00    -0.482 OA
ATOM     16  H   UNK     1      -2.690   0.972  -0.084  0.00  0.00    +0.295 HD
ENDBRANCH  14  15
ENDBRANCH   3  14
TORSDOF 3
