REMARK  Name = 76839
REMARK  5 active torsions:
REMARK  status: ('A' for Active; 'I' for Inactive)
REMARK    1  A    between atoms: P_1  and  O_3
REMARK    2  A    between atoms: P_1  and  O_5
REMARK    3  A    between atoms: P_1  and  C_7
REMARK    4  A    between atoms: C_7  and  C_8
REMARK    5  A    between atoms: C_8  and  C_9
REMARK                            x       y       z     vdW  Elec       q    Type
REMARK                         _______ _______ _______ _____ _____    ______ ____
ROOT
ATOM      1  P   UNL     1       1.567  -0.109  -0.057  0.00  0.00    +0.337 P 
ATOM      2  O   UNL     1       1.741  -1.272  -0.971  0.00  0.00    -0.258 OA
ENDROOT
BRANCH   1   3
ATOM      3  O   UNL     1       1.613  -0.431   1.520  0.00  0.00    -0.324 OA
ATOM      4  H   UNL     1       2.443  -0.886   1.732  0.00  0.00    +0.220 HD
ENDBRANCH   1   3
BRANCH   1   5
ATOM      5  O   UNL     1       2.612   1.101  -0.239  0.00  0.00    -0.324 OA
ATOM      6  H   UNL     1       3.517   0.761  -0.159  0.00  0.00    +0.220 HD
ENDBRANCH   1   5
BRANCH   1   7
ATOM      7  C   UNL     1      -0.027   0.722  -0.238  0.00  0.00    +0.116 C 
BRANCH   7   8
ATOM      8  C   UNL     1      -1.222  -0.180   0.040  0.00  0.00    +0.013 C 
BRANCH   8   9
ATOM      9  C   UNL     1      -2.552   0.539  -0.180  0.00  0.00    +0.001 C 
ATOM     10  C   UNL     1      -3.732  -0.370   0.125  0.00  0.00    +0.000 C 
ENDBRANCH   8   9
ENDBRANCH   7   8
ENDBRANCH   1   7
TORSDOF 5
