REMARK  Name = 445404
REMARK  5 active torsions:
REMARK  status: ('A' for Active; 'I' for Inactive)
REMARK    1  A    between atoms: N_2  and  C1*_17
REMARK    2  A    between atoms: C2*_18  and  O2*_21
REMARK    3  A    between atoms: C3*_19  and  O3*_23
REMARK    4  A    between atoms: C4*_20  and  C5*_25
REMARK    5  A    between atoms: C5*_25  and  O5*_26
REMARK                            x       y       z     vdW  Elec       q    Type
REMARK                         _______ _______ _______ _____ _____    ______ ____
ROOT
ATOM      1  O   UNL     1      -4.285   1.549  -0.308  0.00  0.00    -0.208 OA
ATOM      2  N   UNL     1       0.090   0.272   0.171  0.00  0.00    -0.253 N 
ATOM      3  N   UNL     1      -1.246   1.949  -0.200  0.00  0.00    -0.277 N 
ATOM      4  N   UNL     1      -1.626  -1.499   0.376  0.00  0.00    -0.263 N 
ATOM      5  N   UNL     1      -3.866  -0.669   0.101  0.00  0.00    -0.301 NA
ATOM      6  N   UNL     1      -3.423  -2.944   0.522  0.00  0.00    -0.320 N 
ATOM      7  C   UNL     1      -1.193  -0.218   0.179  0.00  0.00    +0.132 C 
ATOM      8  C   UNL     1       0.039   1.594  -0.063  0.00  0.00    +0.192 C 
ATOM      9  C   UNL     1      -2.037   0.837  -0.053  0.00  0.00    +0.173 C 
ATOM     10  C   UNL     1      -3.459   0.663  -0.106  0.00  0.00    +0.224 C 
ATOM     11  C   UNL     1      -1.704   3.297  -0.462  0.00  0.00    +0.115 C 
ATOM     12  C   UNL     1      -3.011  -1.651   0.321  0.00  0.00    +0.248 C 
ATOM     13  H   UNL     1      -1.012  -2.251   0.542  0.00  0.00    +0.157 HD
ATOM     14  H   UNL     1      -2.759  -3.653   0.684  0.00  0.00    +0.146 HD
ATOM     15  H   UNL     1      -4.382  -3.164   0.505  0.00  0.00    +0.146 HD
ENDROOT
BRANCH   2  17
ATOM     16  O4* UNL     1       2.322   0.301   1.029  0.00  0.00    -0.333 OA
ATOM     17  C1* UNL     1       1.314  -0.498   0.379  0.00  0.00    +0.224 C 
ATOM     18  C2* UNL     1       1.931  -0.976  -0.923  0.00  0.00    +0.187 C 
ATOM     19  C3* UNL     1       3.386  -1.140  -0.535  0.00  0.00    +0.171 C 
ATOM     20  C4* UNL     1       3.602   0.036   0.410  0.00  0.00    +0.175 C 
BRANCH  18  21
ATOM     21  O2* UNL     1       1.338  -2.175  -1.377  0.00  0.00    -0.378 OA
ATOM     22  H2* UNL     1       0.411  -2.009  -1.611  0.00  0.00    +0.211 HD
ENDBRANCH  18  21
BRANCH  19  23
ATOM     23  O3* UNL     1       3.549  -2.356   0.196  0.00  0.00    -0.379 OA
ATOM     24  H3* UNL     1       3.413  -3.111  -0.397  0.00  0.00    +0.211 HD
ENDBRANCH  19  23
BRANCH  20  25
ATOM     25  C5* UNL     1       4.059   1.298  -0.307  0.00  0.00    +0.169 C 
BRANCH  25  26
ATOM     26  O5* UNL     1       4.220   2.331   0.650  0.00  0.00    -0.379 OA
ATOM     27  H5* UNL     1       4.512   3.142   0.205  0.00  0.00    +0.211 HD
ENDBRANCH  25  26
ENDBRANCH  20  25
ENDBRANCH   2  17
TORSDOF 5
