REMARK  Name = 448810
REMARK  2 active torsions:
REMARK  status: ('A' for Active; 'I' for Inactive)
REMARK    1  A    between atoms: C_5  and  N_15
REMARK    2  A    between atoms: C_6  and  N_14
REMARK                            x       y       z     vdW  Elec       q    Type
REMARK                         _______ _______ _______ _____ _____    ______ ____
ROOT
ATOM      1  O   UNL     1       0.357  -2.634  -0.112  0.00  0.00    -0.207 OA
ATOM      2  N   UNL     1      -1.393   0.929   0.098  0.00  0.00    -0.262 N 
ATOM      3  N   UNL     1      -1.597  -1.425  -0.046  0.00  0.00    -0.301 NA
ATOM      4  N   UNL     1      -3.485  -0.026   0.035  0.00  0.00    -0.320 N 
ATOM      5  C   UNL     1      -0.006   0.935   0.100  0.00  0.00    +0.136 C 
ATOM      6  C   UNL     1       0.567  -0.283   0.028  0.00  0.00    +0.263 C 
ATOM      7  C   UNL     1      -2.129  -0.232   0.025  0.00  0.00    +0.249 C 
ATOM      8  C   UNL     1      -0.218  -1.551  -0.050  0.00  0.00    +0.233 C 
ATOM      9  H   UNL     1      -1.869   1.788   0.149  0.00  0.00    +0.157 HD
ATOM     10  H   UNL     1      -3.843   0.890   0.090  0.00  0.00    +0.146 HD
ATOM     11  H   UNL     1      -4.100  -0.793  -0.013  0.00  0.00    +0.146 HD
ENDROOT
BRANCH   6  14
ATOM     12  O   UNL     1       2.624   0.684   0.091  0.00  0.00    -0.125 OA
ATOM     13  O   UNL     1       2.481  -1.509  -0.043  0.00  0.00    -0.125 OA
ATOM     14  N   UNL     1       1.988  -0.376   0.025  0.00  0.00    +0.072 N 
ENDBRANCH   6  14
BRANCH   5  15
ATOM     15  N   UNL     1       0.671   2.125   0.174  0.00  0.00    -0.318 N 
ATOM     16  C   UNL     1       0.140   3.363  -0.325  0.00  0.00    +0.110 C 
ATOM     17  H   UNL     1       1.564   2.132   0.588  0.00  0.00    +0.148 HD
ENDBRANCH   5  15
TORSDOF 2
