REMARK  Name = 8333
REMARK  4 active torsions:
REMARK  status: ('A' for Active; 'I' for Inactive)
REMARK    1  A    between atoms: C_1  and  C_2
REMARK    2  A    between atoms: C_1  and  C_8
REMARK    3  A    between atoms: C_1  and  C_15
REMARK    4  A    between atoms: C_15  and  O_16
REMARK                            x       y       z     vdW  Elec       q    Type
REMARK                         _______ _______ _______ _____ _____    ______ ____
ROOT
ATOM      1  C   UNL     1       0.016   0.771  -0.579  0.00  0.00    +0.143 C 
ENDROOT
BRANCH   1   2
ATOM      2  C   UNL     1      -1.230   0.002  -0.298  0.00  0.00    -0.008 C 
ATOM      3  C   UNL     1      -1.671  -0.966  -1.201  0.00  0.00    -0.003 C 
ATOM      4  C   UNL     1      -1.956   0.250   0.867  0.00  0.00    -0.003 C 
ATOM      5  C   UNL     1      -2.837  -1.685  -0.939  0.00  0.00    -0.000 C 
ATOM      6  C   UNL     1      -3.122  -0.469   1.129  0.00  0.00    -0.000 C 
ATOM      7  C   UNL     1      -3.562  -1.437   0.226  0.00  0.00    -0.000 C 
ENDBRANCH   1   2
BRANCH   1   8
ATOM      8  C   UNL     1       1.293  -0.009  -0.236  0.00  0.00    -0.008 C 
ATOM      9  C   UNL     1       2.360   0.072  -1.099  0.00  0.00    -0.003 C 
ATOM     10  C   UNL     1       1.315  -0.754   0.917  0.00  0.00    -0.003 C 
ATOM     11  C   UNL     1       3.520  -0.637  -0.787  0.00  0.00    -0.000 C 
ATOM     12  C   UNL     1       2.476  -1.462   1.228  0.00  0.00    -0.000 C 
ATOM     13  C   UNL     1       3.578  -1.404   0.376  0.00  0.00    -0.000 C 
ENDBRANCH   1   8
BRANCH   1  15
ATOM     14  O   UNL     1       0.866   2.630   0.772  0.00  0.00    -0.250 OA
ATOM     15  C   UNL     1       0.021   2.191   0.005  0.00  0.00    +0.322 C 
BRANCH  15  16
ATOM     16  O   UNL     1      -1.069   2.906  -0.381  0.00  0.00    -0.480 OA
ATOM     17  H   UNL     1      -1.691   2.530  -0.972  0.00  0.00    +0.295 HD
ENDBRANCH  15  16
ENDBRANCH   1  15
TORSDOF 4
