REMARK  Name = 148140
REMARK  0 active torsions:
REMARK  status: ('A' for Active; 'I' for Inactive)
REMARK                            x       y       z     vdW  Elec       q    Type
REMARK                         _______ _______ _______ _____ _____    ______ ____
ROOT
ATOM      1  O   UNL     1       2.512  -1.576   0.266  0.00  0.00    -0.270 OA
ATOM      2  N   UNL     1       2.423   0.699  -0.062  0.00  0.00    -0.301 N 
ATOM      3  C   UNL     1      -0.380   0.571   0.073  0.00  0.00    -0.020 C 
ATOM      4  C   UNL     1       0.309   1.897   0.247  0.00  0.00    +0.047 C 
ATOM      5  C   UNL     1       1.661   1.870  -0.446  0.00  0.00    +0.094 C 
ATOM      6  C   UNL     1       0.373  -0.613   0.004  0.00  0.00    +0.049 C 
ATOM      7  C   UNL     1      -1.778   0.496   0.041  0.00  0.00    -0.026 C 
ATOM      8  C   UNL     1       1.856  -0.556   0.078  0.00  0.00    +0.246 C 
ATOM      9  C   UNL     1      -0.267  -1.852  -0.110  0.00  0.00    +0.004 C 
ATOM     10  C   UNL     1      -2.414  -0.740  -0.080  0.00  0.00    -0.005 C 
ATOM     11  C   UNL     1      -2.634   1.716   0.145  0.00  0.00    +0.031 C 
ATOM     12  C   UNL     1      -1.660  -1.911  -0.157  0.00  0.00    -0.000 C 
ATOM     13  H   UNL     1       3.387   0.800   0.107  0.00  0.00    +0.150 HD
ENDROOT
TORSDOF 0
