REMARK  Name = 6318
REMARK  2 active torsions:
REMARK  status: ('A' for Active; 'I' for Inactive)
REMARK    1  A    between atoms: C_2  and  C_9
REMARK    2  A    between atoms: C_9  and  O_10
REMARK                            x       y       z     vdW  Elec       q    Type
REMARK                         _______ _______ _______ _____ _____    ______ ____
ROOT
ATOM      1 CL   UNL     1       3.783   0.026   0.001  0.00  0.00    -0.082 Cl
ATOM      2  C   UNL     1      -0.728  -0.035  -0.001  0.00  0.00    +0.076 C 
ATOM      3  C   UNL     1      -0.014  -1.233  -0.001  0.00  0.00    +0.007 C 
ATOM      4  C   UNL     1      -0.047   1.183  -0.001  0.00  0.00    +0.007 C 
ATOM      5  C   UNL     1       1.381  -1.214   0.000  0.00  0.00    +0.012 C 
ATOM      6  C   UNL     1       1.348   1.202   0.000  0.00  0.00    +0.012 C 
ATOM      7  C   UNL     1       2.062   0.004   0.001  0.00  0.00    +0.058 C 
ENDROOT
BRANCH   2   9
ATOM      8  O   UNL     1      -2.883  -1.072   0.001  0.00  0.00    -0.245 OA
ATOM      9  C   UNL     1      -2.182  -0.055   0.000  0.00  0.00    +0.338 C 
BRANCH   9  10
ATOM     10  O   UNL     1      -2.720   1.195   0.001  0.00  0.00    -0.477 OA
ATOM     11  H   UNL     1      -2.160   1.946   0.000  0.00  0.00    +0.295 HD
ENDBRANCH   9  10
ENDBRANCH   2   9
TORSDOF 2
