REMARK  Name = 5289310
REMARK  3 active torsions:
REMARK  status: ('A' for Active; 'I' for Inactive)
REMARK    1  A    between atoms: C_1  and  N_10
REMARK    2  A    between atoms: N_10  and  C_13
REMARK    3  A    between atoms: C_13  and  C_14
REMARK                            x       y       z     vdW  Elec       q    Type
REMARK                         _______ _______ _______ _____ _____    ______ ____
ROOT
ATOM      1  C   UNL     1       0.465   0.429   0.571  0.00  0.00    -0.037 C 
ATOM      2  C   UNL     1       0.312   1.796  -0.128  0.00  0.00    -0.012 C 
ATOM      3  C   UNL     1      -1.180   2.152  -0.053  0.00  0.00    +0.024 C 
ATOM      4  C   UNL     1      -0.864  -0.197   0.255  0.00  0.00    -0.046 C 
ATOM      5  C   UNL     1      -1.798   0.789  -0.094  0.00  0.00    -0.028 C 
ATOM      6  C   UNL     1      -1.239  -1.530   0.334  0.00  0.00    -0.007 C 
ATOM      7  C   UNL     1      -3.114   0.464  -0.379  0.00  0.00    -0.005 C 
ATOM      8  C   UNL     1      -2.561  -1.868   0.035  0.00  0.00    -0.000 C 
ATOM      9  C   UNL     1      -3.491  -0.879  -0.319  0.00  0.00    -0.000 C 
ENDROOT
BRANCH   1  10
ATOM     10  N   UNL     1       1.618  -0.293   0.058  0.00  0.00    +0.396 N 
ATOM     11  H   UNL     1       1.546  -0.361  -0.957  0.00  0.00    -0.082 HD
ATOM     12  H   UNL     1       1.632  -1.223   0.478  0.00  0.00    -0.082 HD
BRANCH  10  13
ATOM     13  C   UNL     1       2.858   0.390   0.403  0.00  0.00    -0.001 C 
BRANCH  13  14
ATOM     14  C   UNL     1       4.019  -0.333  -0.126  0.00  0.00    -0.102 C 
ATOM     15  C   UNL     1       4.973  -0.921  -0.556  0.00  0.00    -0.016 C 
ENDBRANCH  13  14
ENDBRANCH  10  13
ENDBRANCH   1  10
TORSDOF 3
