REMARK  Name = 5288719
REMARK  5 active torsions:
REMARK  status: ('A' for Active; 'I' for Inactive)
REMARK    1  A    between atoms: CA_1  and  N_2
REMARK    2  A    between atoms: CA_1  and  C_7
REMARK    3  A    between atoms: CA_1  and  C_8
REMARK    4  A    between atoms: C_8  and  C_9
REMARK    5  A    between atoms: C_9  and  C_10
REMARK                            x       y       z     vdW  Elec       q    Type
REMARK                         _______ _______ _______ _____ _____    ______ ____
ROOT
ATOM      1  CA  UNL     1      -1.132   0.189  -0.469  0.00  0.00    +0.001 C 
ENDROOT
BRANCH   1   2
ATOM      2  N   UNL     1      -1.320   1.481   0.180  0.00  0.00    +0.387 N 
ATOM      3  H1  UNL     1      -0.493   2.060   0.031  0.00  0.00    -0.089 HD
ATOM      4  H2  UNL     1      -1.461   1.342   1.180  0.00  0.00    -0.089 HD
ATOM      5  H3  UNL     1      -2.136   1.946  -0.217  0.00  0.00    -0.089 HD
ENDBRANCH   1   2
BRANCH   1   7
ATOM      6  O   UNL     1      -3.340  -0.329   0.424  0.00  0.00    -0.291 OA
ATOM      7  C   UNL     1      -2.365  -0.662  -0.241  0.00  0.00    +0.185 C 
ENDBRANCH   1   7
BRANCH   1   8
ATOM      8  C   UNL     1       0.130  -0.532   0.023  0.00  0.00    -0.014 C 
BRANCH   8   9
ATOM      9  C   UNL     1       1.437   0.236  -0.218  0.00  0.00    -0.002 C 
BRANCH   9  10
ATOM     10  C   UNL     1       2.647  -0.575   0.251  0.00  0.00    -0.000 C 
ATOM     11  C   UNL     1       3.944   0.192   0.050  0.00  0.00    -0.000 C 
ENDBRANCH   9  10
ENDBRANCH   8   9
ENDBRANCH   1   8
TORSDOF 5
