REMARK  Name = 445724
REMARK  9 active torsions:
REMARK  status: ('A' for Active; 'I' for Inactive)
REMARK    1  A    between atoms: C_1  and  O_2
REMARK    2  A    between atoms: C_1  and  C_4
REMARK    3  A    between atoms: C_1  and  C_11
REMARK    4  A    between atoms: C_4  and  O_5
REMARK    5  A    between atoms: C_4  and  C_7
REMARK    6  A    between atoms: C_7  and  O_9
REMARK    7  A    between atoms: C_11  and  O_12
REMARK    8  A    between atoms: C_11  and  C_14
REMARK    9  A    between atoms: C_14  and  O_15
REMARK                            x       y       z     vdW  Elec       q    Type
REMARK                         _______ _______ _______ _____ _____    ______ ____
ROOT
ATOM      1  C   UNL     1       0.219  -0.449   0.152  0.00  0.00    +0.169 C 
ENDROOT
BRANCH   1   2
ATOM      2  O   UNL     1       0.302  -1.484  -0.836  0.00  0.00    -0.379 OA
ATOM      3  H   UNL     1      -0.535  -1.972  -0.864  0.00  0.00    +0.211 HD
ENDBRANCH   1   2
BRANCH   1   4
ATOM      4  C   UNL     1      -0.998   0.434  -0.175  0.00  0.00    +0.166 C 
BRANCH   4   5
ATOM      5  O   UNL     1      -1.125   1.412   0.863  0.00  0.00    -0.379 OA
ATOM      6  H   UNL     1      -0.294   1.905   0.946  0.00  0.00    +0.211 HD
ENDBRANCH   4   5
BRANCH   4   7
ATOM      7  C   UNL     1      -2.332  -0.328  -0.279  0.00  0.00    +0.140 C 
ATOM      8  C   UNL     1      -3.535   0.576  -0.511  0.00  0.00    +0.034 C 
BRANCH   7   9
ATOM      9  O   UNL     1      -2.565  -1.015   0.954  0.00  0.00    -0.382 OA
ATOM     10  H   UNL     1      -1.819  -1.605   1.141  0.00  0.00    +0.210 HD
ENDBRANCH   7   9
ENDBRANCH   4   7
ENDBRANCH   1   4
BRANCH   1  11
ATOM     11  C   UNL     1       1.566   0.299   0.163  0.00  0.00    +0.169 C 
BRANCH  11  12
ATOM     12  O   UNL     1       1.706   0.938  -1.112  0.00  0.00    -0.379 OA
ATOM     13  H   UNL     1       0.937   1.506  -1.275  0.00  0.00    +0.211 HD
ENDBRANCH  11  12
BRANCH  11  14
ATOM     14  C   UNL     1       2.790  -0.586   0.391  0.00  0.00    +0.169 C 
BRANCH  14  15
ATOM     15  O   UNL     1       3.974   0.202   0.391  0.00  0.00    -0.379 OA
ATOM     16  H   UNL     1       4.743  -0.370   0.536  0.00  0.00    +0.211 HD
ENDBRANCH  14  15
ENDBRANCH  11  14
ENDBRANCH   1  11
TORSDOF 9
