REMARK  Name = 264
REMARK  3 active torsions:
REMARK  status: ('A' for Active; 'I' for Inactive)
REMARK    1  A    between atoms: C_2  and  O_3
REMARK    2  A    between atoms: C_2  and  C_5
REMARK    3  A    between atoms: C_5  and  C_6
REMARK                            x       y       z     vdW  Elec       q    Type
REMARK                         _______ _______ _______ _____ _____    ______ ____
ROOT
ATOM      1  O   UNL     1       1.263   1.248   0.016  0.00  0.00    -0.250 OA
ATOM      2  C   UNL     1       1.086   0.036   0.001  0.00  0.00    +0.314 C 
ENDROOT
BRANCH   2   3
ATOM      3  O   UNL     1       2.101  -0.863  -0.020  0.00  0.00    -0.480 OA
ATOM      4  H   UNL     1       1.913  -1.781  -0.031  0.00  0.00    +0.295 HD
ENDBRANCH   2   3
BRANCH   2   5
ATOM      5  C   UNL     1      -0.274  -0.615   0.033  0.00  0.00    +0.109 C 
BRANCH   5   6
ATOM      6  C   UNL     1      -1.396   0.414  -0.036  0.00  0.00    +0.012 C 
ATOM      7  C   UNL     1      -2.780  -0.219   0.007  0.00  0.00    +0.001 C 
ENDBRANCH   5   6
ENDBRANCH   2   5
TORSDOF 3
