REMARK  Name = 53001
REMARK  6 active torsions:
REMARK  status: ('A' for Active; 'I' for Inactive)
REMARK    1  A    between atoms: C_1  and  O_11
REMARK    2  A    between atoms: C_4  and  C_8
REMARK    3  A    between atoms: C_8  and  O_9
REMARK    4  A    between atoms: O_11  and  C_12
REMARK    5  A    between atoms: C_12  and  C_13
REMARK    6  A    between atoms: C_13  and  N_14
REMARK                            x       y       z     vdW  Elec       q    Type
REMARK                         _______ _______ _______ _____ _____    ______ ____
ROOT
ATOM      1  C   UNL     1      -0.387  -0.740  -0.600  0.00  0.00    +0.139 C 
ATOM      2  C   UNL     1      -1.163  -1.479   0.294  0.00  0.00    +0.037 C 
ATOM      3  C   UNL     1      -0.903   0.420  -1.177  0.00  0.00    +0.037 C 
ATOM      4  C   UNL     1      -2.970   0.103   0.033  0.00  0.00    +0.076 C 
ATOM      5  C   UNL     1      -2.455  -1.057   0.610  0.00  0.00    +0.010 C 
ATOM      6  C   UNL     1      -2.194   0.842  -0.860  0.00  0.00    +0.010 C 
ENDROOT
BRANCH   4   8
ATOM      7  O   UNL     1      -5.088  -0.034   1.137  0.00  0.00    -0.245 OA
ATOM      8  C   UNL     1      -4.317   0.542   0.362  0.00  0.00    +0.338 C 
BRANCH   8   9
ATOM      9  O   UNL     1      -4.663   1.689  -0.284  0.00  0.00    -0.477 OA
ATOM     10  H   UNL     1      -4.055   2.101  -0.865  0.00  0.00    +0.295 HD
ENDBRANCH   8   9
ENDBRANCH   4   8
BRANCH   1  11
ATOM     11  O   UNL     1       0.872  -1.153  -0.909  0.00  0.00    -0.474 OA
BRANCH  11  12
ATOM     12  C   UNL     1       1.585  -1.873   0.095  0.00  0.00    +0.227 C 
BRANCH  12  13
ATOM     13  C   UNL     1       3.080  -1.628  -0.062  0.00  0.00    +0.144 C 
BRANCH  13  14
ATOM     14  N   UNL     1       3.437  -0.221   0.106  0.00  0.00    -0.264 N 
ATOM     15  N   UNL     1       4.039   1.649   1.102  0.00  0.00    -0.225 NA
ATOM     16  C   UNL     1       3.490   0.704  -0.883  0.00  0.00    +0.088 C 
ATOM     17  C   UNL     1       3.770   0.375   1.278  0.00  0.00    +0.168 C 
ATOM     18  C   UNL     1       3.866   1.861  -0.243  0.00  0.00    +0.117 C 
ENDBRANCH  13  14
ENDBRANCH  12  13
ENDBRANCH  11  12
ENDBRANCH   1  11
TORSDOF 6
