REMARK  Name = 8642
REMARK  7 active torsions:
REMARK  status: ('A' for Active; 'I' for Inactive)
REMARK    1  A    between atoms: C_2  and  O_16
REMARK    2  A    between atoms: C_3  and  C_18
REMARK    3  A    between atoms: C_5  and  N_9
REMARK    4  A    between atoms: C_18  and  O_19
REMARK    5  A    between atoms: O_19  and  P_20
REMARK    6  A    between atoms: P_20  and  O_22
REMARK    7  A    between atoms: P_20  and  O_24
REMARK                            x       y       z     vdW  Elec       q    Type
REMARK                         _______ _______ _______ _____ _____    ______ ____
ROOT
ATOM      1  O   UNL     1      -0.451   1.329   1.021  0.00  0.00    -0.335 OA
ATOM      2  C   UNL     1      -1.027   2.864  -0.692  0.00  0.00    +0.144 C 
ATOM      3  C   UNL     1      -1.583   1.853   0.301  0.00  0.00    +0.174 C 
ATOM      4  C   UNL     1       0.359   2.333  -0.980  0.00  0.00    +0.083 C 
ATOM      5  C   UNL     1       0.757   1.714   0.350  0.00  0.00    +0.202 C 
ENDROOT
BRANCH   5   9
ATOM      6  F   UNL     1       1.118  -2.995  -0.317  0.00  0.00    -0.198 F 
ATOM      7  O   UNL     1       3.607   1.753   0.392  0.00  0.00    -0.252 OA
ATOM      8  O   UNL     1       3.829  -2.812  -0.254  0.00  0.00    -0.267 OA
ATOM      9  N   UNL     1       1.602   0.566   0.198  0.00  0.00    -0.216 N 
ATOM     10  N   UNL     1       3.717  -0.519   0.071  0.00  0.00    -0.234 N 
ATOM     11  C   UNL     1       3.013   0.684   0.233  0.00  0.00    +0.316 C 
ATOM     12  C   UNL     1       1.007  -0.675   0.013  0.00  0.00    +0.105 C 
ATOM     13  C   UNL     1       1.705  -1.798  -0.138  0.00  0.00    +0.208 C 
ATOM     14  C   UNL     1       3.176  -1.784  -0.116  0.00  0.00    +0.282 C 
ATOM     15  H   UNL     1       4.700  -0.460   0.093  0.00  0.00    +0.159 HD
ENDBRANCH   5   9
BRANCH   2  16
ATOM     16  O   UNL     1      -0.931   4.146  -0.076  0.00  0.00    -0.382 OA
ATOM     17  H   UNL     1      -1.822   4.484   0.108  0.00  0.00    +0.210 HD
ENDBRANCH   2  16
BRANCH   3  18
ATOM     18  C   UNL     1      -2.289   0.684  -0.375  0.00  0.00    +0.186 C 
BRANCH  18  19
ATOM     19  O   UNL     1      -2.761  -0.205   0.623  0.00  0.00    -0.271 OA
BRANCH  19  20
ATOM     20  P   UNL     1      -3.553  -1.538   0.156  0.00  0.00    +0.473 P 
ATOM     21  O   UNL     1      -4.018  -2.424   1.274  0.00  0.00    -0.227 OA
BRANCH  20  22
ATOM     22  O   UNL     1      -2.546  -2.231  -0.902  0.00  0.00    -0.303 OA
ATOM     23  H   UNL     1      -2.301  -1.587  -1.585  0.00  0.00    +0.222 HD
ENDBRANCH  20  22
BRANCH  20  24
ATOM     24  O   UNL     1      -4.730  -0.947  -0.782  0.00  0.00    -0.303 OA
ATOM     25  H   UNL     1      -4.342  -0.389  -1.475  0.00  0.00    +0.222 HD
ENDBRANCH  20  24
ENDBRANCH  19  20
ENDBRANCH  18  19
ENDBRANCH   3  18
TORSDOF 7
