REMARK  Name = 441476
REMARK  6 active torsions:
REMARK  status: ('A' for Active; 'I' for Inactive)
REMARK    1  A    between atoms: C_2  and  O_7
REMARK    2  A    between atoms: C_3  and  O_9
REMARK    3  A    between atoms: C_4  and  O_11
REMARK    4  A    between atoms: C_5  and  C_16
REMARK    5  A    between atoms: C_6  and  O_13
REMARK    6  A    between atoms: C_16  and  O_17
REMARK                            x       y       z     vdW  Elec       q    Type
REMARK                         _______ _______ _______ _____ _____    ______ ____
ROOT
ATOM      1  O   UNL     1       0.323  -1.245   0.057  0.00  0.00    -0.317 OA
ATOM      2  C   UNL     1      -1.144   1.182  -0.400  0.00  0.00    +0.172 C 
ATOM      3  C   UNL     1       0.347   1.177  -0.060  0.00  0.00    +0.178 C 
ATOM      4  C   UNL     1      -1.827  -0.085   0.126  0.00  0.00    +0.196 C 
ATOM      5  C   UNL     1       0.967  -0.129  -0.549  0.00  0.00    +0.245 C 
ATOM      6  C   UNL     1      -1.056  -1.340  -0.299  0.00  0.00    +0.263 C 
ENDROOT
BRANCH   2   7
ATOM      7  O   UNL     1      -1.743   2.342   0.169  0.00  0.00    -0.379 OA
ATOM      8  H   UNL     1      -1.301   3.135  -0.172  0.00  0.00    +0.211 HD
ENDBRANCH   2   7
BRANCH   3   9
ATOM      9  O   UNL     1       0.509   1.263   1.359  0.00  0.00    -0.379 OA
ATOM     10  H   UNL     1       0.118   2.090   1.679  0.00  0.00    +0.211 HD
ENDBRANCH   3   9
BRANCH   4  11
ATOM     11  O   UNL     1      -3.147  -0.170  -0.411  0.00  0.00    -0.378 OA
ATOM     12  H   UNL     1      -3.652   0.617  -0.153  0.00  0.00    +0.211 HD
ENDBRANCH   4  11
BRANCH   6  13
ATOM     13  O   UNL     1      -1.648  -2.460   0.358  0.00  0.00    -0.358 OA
ATOM     14  H   UNL     1      -1.177  -3.270   0.105  0.00  0.00    +0.213 HD
ENDBRANCH   6  13
BRANCH   5  16
ATOM     15  O   UNL     1       2.885  -1.078   0.566  0.00  0.00    -0.247 OA
ATOM     16  C   UNL     1       2.409  -0.225  -0.168  0.00  0.00    +0.344 C 
BRANCH  16  17
ATOM     17  O   UNL     1       3.125   0.769  -0.748  0.00  0.00    -0.478 OA
ATOM     18  H   UNL     1       2.697   1.392  -1.302  0.00  0.00    +0.295 HD
ENDBRANCH  16  17
ENDBRANCH   5  16
TORSDOF 6
