REMARK  Name = 448768
REMARK  4 active torsions:
REMARK  status: ('A' for Active; 'I' for Inactive)
REMARK    1  A    between atoms: C_4  and  S_13
REMARK    2  A    between atoms: C_5  and  C_12
REMARK    3  A    between atoms: S_13  and  C_14
REMARK    4  A    between atoms: C_14  and  C_22
REMARK                            x       y       z     vdW  Elec       q    Type
REMARK                         _______ _______ _______ _____ _____    ______ ____
ROOT
ATOM      1  O   UNL     1      -3.940   2.946  -0.031  0.00  0.00    -0.209 OA
ATOM      2  N   UNL     1      -1.629  -0.276  -0.356  0.00  0.00    -0.279 N 
ATOM      3  N   UNL     1      -1.850   2.079  -0.469  0.00  0.00    -0.311 NA
ATOM      4  C   UNL     1      -1.147   0.989  -0.560  0.00  0.00    +0.224 C 
ATOM      5  C   UNL     1      -2.950  -0.461  -0.029  0.00  0.00    +0.135 C 
ATOM      6  C   UNL     1      -3.759   0.605   0.089  0.00  0.00    +0.125 C 
ATOM      7  C   UNL     1      -3.195   1.976  -0.141  0.00  0.00    +0.208 C 
ATOM      8  H   UNL     1      -1.030  -1.052  -0.445  0.00  0.00    +0.155 HD
ENDROOT
BRANCH   5  12
ATOM      9  F   UNL     1      -4.739  -1.887   0.496  0.00  0.00    -0.165 F 
ATOM     10  F   UNL     1      -3.255  -2.607  -0.930  0.00  0.00    -0.165 F 
ATOM     11  F   UNL     1      -2.752  -2.462   1.186  0.00  0.00    -0.165 F 
ATOM     12  C   UNL     1      -3.427  -1.864   0.182  0.00  0.00    +0.432 C 
ENDBRANCH   5  12
BRANCH   4  13
ATOM     13  S   UNL     1       0.539   1.127  -0.972  0.00  0.00    -0.056 S 
BRANCH  13  14
ATOM     14  C   UNL     1       1.238   1.272   0.678  0.00  0.00    +0.151 C 
BRANCH  14  22
ATOM     15  O   UNL     1       3.230   2.528   0.415  0.00  0.00    -0.274 OA
ATOM     16  N   UNL     1       3.469   0.220   0.539  0.00  0.00    -0.279 N 
ATOM     17  C   UNL     1       4.860  -2.052  -0.587  0.00  0.00    +0.004 C 
ATOM     18  C   UNL     1       5.394  -0.629  -0.745  0.00  0.00    +0.022 C 
ATOM     19  C   UNL     1       3.341  -2.049  -0.417  0.00  0.00    +0.022 C 
ATOM     20  C   UNL     1       4.926   0.266   0.399  0.00  0.00    +0.093 C 
ATOM     21  C   UNL     1       2.912  -1.126   0.721  0.00  0.00    +0.093 C 
ATOM     22  C   UNL     1       2.733   1.405   0.533  0.00  0.00    +0.237 C 
ENDBRANCH  14  22
ENDBRANCH  13  14
ENDBRANCH   4  13
TORSDOF 4
