REMARK  Name = 4634231
REMARK  3 active torsions:
REMARK  status: ('A' for Active; 'I' for Inactive)
REMARK    1  A    between atoms: C_9  and  N_19
REMARK    2  A    between atoms: C_10  and  O_20
REMARK    3  A    between atoms: C_11  and  O_22
REMARK                            x       y       z     vdW  Elec       q    Type
REMARK                         _______ _______ _______ _____ _____    ______ ____
ROOT
ATOM      1  O   UNL     1       0.654  -2.422  -0.001  0.00  0.00    -0.287 OA
ATOM      2  O   UNL     1      -1.534   2.453   0.001  0.00  0.00    -0.286 OA
ATOM      3  C   UNL     1       1.029  -0.079  -0.001  0.00  0.00    +0.067 C 
ATOM      4  C   UNL     1       0.446   1.190  -0.001  0.00  0.00    +0.077 C 
ATOM      5  C   UNL     1      -1.868   0.128   0.000  0.00  0.00    +0.076 C 
ATOM      6  C   UNL     1      -1.286  -1.141  -0.001  0.00  0.00    +0.045 C 
ATOM      7  C   UNL     1       0.184  -1.291  -0.001  0.00  0.00    +0.198 C 
ATOM      8  C   UNL     1      -1.023   1.340  -0.001  0.00  0.00    +0.202 C 
ATOM      9  C   UNL     1       2.423  -0.208   0.000  0.00  0.00    +0.146 C 
ATOM     10  C   UNL     1       1.258   2.331   0.000  0.00  0.00    +0.137 C 
ATOM     11  C   UNL     1      -3.262   0.257   0.001  0.00  0.00    +0.137 C 
ATOM     12  C   UNL     1      -2.097  -2.282  -0.001  0.00  0.00    +0.003 C 
ATOM     13  C   UNL     1       3.228   0.931   0.001  0.00  0.00    +0.027 C 
ATOM     14  C   UNL     1       2.647   2.198   0.001  0.00  0.00    +0.038 C 
ATOM     15  C   UNL     1      -4.067  -0.882   0.001  0.00  0.00    +0.037 C 
ATOM     16  C   UNL     1      -3.486  -2.149   0.000  0.00  0.00    +0.003 C 
ENDROOT
BRANCH   9  19
ATOM     17  O   UNL     1       3.393  -1.988   1.099  0.00  0.00    -0.126 OA
ATOM     18  O   UNL     1       3.394  -1.989  -1.097  0.00  0.00    -0.126 OA
ATOM     19  N   UNL     1       3.105  -1.459   0.001  0.00  0.00    +0.058 N 
ENDBRANCH   9  19
BRANCH  10  20
ATOM     20  O   UNL     1       0.758   3.599  -0.001  0.00  0.00    -0.505 OA
ATOM     21  H   UNL     1      -0.169   3.737  -0.001  0.00  0.00    +0.292 HD
ENDBRANCH  10  20
BRANCH  11  22
ATOM     22  O   UNL     1      -3.897   1.464   0.001  0.00  0.00    -0.505 OA
ATOM     23  H   UNL     1      -3.397   2.256   0.001  0.00  0.00    +0.292 HD
ENDBRANCH  11  22
TORSDOF 3
