REMARK  Name = 445883
REMARK  6 active torsions:
REMARK  status: ('A' for Active; 'I' for Inactive)
REMARK    1  A    between atoms: C_1  and  C_4
REMARK    2  A    between atoms: C_1  and  N_7
REMARK    3  A    between atoms: C_1  and  C_11
REMARK    4  A    between atoms: C_11  and  C_12
REMARK    5  A    between atoms: C_12  and  C_14
REMARK    6  A    between atoms: C_14  and  O_15
REMARK                            x       y       z     vdW  Elec       q    Type
REMARK                         _______ _______ _______ _____ _____    ______ ____
ROOT
ATOM      1  C   UNL     1      -1.308  -0.617   0.543  0.00  0.00    +0.013 C 
ENDROOT
BRANCH   1   4
ATOM      2  O   UNL     1      -2.033   0.574  -1.419  0.00  0.00    -0.278 OA
ATOM      3  N   UNL     1      -2.409   1.568   0.614  0.00  0.00    -0.330 N 
ATOM      4  C   UNL     1      -1.945   0.553  -0.192  0.00  0.00    +0.199 C 
ATOM      5  H   UNL     1      -2.835   2.360   0.212  0.00  0.00    +0.145 HD
ATOM      6  H   UNL     1      -2.316   1.502   1.591  0.00  0.00    +0.145 HD
ENDBRANCH   1   4
BRANCH   1   7
ATOM      7  N   UNL     1      -2.135  -1.794   0.276  0.00  0.00    +0.387 N 
ATOM      8  H   UNL     1      -1.739  -2.603   0.754  0.00  0.00    -0.089 HD
ATOM      9  H   UNL     1      -2.161  -1.970  -0.728  0.00  0.00    -0.089 HD
ATOM     10  H   UNL     1      -3.083  -1.628   0.616  0.00  0.00    -0.089 HD
ENDBRANCH   1   7
BRANCH   1  11
ATOM     11  C   UNL     1       0.147  -0.879   0.135  0.00  0.00    -0.001 C 
BRANCH  11  12
ATOM     12  C   UNL     1       1.048   0.332   0.393  0.00  0.00    +0.108 C 
BRANCH  12  14
ATOM     13  O   UNL     1       2.889  -0.957  -0.544  0.00  0.00    -0.250 OA
ATOM     14  C   UNL     1       2.476   0.074  -0.031  0.00  0.00    +0.314 C 
BRANCH  14  15
ATOM     15  O   UNL     1       3.271   1.146   0.226  0.00  0.00    -0.480 OA
ATOM     16  H   UNL     1       2.908   1.914   0.620  0.00  0.00    +0.295 HD
ENDBRANCH  14  15
ENDBRANCH  12  14
ENDBRANCH  11  12
ENDBRANCH   1  11
TORSDOF 6
