REMARK  Name = 447998
REMARK  5 active torsions:
REMARK  status: ('A' for Active; 'I' for Inactive)
REMARK    1  A    between atoms: C_3  and  C_18
REMARK    2  A    between atoms: C_4  and  C_20
REMARK    3  A    between atoms: C_7  and  C_24
REMARK    4  A    between atoms: C_20  and  O_21
REMARK    5  A    between atoms: C_24  and  O_25
REMARK                            x       y       z     vdW  Elec       q    Type
REMARK                         _______ _______ _______ _____ _____    ______ ____
ROOT
ATOM      1  S   UNK     1       1.876   0.267   1.997  0.00  0.00    -0.123 S 
ATOM      2  N   UNK     1       3.115   0.305  -1.100  0.00  0.00    -0.241 NA
ATOM      3  C   UNK     1       0.988  -0.940   0.938  0.00  0.00    +0.128 C 
ATOM      4  C   UNK     1       1.717  -1.517  -0.254  0.00  0.00    +0.088 C 
ATOM      5  C   UNK     1       3.564   0.166   1.356  0.00  0.00    +0.111 C 
ATOM      6  C   UNK     1       2.625  -0.973  -1.084  0.00  0.00    +0.102 C 
ATOM      7  C   UNK     1       3.560   0.813   0.003  0.00  0.00    +0.145 C 
ENDROOT
BRANCH   3  18
ATOM      8  S   UNK     1      -2.840   1.949  -1.232  0.00  0.00    -0.043 S 
ATOM      9  N   UNK     1      -2.503  -0.050   0.381  0.00  0.00    -0.254 N 
ATOM     10  N   UNK     1      -0.496   0.665  -0.300  0.00  0.00    -0.386 NA
ATOM     11  C   UNK     1      -3.853   0.126   0.304  0.00  0.00    +0.034 C 
ATOM     12  C   UNK     1      -5.000  -0.554   0.922  0.00  0.00    +0.042 C 
ATOM     13  C   UNK     1      -6.170   0.076   0.128  0.00  0.00    +0.011 C 
ATOM     14  C   UNK     1      -5.642   1.343  -0.590  0.00  0.00    +0.034 C 
ATOM     15  C   UNK     1      -4.186   1.135  -0.503  0.00  0.00    +0.020 C 
ATOM     16  C   UNK     1      -1.787   0.836  -0.377  0.00  0.00    +0.217 C 
ATOM     17  C   UNK     1      -1.613  -0.866   1.004  0.00  0.00    +0.154 C 
ATOM     18  C   UNK     1      -0.379  -0.406   0.570  0.00  0.00    +0.123 C 
ENDBRANCH   3  18
BRANCH   4  20
ATOM     19  O   UNK     1       0.512  -3.264  -1.326  0.00  0.00    -0.245 OA
ATOM     20  C   UNK     1       1.397  -2.924  -0.573  0.00  0.00    +0.337 C 
BRANCH  20  21
ATOM     21  O   UNK     1       2.236  -3.729   0.103  0.00  0.00    -0.477 OA
ATOM     22  H   UNK     1       2.890  -3.360   0.664  0.00  0.00    +0.295 HD
ENDBRANCH  20  21
ENDBRANCH   4  20
BRANCH   7  24
ATOM     23  O   UNK     1       3.396   3.184   0.050  0.00  0.00    -0.244 OA
ATOM     24  C   UNK     1       4.084   2.206  -0.085  0.00  0.00    +0.353 C 
BRANCH  24  25
ATOM     25  O   UNK     1       5.401   2.151  -0.330  0.00  0.00    -0.476 OA
ATOM     26  H   UNK     1       5.827   1.321  -0.415  0.00  0.00    +0.295 HD
ENDBRANCH  24  25
ENDBRANCH   7  24
TORSDOF 5
