REMARK  Name = 1014
REMARK  6 active torsions:
REMARK  status: ('A' for Active; 'I' for Inactive)
REMARK    1  A    between atoms: O_1  and  P_2
REMARK    2  A    between atoms: O_1  and  C_8
REMARK    3  A    between atoms: P_2  and  O_4
REMARK    4  A    between atoms: P_2  and  O_6
REMARK    5  A    between atoms: C_8  and  C_9
REMARK    6  A    between atoms: C_9  and  N_10
REMARK                            x       y       z     vdW  Elec       q    Type
REMARK                         _______ _______ _______ _____ _____    ______ ____
ROOT
ATOM      1  O   UNL     1       1.150  -0.789   0.116  0.00  0.00    -0.276 OA
ENDROOT
BRANCH   1   2
ATOM      2  P   UNL     1       2.590  -0.061   0.010  0.00  0.00    +0.473 P 
ATOM      3  O   UNL     1       3.775  -0.976   0.122  0.00  0.00    -0.228 OA
BRANCH   2   4
ATOM      4  O   UNL     1       2.513   1.110   1.123  0.00  0.00    -0.303 OA
ATOM      5  H   UNL     1       1.719   1.647   0.972  0.00  0.00    +0.222 HD
ENDBRANCH   2   4
BRANCH   2   6
ATOM      6  O   UNL     1       2.480   0.746  -1.387  0.00  0.00    -0.303 OA
ATOM      7  H   UNL     1       1.691   1.310  -1.374  0.00  0.00    +0.222 HD
ENDBRANCH   2   6
ENDBRANCH   1   2
BRANCH   1   8
ATOM      8  C   UNL     1      -0.020   0.012   0.019  0.00  0.00    +0.132 C 
BRANCH   8   9
ATOM      9  C   UNL     1      -1.249  -0.867   0.143  0.00  0.00    -0.040 C 
BRANCH   9  10
ATOM     10  N   UNL     1      -2.497  -0.009   0.000  0.00  0.00    +0.387 N 
ATOM     11  C   UNL     1      -2.477   0.695  -1.350  0.00  0.00    -0.096 C 
ATOM     12  C   UNL     1      -3.733  -0.892   0.093  0.00  0.00    -0.096 C 
ATOM     13  C   UNL     1      -2.530   1.030   1.112  0.00  0.00    -0.096 C 
ENDBRANCH   9  10
ENDBRANCH   8   9
ENDBRANCH   1   8
TORSDOF 6
