REMARK  Name = 444746
REMARK  6 active torsions:
REMARK  status: ('A' for Active; 'I' for Inactive)
REMARK    1  A    between atoms: C_1  and  C_9
REMARK    2  A    between atoms: C_1  and  N_13
REMARK    3  A    between atoms: C_1  and  C_27
REMARK    4  A    between atoms: C_4  and  O_10
REMARK    5  A    between atoms: C_14  and  C_18
REMARK    6  A    between atoms: C_27  and  C_29
REMARK                            x       y       z     vdW  Elec       q    Type
REMARK                         _______ _______ _______ _____ _____    ______ ____
ROOT
ATOM      1  C   UNL     1      -1.314  -0.121  -0.284  0.00  0.00    +0.153 C 
ENDROOT
BRANCH   1   9
ATOM      2  O   UNL     1      -1.034  -2.148  -1.479  0.00  0.00    -0.273 OA
ATOM      3  N   UNL     1      -2.821  -2.058   0.002  0.00  0.00    -0.278 N 
ATOM      4  C   UNL     1      -5.595  -2.801   0.348  0.00  0.00    +0.114 C 
ATOM      5  C   UNL     1      -4.700  -3.499  -0.678  0.00  0.00    +0.051 C 
ATOM      6  C   UNL     1      -5.111  -1.374   0.605  0.00  0.00    +0.051 C 
ATOM      7  C   UNL     1      -3.234  -3.439  -0.261  0.00  0.00    +0.096 C 
ATOM      8  C   UNL     1      -3.637  -1.350   0.998  0.00  0.00    +0.096 C 
ATOM      9  C   UNL     1      -1.703  -1.533  -0.645  0.00  0.00    +0.244 C 
BRANCH   4  10
ATOM     10  O   UNL     1      -6.932  -2.752  -0.133  0.00  0.00    -0.384 OA
ATOM     11  H   UNL     1      -7.249  -3.654  -0.300  0.00  0.00    +0.210 HD
ENDBRANCH   4  10
ENDBRANCH   1   9
BRANCH   1  13
ATOM     12  O   UNL     1       0.416  -0.940   1.786  0.00  0.00    -0.269 OA
ATOM     13  N   UNL     1       0.118  -0.141  -0.348  0.00  0.00    -0.294 N 
ATOM     14  C   UNL     1       0.913  -0.562   0.724  0.00  0.00    +0.260 C 
ATOM     15  H   UNL     1       0.560   0.153  -1.177  0.00  0.00    +0.150 HD
BRANCH  14  18
ATOM     16 CL   UNL     1       8.249  -0.158  -1.468  0.00  0.00    -0.082 Cl
ATOM     17  N   UNL     1       3.243  -0.935   1.442  0.00  0.00    -0.309 N 
ATOM     18  C   UNL     1       2.364  -0.556   0.495  0.00  0.00    +0.102 C 
ATOM     19  C   UNL     1       3.007  -0.189  -0.635  0.00  0.00    +0.020 C 
ATOM     20  C   UNL     1       4.397  -0.351  -0.376  0.00  0.00    +0.016 C 
ATOM     21  C   UNL     1       4.518  -0.820   0.934  0.00  0.00    +0.048 C 
ATOM     22  C   UNL     1       5.568  -0.143  -1.132  0.00  0.00    +0.013 C 
ATOM     23  C   UNL     1       5.755  -1.093   1.528  0.00  0.00    +0.015 C 
ATOM     24  C   UNL     1       6.813  -0.410  -0.551  0.00  0.00    +0.058 C 
ATOM     25  C   UNL     1       6.902  -0.878   0.758  0.00  0.00    +0.013 C 
ATOM     26  H   UNL     1       3.013  -1.244   2.348  0.00  0.00    +0.152 HD
ENDBRANCH  14  18
ENDBRANCH   1  13
BRANCH   1  27
ATOM     27  C   UNL     1      -1.947   0.864  -1.258  0.00  0.00    +0.055 C 
BRANCH  27  29
ATOM     28  F   UNL     1      -2.096   6.089   0.809  0.00  0.00    -0.204 F 
ATOM     29  C   UNL     1      -1.987   2.266  -0.703  0.00  0.00    -0.020 C 
ATOM     30  C   UNL     1      -3.090   2.677   0.028  0.00  0.00    -0.002 C 
ATOM     31  C   UNL     1      -0.919   3.120  -0.935  0.00  0.00    -0.002 C 
ATOM     32  C   UNL     1      -3.128   3.974   0.540  0.00  0.00    +0.029 C 
ATOM     33  C   UNL     1      -0.956   4.417  -0.422  0.00  0.00    +0.029 C 
ATOM     34  C   UNL     1      -2.061   4.844   0.315  0.00  0.00    +0.140 C 
ENDBRANCH  27  29
ENDBRANCH   1  27
TORSDOF 6
