REMARK  Name = 447827
REMARK  7 active torsions:
REMARK  status: ('A' for Active; 'I' for Inactive)
REMARK    1  A    between atoms: C_1  and  N_2
REMARK    2  A    between atoms: C_1  and  C_7
REMARK    3  A    between atoms: C_1  and  C_10
REMARK    4  A    between atoms: C_7  and  O_8
REMARK    5  A    between atoms: C_10  and  C_11
REMARK    6  A    between atoms: C_11  and  S_12
REMARK    7  A    between atoms: S_12  and  C_15
REMARK                            x       y       z     vdW  Elec       q    Type
REMARK                         _______ _______ _______ _____ _____    ______ ____
ROOT
ATOM      1  C   UNK     1      -1.747  -0.627   0.420  0.00  0.00    +0.037 C 
ENDROOT
BRANCH   1   2
ATOM      2  N   UNK     1      -3.050  -1.296   0.360  0.00  0.00    +0.389 N 
ATOM      3  H   UNK     1      -2.947  -2.268   0.652  0.00  0.00    -0.088 HD
ATOM      4  H   UNK     1      -3.404  -1.265  -0.596  0.00  0.00    -0.088 HD
ATOM      5  H   UNK     1      -3.705  -0.822   0.981  0.00  0.00    -0.088 HD
ENDBRANCH   1   2
BRANCH   1   7
ATOM      6  O   UNK     1      -2.791   1.157  -0.870  0.00  0.00    -0.253 OA
ATOM      7  C   UNK     1      -1.976   0.806  -0.026  0.00  0.00    +0.293 C 
BRANCH   7   8
ATOM      8  O   UNK     1      -1.187   1.687   0.641  0.00  0.00    -0.482 OA
ATOM      9  H   UNK     1      -0.576   1.378   1.281  0.00  0.00    +0.295 HD
ENDBRANCH   7   8
ENDBRANCH   1   7
BRANCH   1  10
ATOM     10  C   UNK     1      -0.765  -1.347  -0.515  0.00  0.00    +0.001 C 
BRANCH  10  11
ATOM     11  C   UNK     1       0.625  -0.714  -0.628  0.00  0.00    +0.061 C 
BRANCH  11  12
ATOM     12  S   UNK     1       1.490  -0.598   0.966  0.00  0.00    -0.071 S 
BRANCH  12  15
ATOM     13  F   UNK     1       3.629  -0.605  -0.535  0.00  0.00    -0.186 F 
ATOM     14  F   UNK     1       2.758   1.365  -0.204  0.00  0.00    -0.186 F 
ATOM     15  C   UNK     1       3.013   0.172   0.391  0.00  0.00    +0.367 C 
ENDBRANCH  12  15
ENDBRANCH  11  12
ENDBRANCH  10  11
ENDBRANCH   1  10
TORSDOF 7
