REMARK  Name = 5289266
REMARK  4 active torsions:
REMARK  status: ('A' for Active; 'I' for Inactive)
REMARK    1  A    between atoms: N_1  and  C_4
REMARK    2  A    between atoms: N_1  and  C_11
REMARK    3  A    between atoms: C_11  and  C_12
REMARK    4  A    between atoms: C_12  and  C_13
REMARK                            x       y       z     vdW  Elec       q    Type
REMARK                         _______ _______ _______ _____ _____    ______ ____
ROOT
ATOM      1  N   UNL     1       0.065   1.278   0.691  0.00  0.00    +0.387 N 
ATOM      2  C   UNL     1      -0.264   2.530  -0.078  0.00  0.00    -0.101 C 
ATOM      3  H   UNL     1       0.423   1.571   1.600  0.00  0.00    -0.080 HD
ENDROOT
BRANCH   1   4
ATOM      4  C   UNL     1       1.153   0.493   0.050  0.00  0.00    -0.053 C 
ATOM      5  C   UNL     1       2.370   1.391  -0.144  0.00  0.00    -0.016 C 
ATOM      6  C   UNL     1       1.483  -0.712   0.933  0.00  0.00    +0.005 C 
ATOM      7  C   UNL     1       3.518   0.612  -0.793  0.00  0.00    +0.020 C 
ATOM      8  C   UNL     1       3.712  -0.771  -0.220  0.00  0.00    -0.048 C 
ATOM      9  C   UNL     1       2.792  -1.351   0.570  0.00  0.00    -0.037 C 
ATOM     10  C   UNL     1       4.993  -1.462  -0.586  0.00  0.00    +0.026 C 
ENDBRANCH   1   4
BRANCH   1  11
ATOM     11  C   UNL     1      -1.163   0.447   0.948  0.00  0.00    -0.073 C 
BRANCH  11  12
ATOM     12  C   UNL     1      -1.665  -0.168  -0.353  0.00  0.00    +0.003 C 
BRANCH  12  13
ATOM     13  C   UNL     1      -2.901  -1.002  -0.162  0.00  0.00    -0.037 C 
ATOM     14  C   UNL     1      -4.186  -0.608  -0.243  0.00  0.00    -0.048 C 
ATOM     15  C   UNL     1      -5.380  -1.498  -0.040  0.00  0.00    +0.026 C 
ATOM     16  C   UNL     1      -4.526   0.821  -0.573  0.00  0.00    +0.026 C 
ENDBRANCH  12  13
ENDBRANCH  11  12
ENDBRANCH   1  11
TORSDOF 4
