REMARK  Name = 10394
REMARK  5 active torsions:
REMARK  status: ('A' for Active; 'I' for Inactive)
REMARK    1  A    between atoms: C_1  and  C_9
REMARK    2  A    between atoms: C_6  and  O_7
REMARK    3  A    between atoms: C_9  and  C_10
REMARK    4  A    between atoms: C_10  and  C_12
REMARK    5  A    between atoms: C_12  and  O_13
REMARK                            x       y       z     vdW  Elec       q    Type
REMARK                         _______ _______ _______ _____ _____    ______ ____
ROOT
ATOM      1  C   UNL     1       0.355  -0.008  -0.403  0.00  0.00    -0.021 C 
ATOM      2  C   UNL     1       1.043   1.202  -0.301  0.00  0.00    -0.001 C 
ATOM      3  C   UNL     1       1.032  -1.212  -0.211  0.00  0.00    -0.001 C 
ATOM      4  C   UNL     1       2.406   1.206  -0.007  0.00  0.00    +0.036 C 
ATOM      5  C   UNL     1       2.395  -1.208   0.083  0.00  0.00    +0.036 C 
ATOM      6  C   UNL     1       3.083   0.002   0.185  0.00  0.00    +0.134 C 
ENDROOT
BRANCH   6   7
ATOM      7  O   UNL     1       4.413   0.007   0.473  0.00  0.00    -0.506 OA
ATOM      8  H   UNL     1       4.874   0.820   0.541  0.00  0.00    +0.292 HD
ENDBRANCH   6   7
BRANCH   1   9
ATOM      9  C   UNL     1      -1.102  -0.013  -0.718  0.00  0.00    +0.038 C 
BRANCH   9  10
ATOM     10  C   UNL     1      -2.002   0.037   0.522  0.00  0.00    +0.114 C 
BRANCH  10  12
ATOM     11  O   UNL     1      -3.874  -0.085  -1.000  0.00  0.00    -0.250 OA
ATOM     12  C   UNL     1      -3.465  -0.007   0.151  0.00  0.00    +0.314 C 
BRANCH  12  13
ATOM     13  O   UNL     1      -4.285   0.079   1.228  0.00  0.00    -0.480 OA
ATOM     14  H   UNL     1      -3.922   0.136   2.090  0.00  0.00    +0.295 HD
ENDBRANCH  12  13
ENDBRANCH  10  12
ENDBRANCH   9  10
ENDBRANCH   1   9
TORSDOF 5
