REMARK  Name = 70
REMARK  4 active torsions:
REMARK  status: ('A' for Active; 'I' for Inactive)
REMARK    1  A    between atoms: C_2  and  C_4
REMARK    2  A    between atoms: C_2  and  C_7
REMARK    3  A    between atoms: C_4  and  O_5
REMARK    4  A    between atoms: C_7  and  C_8
REMARK                            x       y       z     vdW  Elec       q    Type
REMARK                         _______ _______ _______ _____ _____    ______ ____
ROOT
ATOM      1  O   UNL     1      -0.628  -1.520  -0.533  0.00  0.00    -0.284 OA
ATOM      2  C   UNL     1      -0.570  -0.316  -0.331  0.00  0.00    +0.248 C 
ENDROOT
BRANCH   2   4
ATOM      3  O   UNL     1      -1.875   1.555   0.351  0.00  0.00    -0.242 OA
ATOM      4  C   UNL     1      -1.841   0.371   0.083  0.00  0.00    +0.373 C 
BRANCH   4   5
ATOM      5  O   UNL     1      -2.840  -0.518   0.153  0.00  0.00    -0.475 OA
ATOM      6  H   UNL     1      -2.689  -1.412  -0.083  0.00  0.00    +0.295 HD
ENDBRANCH   4   5
ENDBRANCH   2   4
BRANCH   2   7
ATOM      7  C   UNL     1       0.657   0.556  -0.480  0.00  0.00    +0.076 C 
BRANCH   7   8
ATOM      8  C   UNL     1       1.963  -0.183  -0.151  0.00  0.00    +0.008 C 
ATOM      9  C   UNL     1       1.973  -0.685   1.295  0.00  0.00    +0.000 C 
ATOM     10  C   UNL     1       3.160   0.740  -0.386  0.00  0.00    +0.000 C 
ENDBRANCH   7   8
ENDBRANCH   2   7
TORSDOF 4
