REMARK  Name = 5287671
REMARK  5 active torsions:
REMARK  status: ('A' for Active; 'I' for Inactive)
REMARK    1  A    between atoms: CA_1  and  N_2
REMARK    2  A    between atoms: CA_1  and  C_7
REMARK    3  A    between atoms: CA_1  and  C_10
REMARK    4  A    between atoms: C_7  and  O_8
REMARK    5  A    between atoms: C_11  and  O_12
REMARK                            x       y       z     vdW  Elec       q    Type
REMARK                         _______ _______ _______ _____ _____    ______ ____
ROOT
ATOM      1  CA  UNL     1      -0.611  -0.505   0.342  0.00  0.00    +0.062 C 
ENDROOT
BRANCH   1   2
ATOM      2  N   UNL     1      -1.158  -1.835   0.607  0.00  0.00    +0.391 N 
ATOM      3  H1  UNL     1      -0.396  -2.484   0.803  0.00  0.00    -0.088 HD
ATOM      4  H2  UNL     1      -1.678  -2.158  -0.209  0.00  0.00    -0.088 HD
ATOM      5  H3  UNL     1      -1.783  -1.792   1.412  0.00  0.00    -0.088 HD
ENDBRANCH   1   2
BRANCH   1   7
ATOM      6  OXT UNL     1      -2.811   0.105  -0.514  0.00  0.00    -0.252 OA
ATOM      7  C   UNL     1      -1.775   0.427   0.056  0.00  0.00    +0.297 C 
BRANCH   7   8
ATOM      8  O   UNL     1      -1.531   1.698   0.471  0.00  0.00    -0.481 OA
ATOM      9  H   UNL     1      -0.725   1.903   0.903  0.00  0.00    +0.295 HD
ENDBRANCH   7   8
ENDBRANCH   1   7
BRANCH   1  10
ATOM     10  C   UNL     1       0.342  -0.412  -0.819  0.00  0.00    +0.002 C 
ATOM     11  C   UNL     1       1.617  -0.004  -0.777  0.00  0.00    +0.166 C 
BRANCH  11  12
ATOM     12  O   UNL     1       2.269   0.403   0.356  0.00  0.00    -0.469 OA
ATOM     13  C   UNL     1       3.657   0.123   0.278  0.00  0.00    +0.253 C 
ENDBRANCH  11  12
ENDBRANCH   1  10
TORSDOF 5
