REMARK  Name = 127370
REMARK  11 active torsions:
REMARK  status: ('A' for Active; 'I' for Inactive)
REMARK    1  A    between atoms: CA_1  and  N_3
REMARK    2  A    between atoms: CA_1  and  C_13
REMARK    3  A    between atoms: CA_1  and  C_16
REMARK    4  A    between atoms: C_4  and  C_6
REMARK    5  A    between atoms: C_6  and  C_7
REMARK    6  A    between atoms: C_7  and  C_9
REMARK    7  A    between atoms: C_9  and  O_10
REMARK    8  A    between atoms: C_13  and  O_14
REMARK    9  A    between atoms: C_16  and  C_17
REMARK   10  A    between atoms: C_17  and  C_18
REMARK   11  A    between atoms: C_18  and  N_19
REMARK                            x       y       z     vdW  Elec       q    Type
REMARK                         _______ _______ _______ _____ _____    ______ ____
ROOT
ATOM      1  CA  UNL     1      -1.674  -0.801   0.223  0.00  0.00    +0.171 C 
ENDROOT
BRANCH   1   3
ATOM      2  O   UNL     1       0.905  -1.082   1.504  0.00  0.00    -0.275 OA
ATOM      3  N   UNL     1      -0.415  -0.262  -0.225  0.00  0.00    -0.297 N 
ATOM      4  C   UNL     1       0.780  -0.449   0.459  0.00  0.00    +0.223 C 
ATOM      5  H   UNL     1      -0.401   0.265  -1.056  0.00  0.00    +0.150 HD
BRANCH   4   6
ATOM      6  C   UNL     1       1.940   0.233  -0.243  0.00  0.00    +0.097 C 
BRANCH   6   7
ATOM      7  C   UNL     1       3.262   0.039   0.493  0.00  0.00    +0.119 C 
BRANCH   7   9
ATOM      8  O   UNL     1       4.322   1.357  -1.258  0.00  0.00    -0.250 OA
ATOM      9  C   UNL     1       4.407   0.729  -0.211  0.00  0.00    +0.314 C 
BRANCH   9  10
ATOM     10  O   UNL     1       5.574   0.571   0.467  0.00  0.00    -0.480 OA
ATOM     11  H   UNL     1       5.590   0.081   1.265  0.00  0.00    +0.295 HD
ENDBRANCH   9  10
ENDBRANCH   7   9
ENDBRANCH   6   7
ENDBRANCH   4   6
ENDBRANCH   1   3
BRANCH   1  13
ATOM     12  OXT UNL     1      -1.347  -2.569  -1.421  0.00  0.00    -0.248 OA
ATOM     13  C   UNL     1      -1.770  -2.209  -0.330  0.00  0.00    +0.332 C 
BRANCH  13  14
ATOM     14  O   UNL     1      -2.437  -3.042   0.512  0.00  0.00    -0.479 OA
ATOM     15  H   UNL     1      -2.744  -2.724   1.338  0.00  0.00    +0.295 HD
ENDBRANCH  13  14
ENDBRANCH   1  13
BRANCH   1  16
ATOM     16  C   UNL     1      -2.864   0.037  -0.245  0.00  0.00    +0.029 C 
BRANCH  16  17
ATOM     17  C   UNL     1      -2.797   1.481   0.264  0.00  0.00    -0.022 C 
BRANCH  17  18
ATOM     18  C   UNL     1      -3.979   2.302  -0.250  0.00  0.00    -0.086 C 
BRANCH  18  19
ATOM     19  N   UNL     1      -3.910   3.666   0.261  0.00  0.00    +0.380 N 
ATOM     20  H   UNL     1      -4.704   4.201  -0.090  0.00  0.00    -0.089 HD
ATOM     21  H   UNL     1      -3.041   4.101  -0.050  0.00  0.00    -0.089 HD
ATOM     22  H   UNL     1      -3.935   3.648   1.280  0.00  0.00    -0.089 HD
ENDBRANCH  18  19
ENDBRANCH  17  18
ENDBRANCH  16  17
ENDBRANCH   1  16
TORSDOF 11
