REMARK  Name = 6950578
REMARK  6 active torsions:
REMARK  status: ('A' for Active; 'I' for Inactive)
REMARK    1  A    between atoms: C_1  and  C_2
REMARK    2  A    between atoms: C_1  and  CA_10
REMARK    3  A    between atoms: C_5  and  O_8
REMARK    4  A    between atoms: CA_10  and  N_11
REMARK    5  A    between atoms: CA_10  and  C_16
REMARK    6  A    between atoms: C_16  and  O_17
REMARK                            x       y       z     vdW  Elec       q    Type
REMARK                         _______ _______ _______ _____ _____    ______ ____
ROOT
ATOM      1  C   UNL     1      -0.952   0.971   0.868  0.00  0.00    +0.015 C 
ENDROOT
BRANCH   1   2
ATOM      2  C   UNL     1       0.463   0.693   0.413  0.00  0.00    -0.021 C 
ATOM      3  C   UNL     1       1.002  -0.567   0.611  0.00  0.00    +0.032 C 
ATOM      4  C   UNL     1       1.190   1.704  -0.192  0.00  0.00    -0.004 C 
ATOM      5  C   UNL     1       2.308  -0.823   0.192  0.00  0.00    +0.133 C 
ATOM      6  C   UNL     1       2.496   1.448  -0.612  0.00  0.00    +0.003 C 
ATOM      7  C   UNL     1       3.054   0.184  -0.420  0.00  0.00    +0.037 C 
BRANCH   5   8
ATOM      8  O   UNL     1       2.853  -2.056   0.378  0.00  0.00    -0.506 OA
ATOM      9  H   UNL     1       2.351  -2.733   0.789  0.00  0.00    +0.292 HD
ENDBRANCH   5   8
ENDBRANCH   1   2
BRANCH   1  10
ATOM     10  CA  UNL     1      -1.997   0.674  -0.219  0.00  0.00    +0.040 C 
BRANCH  10  11
ATOM     11  N   UNL     1      -3.237   1.388   0.079  0.00  0.00    +0.389 N 
ATOM     12  H1  UNL     1      -3.048   2.389   0.132  0.00  0.00    -0.088 HD
ATOM     13  H2  UNL     1      -3.609   1.064   0.972  0.00  0.00    -0.088 HD
ATOM     14  H3  UNL     1      -3.918   1.209  -0.659  0.00  0.00    -0.088 HD
ENDBRANCH  10  11
BRANCH  10  16
ATOM     15  OXT UNL     1      -3.230  -1.340   0.377  0.00  0.00    -0.253 OA
ATOM     16  C   UNL     1      -2.351  -0.802  -0.283  0.00  0.00    +0.293 C 
BRANCH  16  17
ATOM     17  O   UNL     1      -1.598  -1.474  -1.193  0.00  0.00    -0.482 OA
ATOM     18  H   UNL     1      -0.934  -1.024  -1.677  0.00  0.00    +0.295 HD
ENDBRANCH  16  17
ENDBRANCH  10  16
ENDBRANCH   1  10
TORSDOF 6
