REMARK  Name = 152990
REMARK  10 active torsions:
REMARK  status: ('A' for Active; 'I' for Inactive)
REMARK    1  A    between atoms: C_1  and  O_2
REMARK    2  A    between atoms: C_1  and  C_4
REMARK    3  A    between atoms: C_1  and  C_12
REMARK    4  A    between atoms: C_4  and  C_5
REMARK    5  A    between atoms: C_5  and  O_6
REMARK    6  A    between atoms: C_5  and  C_9
REMARK    7  A    between atoms: C_9  and  O_10
REMARK    8  A    between atoms: C_12  and  O_13
REMARK    9  A    between atoms: C_12  and  C_15
REMARK   10  A    between atoms: C_15  and  O_16
REMARK                            x       y       z     vdW  Elec       q    Type
REMARK                         _______ _______ _______ _____ _____    ______ ____
ROOT
ATOM      1  C   UNL     1       0.857  -0.510  -0.011  0.00  0.00    +0.143 C 
ENDROOT
BRANCH   1   2
ATOM      2  O   UNL     1       0.909  -1.574   0.938  0.00  0.00    -0.382 OA
ATOM      3  H   UNL     1       0.123  -2.133   0.839  0.00  0.00    +0.210 HD
ENDBRANCH   1   2
BRANCH   1   4
ATOM      4  C   UNL     1      -0.449   0.290   0.164  0.00  0.00    +0.073 C 
BRANCH   4   5
ATOM      5  C   UNL     1      -1.735  -0.538   0.031  0.00  0.00    +0.212 C 
BRANCH   5   6
ATOM      6  O   UNL     1      -1.744  -1.213  -1.217  0.00  0.00    -0.374 OA
ATOM      7  H   UNL     1      -0.945  -1.756  -1.297  0.00  0.00    +0.211 HD
ENDBRANCH   5   6
BRANCH   5   9
ATOM      8  O   UNL     1      -3.825   0.431  -0.747  0.00  0.00    -0.248 OA
ATOM      9  C   UNL     1      -2.990   0.306   0.140  0.00  0.00    +0.341 C 
BRANCH   9  10
ATOM     10  O   UNL     1      -3.086   0.938   1.338  0.00  0.00    -0.479 OA
ATOM     11  H   UNL     1      -2.423   0.812   1.988  0.00  0.00    +0.295 HD
ENDBRANCH   9  10
ENDBRANCH   5   9
ENDBRANCH   4   5
ENDBRANCH   1   4
BRANCH   1  12
ATOM     12  C   UNL     1       2.105   0.376   0.147  0.00  0.00    +0.166 C 
BRANCH  12  13
ATOM     13  O   UNL     1       2.036   1.448  -0.795  0.00  0.00    -0.379 OA
ATOM     14  H   UNL     1       1.218   1.950  -0.654  0.00  0.00    +0.211 HD
ENDBRANCH  12  13
BRANCH  12  15
ATOM     15  C   UNL     1       3.399  -0.403  -0.090  0.00  0.00    +0.169 C 
BRANCH  15  16
ATOM     16  O   UNL     1       4.522   0.450   0.103  0.00  0.00    -0.379 OA
ATOM     17  H   UNL     1       5.339  -0.051  -0.049  0.00  0.00    +0.211 HD
ENDBRANCH  15  16
ENDBRANCH  12  15
ENDBRANCH   1  12
TORSDOF 10
