REMARK  Name = 17754181
REMARK  8 active torsions:
REMARK  status: ('A' for Active; 'I' for Inactive)
REMARK    1  A    between atoms: N_1  and  C_4
REMARK    2  A    between atoms: N_1  and  C_16
REMARK    3  A    between atoms: C_3  and  S_9
REMARK    4  A    between atoms: S_9  and  N_12
REMARK    5  A    between atoms: C_16  and  O_17
REMARK    6  A    between atoms: O_17  and  C_18
REMARK    7  A    between atoms: C_18  and  C_19
REMARK    8  A    between atoms: C_19  and  C_21
REMARK                            x       y       z     vdW  Elec       q    Type
REMARK                         _______ _______ _______ _____ _____    ______ ____
ROOT
ATOM      1  N   UNL     1      -0.468  -2.654  -0.417  0.00  0.00    -0.278 N 
ATOM      2  H   UNL     1      -0.250  -3.527  -0.817  0.00  0.00    +0.156 HD
ENDROOT
BRANCH   1   4
ATOM      3  C   UNL     1       2.835  -0.129   0.063  0.00  0.00    +0.122 C 
ATOM      4  C   UNL     1       0.633  -1.812  -0.257  0.00  0.00    +0.051 C 
ATOM      5  C   UNL     1       3.002  -1.397  -0.493  0.00  0.00    +0.021 C 
ATOM      6  C   UNL     1       1.567   0.298   0.459  0.00  0.00    +0.021 C 
ATOM      7  C   UNL     1       1.901  -2.239  -0.653  0.00  0.00    +0.016 C 
ATOM      8  C   UNL     1       0.466  -0.544   0.299  0.00  0.00    +0.016 C 
BRANCH   3   9
ATOM      9  S   UNL     1       4.213   0.924   0.264  0.00  0.00    +0.057 S 
ATOM     10  O   UNL     1       3.916   1.870   1.330  0.00  0.00    -0.153 OA
ATOM     11  O   UNL     1       5.414   0.105   0.336  0.00  0.00    -0.153 OA
BRANCH   9  12
ATOM     12  N   UNL     1       4.206   1.757  -1.229  0.00  0.00    -0.203 NA
ATOM     13  H   UNL     1       4.978   2.422  -1.250  0.00  0.00    +0.144 HD
ATOM     14  H   UNL     1       3.323   2.257  -1.335  0.00  0.00    +0.144 HD
ENDBRANCH   9  12
ENDBRANCH   3   9
ENDBRANCH   1   4
BRANCH   1  16
ATOM     15  S   UNL     1      -2.925  -3.706  -0.432  0.00  0.00    +0.006 S 
ATOM     16  C   UNL     1      -1.820  -2.488  -0.115  0.00  0.00    +0.233 C 
BRANCH  16  17
ATOM     17  O   UNL     1      -2.169  -1.298   0.440  0.00  0.00    -0.458 OA
BRANCH  17  18
ATOM     18  C   UNL     1      -3.518  -0.952   0.817  0.00  0.00    +0.212 C 
BRANCH  18  19
ATOM     19  C   UNL     1      -3.542   0.451   1.417  0.00  0.00    +0.074 C 
BRANCH  19  21
ATOM     20  S   UNL     1      -1.790   3.442  -0.630  0.00  0.00    -0.086 S 
ATOM     21  C   UNL     1      -3.091   1.507   0.448  0.00  0.00    -0.011 C 
ATOM     22  C   UNL     1      -3.701   1.736  -0.818  0.00  0.00    +0.003 C 
ATOM     23  C   UNL     1      -2.038   2.365   0.678  0.00  0.00    +0.031 C 
ATOM     24  C   UNL     1      -3.092   2.761  -1.508  0.00  0.00    +0.035 C 
ENDBRANCH  19  21
ENDBRANCH  18  19
ENDBRANCH  17  18
ENDBRANCH  16  17
ENDBRANCH   1  16
TORSDOF 8
