REMARK  Name = 490
REMARK  4 active torsions:
REMARK  status: ('A' for Active; 'I' for Inactive)
REMARK    1  A    between atoms: P_1  and  O_3
REMARK    2  A    between atoms: P_1  and  O_5
REMARK    3  A    between atoms: P_1  and  C_7
REMARK    4  A    between atoms: C_7  and  C_9
REMARK                            x       y       z     vdW  Elec       q    Type
REMARK                         _______ _______ _______ _____ _____    ______ ____
ROOT
ATOM      1  P   UNL     1      -0.829   0.112  -0.067  0.00  0.00    +0.345 P 
ATOM      2  O   UNL     1      -0.752   1.243  -1.035  0.00  0.00    -0.258 OA
ENDROOT
BRANCH   1   3
ATOM      3  O   UNL     1      -0.701   0.506   1.490  0.00  0.00    -0.323 OA
ATOM      4  H   UNL     1      -1.370   1.173   1.711  0.00  0.00    +0.220 HD
ENDBRANCH   1   3
BRANCH   1   5
ATOM      5  O   UNL     1      -2.168  -0.781  -0.130  0.00  0.00    -0.323 OA
ATOM      6  H   UNL     1      -2.944  -0.208  -0.028  0.00  0.00    +0.220 HD
ENDBRANCH   1   5
BRANCH   1   7
ATOM      7  C   UNL     1       0.473  -1.114  -0.272  0.00  0.00    +0.187 C 
BRANCH   7   9
ATOM      8  O   UNL     1       2.114   0.606   0.121  0.00  0.00    -0.288 OA
ATOM      9  C   UNL     1       1.862  -0.572  -0.107  0.00  0.00    +0.220 C 
ENDBRANCH   7   9
ENDBRANCH   1   7
TORSDOF 4
