REMARK  Name = 66644
REMARK  3 active torsions:
REMARK  status: ('A' for Active; 'I' for Inactive)
REMARK    1  A    between atoms: C_1  and  C_9
REMARK    2  A    between atoms: C_2  and  O_13
REMARK    3  A    between atoms: N_8  and  O_11
REMARK                            x       y       z     vdW  Elec       q    Type
REMARK                         _______ _______ _______ _____ _____    ______ ____
ROOT
ATOM      1  C   UNL     1      -0.050   0.097   0.070  0.00  0.00    +0.089 C 
ATOM      2  C   UNL     1      -0.943  -0.961  -0.105  0.00  0.00    +0.138 C 
ATOM      3  C   UNL     1      -0.530   1.401   0.188  0.00  0.00    +0.008 C 
ATOM      4  C   UNL     1      -2.314  -0.714  -0.162  0.00  0.00    +0.037 C 
ATOM      5  C   UNL     1      -1.901   1.648   0.131  0.00  0.00    +0.000 C 
ATOM      6  C   UNL     1      -2.794   0.591  -0.044  0.00  0.00    +0.003 C 
ENDROOT
BRANCH   1   9
ATOM      7  O   UNL     1       1.834  -1.205   0.589  0.00  0.00    -0.268 OA
ATOM      8  N   UNL     1       2.212   0.877  -0.326  0.00  0.00    -0.193 N 
ATOM      9  C   UNL     1       1.386  -0.139   0.132  0.00  0.00    +0.271 C 
ATOM     10  H   UNL     1       1.846   1.717  -0.686  0.00  0.00    +0.183 HD
BRANCH   8  11
ATOM     11  O   UNL     1       3.594   0.648  -0.250  0.00  0.00    -0.295 OA
ATOM     12  H   UNL     1       4.068   1.420  -0.595  0.00  0.00    +0.241 HD
ENDBRANCH   8  11
ENDBRANCH   1   9
BRANCH   2  13
ATOM     13  O   UNL     1      -0.494  -2.243  -0.223  0.00  0.00    -0.505 OA
ATOM     14  H   UNL     1       0.425  -2.423  -0.186  0.00  0.00    +0.292 HD
ENDBRANCH   2  13
TORSDOF 3
