REMARK  Name = 13695
REMARK  1 active torsions:
REMARK  status: ('A' for Active; 'I' for Inactive)
REMARK    1  A    between atoms: C_5  and  N_15
REMARK                            x       y       z     vdW  Elec       q    Type
REMARK                         _______ _______ _______ _____ _____    ______ ____
ROOT
ATOM      1  C   UNL     1       0.563  -0.676   0.000  0.00  0.00    +0.001 C 
ATOM      2  C   UNL     1      -0.869  -0.525   0.000  0.00  0.00    +0.000 C 
ATOM      3  C   UNL     1       1.381   0.484   0.000  0.00  0.00    +0.013 C 
ATOM      4  C   UNL     1      -1.428   0.780   0.000  0.00  0.00    +0.001 C 
ATOM      5  C   UNL     1       0.794   1.752   0.000  0.00  0.00    +0.041 C 
ATOM      6  C   UNL     1      -0.590   1.897   0.000  0.00  0.00    +0.014 C 
ATOM      7  C   UNL     1       1.230  -1.926   0.000  0.00  0.00    +0.000 C 
ATOM      8  C   UNL     1      -1.784  -1.609   0.000  0.00  0.00    +0.000 C 
ATOM      9  C   UNL     1       2.782   0.370   0.000  0.00  0.00    +0.001 C 
ATOM     10  C   UNL     1      -2.822   0.961   0.000  0.00  0.00    +0.000 C 
ATOM     11  C   UNL     1       2.624  -2.025   0.000  0.00  0.00    +0.000 C 
ATOM     12  C   UNL     1       3.400  -0.876   0.000  0.00  0.00    +0.000 C 
ATOM     13  C   UNL     1      -3.167  -1.415   0.000  0.00  0.00    +0.000 C 
ATOM     14  C   UNL     1      -3.687  -0.129   0.000  0.00  0.00    +0.000 C 
ENDROOT
BRANCH   5  15
ATOM     15  N   UNL     1       1.571   2.938   0.000  0.00  0.00    -0.357 N 
ATOM     16  H   UNL     1       2.554   2.882   0.000  0.00  0.00    +0.142 HD
ATOM     17  H   UNL     1       1.128   3.817  -0.001  0.00  0.00    +0.142 HD
ENDBRANCH   5  15
TORSDOF 1
