REMARK  Name = 273
REMARK  6 active torsions:
REMARK  status: ('A' for Active; 'I' for Inactive)
REMARK    1  A    between atoms: C_1  and  C_2
REMARK    2  A    between atoms: C_1  and  C_8
REMARK    3  A    between atoms: C_2  and  C_3
REMARK    4  A    between atoms: C_3  and  N_4
REMARK    5  A    between atoms: C_8  and  C_9
REMARK    6  A    between atoms: C_9  and  N_10
REMARK                            x       y       z     vdW  Elec       q    Type
REMARK                         _______ _______ _______ _____ _____    ______ ____
ROOT
ATOM      1  C   UNL     1       0.000  -0.485   0.000  0.00  0.00    -0.004 C 
ENDROOT
BRANCH   1   2
ATOM      2  C   UNL     1      -1.264   0.377  -0.011  0.00  0.00    -0.024 C 
BRANCH   2   3
ATOM      3  C   UNL     1      -2.523  -0.487   0.014  0.00  0.00    -0.086 C 
BRANCH   3   4
ATOM      4  N   UNL     1      -3.715   0.353  -0.006  0.00  0.00    +0.380 N 
ATOM      5  H   UNL     1      -4.547  -0.237   0.012  0.00  0.00    -0.089 HD
ATOM      6  H   UNL     1      -3.717   0.919  -0.854  0.00  0.00    -0.089 HD
ATOM      7  H   UNL     1      -3.714   0.964   0.811  0.00  0.00    -0.089 HD
ENDBRANCH   3   4
ENDBRANCH   2   3
ENDBRANCH   1   2
BRANCH   1   8
ATOM      8  C   UNL     1       1.264   0.377   0.011  0.00  0.00    -0.024 C 
BRANCH   8   9
ATOM      9  C   UNL     1       2.523  -0.487  -0.014  0.00  0.00    -0.086 C 
BRANCH   9  10
ATOM     10  N   UNL     1       3.715   0.353   0.006  0.00  0.00    +0.380 N 
ATOM     11  H   UNL     1       4.547  -0.237  -0.011  0.00  0.00    -0.089 HD
ATOM     12  H   UNL     1       3.717   0.919   0.854  0.00  0.00    -0.089 HD
ATOM     13  H   UNL     1       3.714   0.964  -0.811  0.00  0.00    -0.089 HD
ENDBRANCH   9  10
ENDBRANCH   8   9
ENDBRANCH   1   8
TORSDOF 6
