REMARK  Name = 36690559
REMARK  6 active torsions:
REMARK  status: ('A' for Active; 'I' for Inactive)
REMARK    1  A    between atoms: C_1  and  N_2
REMARK    2  A    between atoms: C_1  and  C_8
REMARK    3  A    between atoms: C_1  and  C_9
REMARK    4  A    between atoms: C_9  and  C_10
REMARK    5  A    between atoms: C_10  and  S_11
REMARK    6  A    between atoms: S_11  and  C_15
REMARK                            x       y       z     vdW  Elec       q    Type
REMARK                         _______ _______ _______ _____ _____    ______ ____
ROOT
ATOM      1  C   UNK     1      -2.341   0.733  -0.362  0.00  0.00    +0.041 C 
ENDROOT
BRANCH   1   2
ATOM      2  N   UNK     1      -2.337   1.718   0.765  0.00  0.00    +0.389 N 
ATOM      3  H   UNK     1      -2.032   2.628   0.420  0.00  0.00    -0.088 HD
ATOM      4  H   UNK     1      -1.697   1.399   1.493  0.00  0.00    -0.088 HD
ATOM      5  H   UNK     1      -3.278   1.797   1.150  0.00  0.00    -0.088 HD
ENDBRANCH   1   2
BRANCH   1   8
ATOM      6  O   UNK     1      -3.551  -0.761   1.038  0.00  0.00    -0.248 OA
ATOM      7  O   UNK     1      -2.349  -1.613  -0.704  0.00  0.00    -0.248 OA
ATOM      8  C   UNK     1      -2.784  -0.685   0.036  0.00  0.00    +0.345 C 
ENDBRANCH   1   8
BRANCH   1   9
ATOM      9  C   UNK     1      -0.976   0.826  -1.062  0.00  0.00    +0.001 C 
BRANCH   9  10
ATOM     10  C   UNK     1       0.198   0.352  -0.202  0.00  0.00    +0.064 C 
BRANCH  10  11
ATOM     11  S   UNK     1       1.758   0.485  -1.125  0.00  0.00    -0.042 S 
BRANCH  11  15
ATOM     12  F   UNK     1       4.155  -0.146  -0.280  0.00  0.00    -0.160 F 
ATOM     13  F   UNK     1       2.816   0.622   1.266  0.00  0.00    -0.160 F 
ATOM     14  F   UNK     1       2.544  -1.399   0.490  0.00  0.00    -0.160 F 
ATOM     15  C   UNK     1       2.867  -0.130   0.141  0.00  0.00    +0.444 C 
ENDBRANCH  11  15
ENDBRANCH  10  11
ENDBRANCH   9  10
ENDBRANCH   1   9
TORSDOF 6
