REMARK  Name = 449394
REMARK  10 active torsions:
REMARK  status: ('A' for Active; 'I' for Inactive)
REMARK    1  A    between atoms: C_1  and  C_22
REMARK    2  A    between atoms: C_4  and  O_7
REMARK    3  A    between atoms: O_7  and  C_8
REMARK    4  A    between atoms: C_11  and  N_16
REMARK    5  A    between atoms: C_12  and  N_19
REMARK    6  A    between atoms: C_13  and  O_20
REMARK    7  A    between atoms: C_22  and  CA_23
REMARK    8  A    between atoms: CA_23  and  N_25
REMARK    9  A    between atoms: CA_23  and  C_30
REMARK   10  A    between atoms: C_30  and  O_31
REMARK                            x       y       z     vdW  Elec       q    Type
REMARK                         _______ _______ _______ _____ _____    ______ ____
ROOT
ATOM      1  C   UNL     1      -2.683   1.647  -0.053  0.00  0.00    -0.020 C 
ATOM      2  C   UNL     1      -2.357   2.120   1.207  0.00  0.00    -0.001 C 
ATOM      3  C   UNL     1      -1.704   1.356  -0.990  0.00  0.00    -0.001 C 
ATOM      4  C   UNL     1      -0.018   2.019   0.609  0.00  0.00    +0.145 C 
ATOM      5  C   UNL     1      -1.015   2.307   1.540  0.00  0.00    +0.037 C 
ATOM      6  C   UNL     1      -0.363   1.543  -0.656  0.00  0.00    +0.037 C 
ENDROOT
BRANCH   4   7
ATOM      7  O   UNL     1       1.290   2.201   0.935  0.00  0.00    -0.453 OA
BRANCH   7   8
ATOM      8  C   UNL     1       2.184   1.198   0.596  0.00  0.00    +0.149 C 
ATOM      9  C   UNL     1       1.844  -0.119   0.844  0.00  0.00    +0.065 C 
ATOM     10  C   UNL     1       3.393   1.541   0.017  0.00  0.00    +0.065 C 
ATOM     11  C   UNL     1       4.292   0.531  -0.325  0.00  0.00    +0.181 C 
ATOM     12  C   UNL     1       2.744  -1.129   0.502  0.00  0.00    +0.181 C 
ATOM     13  C   UNL     1       3.968  -0.804  -0.083  0.00  0.00    +0.179 C 
BRANCH  11  16
ATOM     14  O   UNL     1       5.788   2.095  -1.122  0.00  0.00    -0.126 OA
ATOM     15  O   UNL     1       6.340  -0.027  -1.226  0.00  0.00    -0.126 OA
ATOM     16  N   UNL     1       5.535   0.884  -0.920  0.00  0.00    +0.061 N 
ENDBRANCH  11  16
BRANCH  12  19
ATOM     17  O   UNL     1       1.284  -2.734   1.282  0.00  0.00    -0.126 OA
ATOM     18  O   UNL     1       3.206  -3.387   0.447  0.00  0.00    -0.126 OA
ATOM     19  N   UNL     1       2.394  -2.484   0.756  0.00  0.00    +0.061 N 
ENDBRANCH  12  19
BRANCH  13  20
ATOM     20  O   UNL     1       4.849  -1.792  -0.418  0.00  0.00    -0.503 OA
ATOM     21  H   UNL     1       5.671  -1.574  -0.811  0.00  0.00    +0.292 HD
ENDBRANCH  13  20
ENDBRANCH   7   8
ENDBRANCH   4   7
BRANCH   1  22
ATOM     22  C   UNL     1      -4.135   1.445  -0.415  0.00  0.00    +0.057 C 
BRANCH  22  23
ATOM     23  CA  UNL     1      -4.646   0.038  -0.078  0.00  0.00    +0.176 C 
BRANCH  23  25
ATOM     24  O   UNL     1      -3.141  -2.129   1.132  0.00  0.00    -0.275 OA
ATOM     25  N   UNL     1      -3.870  -0.972  -0.752  0.00  0.00    -0.297 N 
ATOM     26  C   UNL     1      -3.181  -1.973  -0.086  0.00  0.00    +0.223 C 
ATOM     27  C   UNL     1      -2.475  -2.909  -1.030  0.00  0.00    +0.095 C 
ATOM     28  H   UNL     1      -3.827  -0.949  -1.736  0.00  0.00    +0.150 HD
ENDBRANCH  23  25
BRANCH  23  30
ATOM     29  OXT UNL     1      -6.988   0.623   0.085  0.00  0.00    -0.248 OA
ATOM     30  C   UNL     1      -6.122  -0.077  -0.430  0.00  0.00    +0.332 C 
BRANCH  30  31
ATOM     31  O   UNL     1      -6.412  -1.011  -1.367  0.00  0.00    -0.479 OA
ATOM     32  H   UNL     1      -5.726  -1.529  -1.741  0.00  0.00    +0.295 HD
ENDBRANCH  30  31
ENDBRANCH  23  30
ENDBRANCH  22  23
ENDBRANCH   1  22
TORSDOF 10
