REMARK  Name = 4369285
REMARK  9 active torsions:
REMARK  status: ('A' for Active; 'I' for Inactive)
REMARK    1  A    between atoms: N_1  and  C_18
REMARK    2  A    between atoms: N_2  and  C_8
REMARK    3  A    between atoms: C_11  and  C_17
REMARK    4  A    between atoms: C_18  and  C_19
REMARK    5  A    between atoms: C_19  and  C_21
REMARK    6  A    between atoms: C_21  and  C_22
REMARK    7  A    between atoms: C_25  and  N_30
REMARK    8  A    between atoms: C_26  and  O_31
REMARK    9  A    between atoms: C_27  and  O_33
REMARK                            x       y       z     vdW  Elec       q    Type
REMARK                         _______ _______ _______ _____ _____    ______ ____
ROOT
ATOM      1  N   UNL     1       0.573   1.584   0.317  0.00  0.00    +0.390 N 
ATOM      2  N   UNL     1       3.365   0.981   0.353  0.00  0.00    -0.312 N 
ATOM      3  C   UNL     1       1.559   2.605  -0.058  0.00  0.00    -0.055 C 
ATOM      4  C   UNL     1       1.051   0.256  -0.088  0.00  0.00    -0.055 C 
ATOM      5  C   UNL     1       2.905   2.347   0.624  0.00  0.00    +0.068 C 
ATOM      6  C   UNL     1       2.380  -0.081   0.593  0.00  0.00    +0.068 C 
ATOM      7  H   UNL     1       0.455   1.597   1.330  0.00  0.00    -0.080 HD
ENDROOT
BRANCH   2   8
ATOM      8  C   UNL     1       4.721   0.664   0.495  0.00  0.00    +0.048 C 
ATOM      9  C   UNL     1       5.320  -0.336  -0.297  0.00  0.00    +0.018 C 
ATOM     10  C   UNL     1       5.528   1.336   1.435  0.00  0.00    +0.015 C 
ATOM     11  C   UNL     1       6.671  -0.651  -0.155  0.00  0.00    +0.073 C 
ATOM     12  C   UNL     1       6.880   1.021   1.577  0.00  0.00    +0.001 C 
ATOM     13  C   UNL     1       7.451   0.027   0.782  0.00  0.00    +0.004 C 
BRANCH  11  17
ATOM     14  F   UNL     1       8.611  -1.916  -0.756  0.00  0.00    -0.166 F 
ATOM     15  F   UNL     1       6.701  -2.940  -0.848  0.00  0.00    -0.166 F 
ATOM     16  F   UNL     1       7.197  -1.435  -2.337  0.00  0.00    -0.166 F 
ATOM     17  C   UNL     1       7.282  -1.714  -1.003  0.00  0.00    +0.419 C 
ENDBRANCH  11  17
ENDBRANCH   2   8
BRANCH   1  18
ATOM     18  C   UNL     1      -0.722   1.872  -0.297  0.00  0.00    -0.069 C 
BRANCH  18  19
ATOM     19  C   UNL     1      -1.782   0.868   0.157  0.00  0.00    +0.046 C 
BRANCH  19  21
ATOM     20  O   UNL     1      -3.328   2.102  -1.222  0.00  0.00    -0.291 OA
ATOM     21  C   UNL     1      -3.146   1.163  -0.450  0.00  0.00    +0.171 C 
BRANCH  21  22
ATOM     22  C   UNL     1      -4.296   0.280  -0.093  0.00  0.00    +0.039 C 
ATOM     23  C   UNL     1      -5.528   0.548  -0.643  0.00  0.00    +0.030 C 
ATOM     24  C   UNL     1      -4.078  -0.767   0.773  0.00  0.00    +0.043 C 
ATOM     25  C   UNL     1      -6.602  -0.276  -0.308  0.00  0.00    +0.179 C 
ATOM     26  C   UNL     1      -5.152  -1.592   1.107  0.00  0.00    +0.169 C 
ATOM     27  C   UNL     1      -6.414  -1.347   0.566  0.00  0.00    +0.190 C 
BRANCH  25  30
ATOM     28  O   UNL     1      -8.010   0.960  -1.652  0.00  0.00    -0.126 OA
ATOM     29  O   UNL     1      -8.843  -0.756  -0.566  0.00  0.00    -0.126 OA
ATOM     30  N   UNL     1      -7.882  -0.011  -0.870  0.00  0.00    +0.061 N 
ENDBRANCH  25  30
BRANCH  26  31
ATOM     31  O   UNL     1      -4.954  -2.633   1.963  0.00  0.00    -0.503 OA
ATOM     32  H   UNL     1      -4.102  -2.790   2.321  0.00  0.00    +0.292 HD
ENDBRANCH  26  31
BRANCH  27  33
ATOM     33  O   UNL     1      -7.458  -2.160   0.901  0.00  0.00    -0.502 OA
ATOM     34  H   UNL     1      -8.309  -2.002   0.542  0.00  0.00    +0.292 HD
ENDBRANCH  27  33
ENDBRANCH  21  22
ENDBRANCH  19  21
ENDBRANCH  18  19
ENDBRANCH   1  18
TORSDOF 9
