7950
  -OEChem-10051720233D

 12 12  0     0  0  0  0  0  0999 V2000
   -1.3136    2.8255   -0.0001 Cl  0  0  0  0  0  0  0  0  0  0  0  0
   -1.7902   -2.5503   -0.0002 Cl  0  0  0  0  0  0  0  0  0  0  0  0
    3.1038   -0.2752    0.0001 Cl  0  0  0  0  0  0  0  0  0  0  0  0
   -0.5882    1.2647    0.0001 C   0  0  0  0  0  0  0  0  0  0  0  0
   -0.8012   -1.1418    0.0002 C   0  0  0  0  0  0  0  0  0  0  0  0
    1.3894   -0.1230   -0.0003 C   0  0  0  0  0  0  0  0  0  0  0  0
   -1.3895    0.1230    0.0002 C   0  0  0  0  0  0  0  0  0  0  0  0
    0.8013    1.1418   -0.0001 C   0  0  0  0  0  0  0  0  0  0  0  0
    0.5882   -1.2647    0.0001 C   0  0  0  0  0  0  0  0  0  0  0  0
   -2.4732    0.2189    0.0002 H   0  0  0  0  0  0  0  0  0  0  0  0
    1.4262    2.0323   -0.0001 H   0  0  0  0  0  0  0  0  0  0  0  0
    1.0470   -2.2513    0.0001 H   0  0  0  0  0  0  0  0  0  0  0  0
  1  4  1  0  0  0  0
  2  5  1  0  0  0  0
  3  6  1  0  0  0  0
  4  7  2  0  0  0  0
  4  8  1  0  0  0  0
  5  7  1  0  0  0  0
  5  9  2  0  0  0  0
  6  8  2  0  0  0  0
  6  9  1  0  0  0  0
  7 10  1  0  0  0  0
  8 11  1  0  0  0  0
  9 12  1  0  0  0  0
M  END
> <DATABASE_ID>
DB03836

> <DATABASE_NAME>
drugbank

> <ORIGINAL_SOURCE>
PUBCHEM

> <ORIGINAL_SOURCE_URL>
https://pubchem.ncbi.nlm.nih.gov/rest/pug/compound/inchikey/XKEFYDZQGKAQCN-UHFFFAOYSA-N/SDF?record_type=3d

> <SMILES>
ClC1=CC(Cl)=CC(Cl)=C1

> <INCHI_IDENTIFIER>
InChI=1S/C6H3Cl3/c7-4-1-5(8)3-6(9)2-4/h1-3H

> <INCHI_KEY>
XKEFYDZQGKAQCN-UHFFFAOYSA-N

> <FORMULA>
C6H3Cl3

> <MOLECULAR_WEIGHT>
181.447

> <EXACT_MASS>
179.930033217

> <JCHEM_ACCEPTOR_COUNT>
0

> <JCHEM_AVERAGE_POLARIZABILITY>
15.53907188272872

> <JCHEM_BIOAVAILABILITY>
1

> <JCHEM_DONOR_COUNT>
0

> <JCHEM_FORMAL_CHARGE>
0

> <JCHEM_GHOSE_FILTER>
0

> <JCHEM_IUPAC>
1,3,5-trichlorobenzene

> <ALOGPS_LOGP>
4.08

> <JCHEM_LOGP>
3.7853798449999996

> <ALOGPS_LOGS>
-3.77

> <JCHEM_MDDR_LIKE_RULE>
0

> <JCHEM_NUMBER_OF_RINGS>
1

> <JCHEM_PHYSIOLOGICAL_CHARGE>
0

> <JCHEM_POLAR_SURFACE_AREA>
0

> <JCHEM_REFRACTIVITY>
40.47239999999999

> <JCHEM_ROTATABLE_BOND_COUNT>
0

> <JCHEM_RULE_OF_FIVE>
1

> <ALOGPS_SOLUBILITY>
3.10e-02 g/l

> <JCHEM_TRADITIONAL_IUPAC>
1,3,5-trichlorobenzene

> <JCHEM_VEBER_RULE>
1

> <DRUGBANK_ID>
DB03836

> <SECONDARY_ACCESSION_NUMBERS>
EXPT03027

> <DRUG_GROUPS>
experimental

> <GENERIC_NAME>
1,3,5-Trichloro-Benzene

$$$$
