REMARK  Name = 4369171
REMARK  6 active torsions:
REMARK  status: ('A' for Active; 'I' for Inactive)
REMARK    1  A    between atoms: N_5  and  C_12
REMARK    2  A    between atoms: C_6  and  C_26
REMARK    3  A    between atoms: C_11  and  S_20
REMARK    4  A    between atoms: C_15  and  O_18
REMARK    5  A    between atoms: S_20  and  N_23
REMARK    6  A    between atoms: C_26  and  N_28
REMARK                            x       y       z     vdW  Elec       q    Type
REMARK                         _______ _______ _______ _____ _____    ______ ____
ROOT
ATOM      1  S   UNL     1      -0.868  -1.570  -0.276  0.00  0.00    +0.086 S 
ATOM      2  S   UNL     1      -3.824  -1.258  -0.568  0.00  0.00    -0.047 S 
ATOM      3  O   UNL     1      -0.586  -1.465  -1.694  0.00  0.00    -0.149 OA
ATOM      4  O   UNL     1      -1.109  -2.846   0.367  0.00  0.00    -0.149 OA
ATOM      5  N   UNL     1       0.279  -0.677   0.625  0.00  0.00    -0.175 N 
ATOM      6  C   UNL     1       0.034   0.701   1.027  0.00  0.00    +0.031 C 
ATOM      7  C   UNL     1      -2.335  -0.656  -0.051  0.00  0.00    +0.156 C 
ATOM      8  C   UNL     1      -2.407   0.582   0.518  0.00  0.00    +0.028 C 
ATOM      9  C   UNL     1      -1.216   1.218   0.981  0.00  0.00    +0.012 C 
ATOM     10  C   UNL     1      -3.740   1.071   0.542  0.00  0.00    +0.028 C 
ATOM     11  C   UNL     1      -4.621   0.164  -0.016  0.00  0.00    +0.152 C 
ENDROOT
BRANCH   5  12
ATOM     12  C   UNL     1       1.625  -1.178   0.600  0.00  0.00    +0.076 C 
ATOM     13  C   UNL     1       2.391  -1.067  -0.561  0.00  0.00    +0.053 C 
ATOM     14  C   UNL     1       2.169  -1.776   1.738  0.00  0.00    +0.017 C 
ATOM     15  C   UNL     1       3.698  -1.553  -0.585  0.00  0.00    +0.140 C 
ATOM     16  C   UNL     1       3.476  -2.263   1.714  0.00  0.00    +0.004 C 
ATOM     17  C   UNL     1       4.241  -2.151   0.553  0.00  0.00    +0.037 C 
BRANCH  15  18
ATOM     18  O   UNL     1       4.444  -1.446  -1.718  0.00  0.00    -0.471 OA
ATOM     19  C   UNL     1       5.771  -1.967  -1.674  0.00  0.00    +0.252 C 
ENDBRANCH  15  18
ENDBRANCH   5  12
BRANCH  11  20
ATOM     20  S   UNL     1      -6.359   0.177  -0.275  0.00  0.00    +0.063 S 
ATOM     21  O   UNL     1      -6.768  -1.223  -0.318  0.00  0.00    -0.153 OA
ATOM     22  O   UNL     1      -6.887   1.073   0.746  0.00  0.00    -0.153 OA
BRANCH  20  23
ATOM     23  N   UNL     1      -6.681   0.863  -1.816  0.00  0.00    -0.203 NA
ATOM     24  H   UNL     1      -7.687   0.877  -1.979  0.00  0.00    +0.144 HD
ATOM     25  H   UNL     1      -6.227   0.304  -2.539  0.00  0.00    +0.144 HD
ENDBRANCH  20  23
ENDBRANCH  11  20
BRANCH   6  26
ATOM     26  C   UNL     1       1.172   1.516   1.579  0.00  0.00    -0.033 C 
BRANCH  26  28
ATOM     27  O   UNL     1       3.812   3.477  -1.028  0.00  0.00    -0.358 OA
ATOM     28  N   UNL     1       2.200   1.759   0.569  0.00  0.00    +0.394 N 
ATOM     29  C   UNL     1       1.642   2.490  -0.577  0.00  0.00    -0.044 C 
ATOM     30  C   UNL     1       3.328   2.506   1.143  0.00  0.00    -0.044 C 
ATOM     31  C   UNL     1       2.736   2.742  -1.611  0.00  0.00    +0.119 C 
ATOM     32  C   UNL     1       4.382   2.759   0.068  0.00  0.00    +0.119 C 
ATOM     33  H   UNL     1       2.539   0.854   0.245  0.00  0.00    -0.079 HD
ENDBRANCH  26  28
ENDBRANCH   6  26
TORSDOF 6
