REMARK  Name = 3318551
REMARK  0 active torsions:
REMARK  status: ('A' for Active; 'I' for Inactive)
REMARK                            x       y       z     vdW  Elec       q    Type
REMARK                         _______ _______ _______ _____ _____    ______ ____
ROOT
ATOM      1  O   UNL     1       1.395   2.084   0.000  0.00  0.00    -0.221 OA
ATOM      2  N   UNL     1       0.400  -1.808   0.000  0.00  0.00    -0.309 N 
ATOM      3  N   UNL     1      -2.434   0.480  -0.001  0.00  0.00    -0.114 NA
ATOM      4  N   UNL     1      -1.406   1.228   0.000  0.00  0.00    -0.146 NA
ATOM      5  N   UNL     1       2.092  -0.126   0.000  0.00  0.00    -0.179 NA
ATOM      6  C   UNL     1      -0.558  -0.855   0.000  0.00  0.00    +0.095 C 
ATOM      7  C   UNL     1      -2.023  -0.964   0.000  0.00  0.00    +0.125 C 
ATOM      8  C   UNL     1      -0.292   0.444   0.001  0.00  0.00    +0.197 C 
ATOM      9  C   UNL     1       1.128   0.886   0.000  0.00  0.00    +0.173 C 
ATOM     10  C   UNL     1       1.699  -1.368   0.000  0.00  0.00    +0.229 C 
ATOM     11  H   UNL     1       0.177  -2.767   0.000  0.00  0.00    +0.149 HD
ENDROOT
TORSDOF 0
