REMARK  Name = 4754
REMARK  3 active torsions:
REMARK  status: ('A' for Active; 'I' for Inactive)
REMARK    1  A    between atoms: C_1  and  N_8
REMARK    2  A    between atoms: C_2  and  O_12
REMARK    3  A    between atoms: O_12  and  C_13
REMARK                            x       y       z     vdW  Elec       q    Type
REMARK                         _______ _______ _______ _____ _____    ______ ____
ROOT
ATOM      1  C   UNL     1      -1.030  -0.411  -0.056  0.00  0.00    +0.051 C 
ATOM      2  C   UNL     1       1.685   0.192  -0.273  0.00  0.00    +0.139 C 
ATOM      3  C   UNL     1      -0.613   0.919  -0.099  0.00  0.00    +0.018 C 
ATOM      4  C   UNL     1      -0.091  -1.440  -0.122  0.00  0.00    +0.018 C 
ATOM      5  C   UNL     1       0.745   1.220  -0.208  0.00  0.00    +0.038 C 
ATOM      6  C   UNL     1       1.267  -1.138  -0.230  0.00  0.00    +0.038 C 
ENDROOT
BRANCH   1   8
ATOM      7  O   UNL     1      -3.429   1.402   0.115  0.00  0.00    -0.275 OA
ATOM      8  N   UNL     1      -2.388  -0.713   0.053  0.00  0.00    -0.284 N 
ATOM      9  C   UNL     1      -3.469   0.176   0.131  0.00  0.00    +0.227 C 
ATOM     10  C   UNL     1      -4.785  -0.552   0.240  0.00  0.00    +0.095 C 
ATOM     11  H   UNL     1      -2.616  -1.671   0.078  0.00  0.00    +0.155 HD
ENDBRANCH   1   8
BRANCH   2  12
ATOM     12  O   UNL     1       3.009   0.486  -0.380  0.00  0.00    -0.475 OA
BRANCH  12  13
ATOM     13  C   UNL     1       3.929  -0.442   0.193  0.00  0.00    +0.206 C 
ATOM     14  C   UNL     1       5.170   0.302   0.635  0.00  0.00    +0.051 C 
ENDBRANCH  12  13
ENDBRANCH   2  12
TORSDOF 3
