REMARK  Name = 5287565
REMARK  0 active torsions:
REMARK  status: ('A' for Active; 'I' for Inactive)
REMARK                            x       y       z     vdW  Elec       q    Type
REMARK                         _______ _______ _______ _____ _____    ______ ____
ROOT
ATOM      1  N   UNL     1       1.262   1.340  -0.001  0.00  0.00    -0.323 N 
ATOM      2  N   UNL     1      -0.172  -1.877   0.000  0.00  0.00    -0.247 NA
ATOM      3  N   UNL     1      -2.030  -0.306   0.000  0.00  0.00    -0.232 NA
ATOM      4  N   UNL     1      -1.693   2.064   0.000  0.00  0.00    -0.345 N 
ATOM      5  C   UNL     1       0.172   0.508   0.000  0.00  0.00    +0.164 C 
ATOM      6  C   UNL     1       0.650  -0.799   0.000  0.00  0.00    +0.082 C 
ATOM      7  C   UNL     1      -1.190   0.752   0.000  0.00  0.00    +0.123 C 
ATOM      8  C   UNL     1       2.065  -0.738   0.000  0.00  0.00    +0.032 C 
ATOM      9  C   UNL     1       2.414   0.595   0.000  0.00  0.00    +0.060 C 
ATOM     10  C   UNL     1      -1.477  -1.539   0.000  0.00  0.00    +0.251 C 
ATOM     11  H   UNL     1       1.223   2.324  -0.001  0.00  0.00    +0.148 HD
ATOM     12  H   UNL     1      -2.666   2.218   0.000  0.00  0.00    +0.143 HD
ATOM     13  H   UNL     1      -1.073   2.829   0.000  0.00  0.00    +0.143 HD
ENDROOT
TORSDOF 0
