REMARK  Name = 446824
REMARK  4 active torsions:
REMARK  status: ('A' for Active; 'I' for Inactive)
REMARK    1  A    between atoms: N9_1  and  C1*_12
REMARK    2  A    between atoms: C2*_13  and  O2*_16
REMARK    3  A    between atoms: C4*_14  and  C5*_18
REMARK    4  A    between atoms: C5*_18  and  O5*_19
REMARK                            x       y       z     vdW  Elec       q    Type
REMARK                         _______ _______ _______ _____ _____    ______ ____
ROOT
ATOM      1  N9  A   A   1       0.392  -0.359   0.098  0.00  0.00    -0.247 N 
ATOM      2  N7  A   A   1       1.891  -1.845  -0.625  0.00  0.00    -0.242 NA
ATOM      3  N3  A   A   1       1.879   1.451   0.741  0.00  0.00    -0.228 NA
ATOM      4  N1  A   A   1       4.214   0.870   0.332  0.00  0.00    -0.229 NA
ATOM      5  C4  A   A   1       1.616   0.230   0.254  0.00  0.00    +0.152 C 
ATOM      6  C8  A   A   1       0.611  -1.604  -0.432  0.00  0.00    +0.223 C 
ATOM      7  C5  A   A   1       2.531  -0.707  -0.200  0.00  0.00    +0.140 C 
ATOM      8  C6  A   A   1       3.874  -0.350  -0.150  0.00  0.00    +0.143 C 
ATOM      9  C2  A   A   1       3.210   1.683   0.741  0.00  0.00    +0.253 C 
ATOM     10  N6  A   A   1       4.870  -1.238  -0.591  0.00  0.00    -0.342 N 
ATOM     11  H61 A   A   1       5.818  -0.975  -0.551  0.00  0.00    +0.144 HD
ATOM     12  H62 A   A   1       4.620  -2.124  -0.941  0.00  0.00    +0.144 HD
ENDROOT
BRANCH   1  15
ATOM     13  O4* A   A   1      -1.796  -0.832   0.845  0.00  0.00    -0.327 OA
ATOM     14  O3* A   A   1      -3.961   1.340  -0.795  0.00  0.00    -0.291 OA
ATOM     15  C1* A   A   1      -0.908   0.219   0.431  0.00  0.00    +0.230 C 
ATOM     16  C2* A   A   1      -1.591   0.897  -0.747  0.00  0.00    +0.218 C 
ATOM     17  C4* A   A   1      -3.140  -0.331   0.750  0.00  0.00    +0.206 C 
ATOM     18  C3* A   A   1      -3.018   0.714  -0.328  0.00  0.00    +0.211 C 
BRANCH  16  19
ATOM     19  O2* A   A   1      -1.225   2.247  -0.845  0.00  0.00    -0.374 OA
ATOM     20  H2* A   A   1      -0.297   2.312  -1.117  0.00  0.00    +0.211 HD
ENDBRANCH  16  19
BRANCH  17  21
ATOM     21  C5* A   A   1      -4.076  -1.458   0.375  0.00  0.00    +0.174 C 
BRANCH  21  22
ATOM     22  O5* A   A   1      -5.373  -0.927   0.144  0.00  0.00    -0.379 OA
ATOM     23  H5* A   A   1      -5.978  -1.646  -0.097  0.00  0.00    +0.211 HD
ENDBRANCH  21  22
ENDBRANCH  17  21
ENDBRANCH   1  15
TORSDOF 4
