REMARK  Name = 74190
REMARK  4 active torsions:
REMARK  status: ('A' for Active; 'I' for Inactive)
REMARK    1  A    between atoms: P_1  and  O_3
REMARK    2  A    between atoms: P_1  and  O_5
REMARK    3  A    between atoms: P_1  and  O_7
REMARK    4  A    between atoms: O_7  and  C_8
REMARK                            x       y       z     vdW  Elec       q    Type
REMARK                         _______ _______ _______ _____ _____    ______ ____
ROOT
ATOM      1  P   UNL     1       0.980  -0.099   0.006  0.00  0.00    +0.473 P 
ATOM      2  O   UNL     1       1.997  -1.201   0.039  0.00  0.00    -0.227 OA
ENDROOT
BRANCH   1   3
ATOM      3  O   UNL     1       1.059   0.952   1.233  0.00  0.00    -0.303 OA
ATOM      4  H   UNL     1       0.367   1.625   1.128  0.00  0.00    +0.222 HD
ENDBRANCH   1   3
BRANCH   1   5
ATOM      5  O   UNL     1       1.044   0.851  -1.302  0.00  0.00    -0.303 OA
ATOM      6  H   UNL     1       0.356   1.532  -1.241  0.00  0.00    +0.222 HD
ENDBRANCH   1   5
BRANCH   1   7
ATOM      7  O   UNL     1      -0.563  -0.591   0.021  0.00  0.00    -0.273 OA
BRANCH   7   8
ATOM      8  C   UNL     1      -1.585   0.390  -0.009  0.00  0.00    +0.154 C 
ATOM      9  C   UNL     1      -2.932  -0.302   0.011  0.00  0.00    +0.035 C 
ENDBRANCH   7   8
ENDBRANCH   1   7
TORSDOF 4
