REMARK  Name = 42300
REMARK  2 active torsions:
REMARK  status: ('A' for Active; 'I' for Inactive)
REMARK    1  A    between atoms: C_2  and  C_8
REMARK    2  A    between atoms: C_8  and  O_9
REMARK                            x       y       z     vdW  Elec       q    Type
REMARK                         _______ _______ _______ _____ _____    ______ ____
ROOT
ATOM      1  I   UNL     1       3.106  -1.589  -0.082  0.00  0.00    -0.043 I 
ATOM      2  C   UNL     1      -0.925  -0.017   0.276  0.00  0.00    +0.007 C 
ATOM      3  C   UNL     1       0.183  -0.861   0.223  0.00  0.00    +0.004 C 
ATOM      4  C   UNL     1      -0.764   1.358   0.100  0.00  0.00    -0.002 C 
ATOM      5  C   UNL     1       1.454  -0.331  -0.004  0.00  0.00    +0.030 C 
ATOM      6  C   UNL     1       0.506   1.888  -0.128  0.00  0.00    +0.000 C 
ATOM      7  C   UNL     1       1.615   1.043  -0.180  0.00  0.00    +0.006 C 
ENDROOT
BRANCH   2   8
ATOM      8  C   UNL     1      -2.284  -0.582   0.520  0.00  0.00    +0.164 C 
BRANCH   8   9
ATOM      9  O   UNL     1      -2.889  -0.909  -0.725  0.00  0.00    -0.377 OA
ATOM     10  H   UNL     1      -3.773  -1.277  -0.568  0.00  0.00    +0.211 HD
ENDBRANCH   8   9
ENDBRANCH   2   8
TORSDOF 2
