REMARK  Name = 98487
REMARK  2 active torsions:
REMARK  status: ('A' for Active; 'I' for Inactive)
REMARK    1  A    between atoms: C_1  and  C_9
REMARK    2  A    between atoms: C_2  and  O_12
REMARK                            x       y       z     vdW  Elec       q    Type
REMARK                         _______ _______ _______ _____ _____    ______ ____
ROOT
ATOM      1  C   UNL     1      -0.970   0.063  -0.002  0.00  0.00    +0.056 C 
ATOM      2  C   UNL     1       1.419  -0.301  -0.001  0.00  0.00    +0.139 C 
ATOM      3  C   UNL     1       0.119  -0.808  -0.003  0.00  0.00    +0.041 C 
ATOM      4  C   UNL     1      -0.759   1.442   0.001  0.00  0.00    +0.005 C 
ATOM      5  C   UNL     1       1.629   1.078   0.002  0.00  0.00    +0.037 C 
ATOM      6  C   UNL     1       0.540   1.950   0.003  0.00  0.00    +0.003 C 
ENDROOT
BRANCH   1   9
ATOM      7  O   UNL     1      -2.543  -1.689   0.009  0.00  0.00    -0.270 OA
ATOM      8  N   UNL     1      -3.375   0.448  -0.003  0.00  0.00    -0.325 N 
ATOM      9  C   UNL     1      -2.324  -0.465  -0.004  0.00  0.00    +0.243 C 
ATOM     10  H   UNL     1      -4.306   0.126  -0.004  0.00  0.00    +0.145 HD
ATOM     11  H   UNL     1      -3.188   1.414  -0.001  0.00  0.00    +0.145 HD
ENDBRANCH   1   9
BRANCH   2  12
ATOM     12  O   UNL     1       2.481  -1.151  -0.002  0.00  0.00    -0.471 OA
ATOM     13  C   UNL     1       3.782  -0.565   0.000  0.00  0.00    +0.252 C 
ENDBRANCH   2  12
TORSDOF 2
