REMARK  Name = 5289419
REMARK  2 active torsions:
REMARK  status: ('A' for Active; 'I' for Inactive)
REMARK    1  A    between atoms: C_9  and  C_15
REMARK    2  A    between atoms: C_10  and  O_20
REMARK                            x       y       z     vdW  Elec       q    Type
REMARK                         _______ _______ _______ _____ _____    ______ ____
ROOT
ATOM      1  O   UNL     1      -1.955   1.984  -0.036  0.00  0.00    -0.270 OA
ATOM      2  N   UNL     1       0.383   2.314   0.013  0.00  0.00    -0.280 N 
ATOM      3  C   UNL     1       1.103   0.130  -0.018  0.00  0.00    +0.021 C 
ATOM      4  C   UNL     1       1.500   1.470   0.016  0.00  0.00    +0.051 C 
ATOM      5  C   UNL     1      -0.356   0.149  -0.044  0.00  0.00    +0.056 C 
ATOM      6  C   UNL     1      -0.807   1.581  -0.023  0.00  0.00    +0.250 C 
ATOM      7  C   UNL     1       2.042  -0.883  -0.023  0.00  0.00    +0.038 C 
ATOM      8  C   UNL     1       2.828   1.848   0.046  0.00  0.00    +0.018 C 
ATOM      9  C   UNL     1      -1.200  -0.884  -0.080  0.00  0.00    +0.020 C 
ATOM     10  C   UNL     1       3.394  -0.523   0.008  0.00  0.00    +0.139 C 
ATOM     11  C   UNL     1       3.782   0.830   0.042  0.00  0.00    +0.038 C 
ATOM     12  H   UNL     1       0.430   3.297   0.034  0.00  0.00    +0.155 HD
ENDROOT
BRANCH   9  15
ATOM     13  N   UNL     1      -3.292  -0.806   1.074  0.00  0.00    -0.315 N 
ATOM     14  N   UNL     1      -4.817  -0.651  -0.533  0.00  0.00    -0.314 N 
ATOM     15  C   UNL     1      -2.671  -0.797  -0.104  0.00  0.00    +0.061 C 
ATOM     16  C   UNL     1      -3.560  -0.706  -1.080  0.00  0.00    +0.074 C 
ATOM     17  C   UNL     1      -4.621  -0.714   0.765  0.00  0.00    +0.182 C 
ATOM     18  H   UNL     1      -2.884  -0.865   1.968  0.00  0.00    +0.148 HD
ATOM     19  H   UNL     1      -5.677  -0.580  -1.008  0.00  0.00    +0.148 HD
ENDBRANCH   9  15
BRANCH  10  20
ATOM     20  O   UNL     1       4.350  -1.495   0.006  0.00  0.00    -0.471 OA
ATOM     21  C   UNL     1       3.898  -2.847  -0.030  0.00  0.00    +0.252 C 
ENDBRANCH  10  20
TORSDOF 2
