REMARK  Name = 49791955
REMARK  10 active torsions:
REMARK  status: ('A' for Active; 'I' for Inactive)
REMARK    1  A    between atoms: P_1  and  O_4
REMARK    2  A    between atoms: P_1  and  O_12
REMARK    3  A    between atoms: O_4  and  C_5
REMARK    4  A    between atoms: C_5  and  C_6
REMARK    5  A    between atoms: C_6  and  O_7
REMARK    6  A    between atoms: C_6  and  C_9
REMARK    7  A    between atoms: C_9  and  O_10
REMARK    8  A    between atoms: O_12  and  C_13
REMARK    9  A    between atoms: C_13  and  C_14
REMARK   10  A    between atoms: C_14  and  N_15
REMARK                            x       y       z     vdW  Elec       q    Type
REMARK                         _______ _______ _______ _____ _____    ______ ____
ROOT
ATOM      1  P   UNL     1       1.360  -1.478  -0.061  0.00  0.00    +0.506 P 
ATOM      2  O   UNL     1       1.174  -2.244  -1.354  0.00  0.00    -0.225 OA
ATOM      3  O   UNL     1       2.139  -2.091   1.084  0.00  0.00    -0.116 OA
ENDROOT
BRANCH   1   4
ATOM      4  O   UNL     1      -0.115  -1.022   0.475  0.00  0.00    -0.269 OA
BRANCH   4   5
ATOM      5  C   UNL     1      -1.082  -0.567  -0.466  0.00  0.00    +0.185 C 
BRANCH   5   6
ATOM      6  C   UNL     1      -2.373  -0.198   0.256  0.00  0.00    +0.170 C 
BRANCH   6   7
ATOM      7  O   UNL     1      -2.095   0.854   1.183  0.00  0.00    -0.379 OA
ATOM      8  H   UNL     1      -1.421   0.559   1.814  0.00  0.00    +0.211 HD
ENDBRANCH   6   7
BRANCH   6   9
ATOM      9  C   UNL     1      -3.433   0.299  -0.718  0.00  0.00    +0.169 C 
BRANCH   9  10
ATOM     10  O   UNL     1      -4.620   0.601   0.007  0.00  0.00    -0.379 OA
ATOM     11  H   UNL     1      -5.301   0.919  -0.606  0.00  0.00    +0.211 HD
ENDBRANCH   9  10
ENDBRANCH   6   9
ENDBRANCH   5   6
ENDBRANCH   4   5
ENDBRANCH   1   4
BRANCH   1  12
ATOM     12  O   UNL     1       2.009  -0.013  -0.395  0.00  0.00    -0.274 OA
BRANCH  12  13
ATOM     13  C   UNL     1       2.275   0.886   0.670  0.00  0.00    +0.130 C 
BRANCH  13  14
ATOM     14  C   UNL     1       2.869   2.166   0.117  0.00  0.00    -0.053 C 
BRANCH  14  15
ATOM     15  N   UNL     1       1.890   2.806  -0.798  0.00  0.00    +0.382 N 
ATOM     16  H   UNL     1       2.287   3.668  -1.172  0.00  0.00    -0.089 HD
ATOM     17  H   UNL     1       1.035   3.020  -0.285  0.00  0.00    -0.089 HD
ATOM     18  H   UNL     1       1.676   2.169  -1.565  0.00  0.00    -0.089 HD
ENDBRANCH  14  15
ENDBRANCH  13  14
ENDBRANCH  12  13
ENDBRANCH   1  12
TORSDOF 10
