REMARK  Name = 69020
REMARK  2 active torsions:
REMARK  status: ('A' for Active; 'I' for Inactive)
REMARK    1  A    between atoms: C_1  and  C_4
REMARK    2  A    between atoms: C_1  and  N_7
REMARK                            x       y       z     vdW  Elec       q    Type
REMARK                         _______ _______ _______ _____ _____    ______ ____
ROOT
ATOM      1  C   UNL     1       0.764   0.725  -0.263  0.00  0.00    +0.001 C 
ENDROOT
BRANCH   1   4
ATOM      2  O   UNL     1      -0.536  -1.300  -0.067  0.00  0.00    -0.278 OA
ATOM      3  N   UNL     1      -1.612   0.717   0.162  0.00  0.00    -0.331 N 
ATOM      4  C   UNL     1      -0.502  -0.072  -0.045  0.00  0.00    +0.197 C 
ATOM      5  H   UNL     1      -2.491   0.299   0.314  0.00  0.00    +0.145 HD
ATOM      6  H   UNL     1      -1.527   1.697   0.157  0.00  0.00    +0.145 HD
ENDBRANCH   1   4
BRANCH   1   7
ATOM      7  N   UNL     1       1.886  -0.070   0.214  0.00  0.00    +0.386 N 
ATOM      8  H   UNL     1       2.753   0.450   0.076  0.00  0.00    -0.089 HD
ATOM      9  H   UNL     1       1.929  -0.946  -0.307  0.00  0.00    -0.089 HD
ATOM     10  H   UNL     1       1.764  -0.270   1.206  0.00  0.00    -0.089 HD
ENDBRANCH   1   7
TORSDOF 2
