REMARK  Name = 441478
REMARK  6 active torsions:
REMARK  status: ('A' for Active; 'I' for Inactive)
REMARK    1  A    between atoms: C_2  and  O_7
REMARK    2  A    between atoms: C_3  and  O_9
REMARK    3  A    between atoms: C_4  and  O_11
REMARK    4  A    between atoms: C_5  and  C_16
REMARK    5  A    between atoms: C_6  and  O_13
REMARK    6  A    between atoms: C_16  and  O_17
REMARK                            x       y       z     vdW  Elec       q    Type
REMARK                         _______ _______ _______ _____ _____    ______ ____
ROOT
ATOM      1  O   UNL     1       0.198  -1.337   0.009  0.00  0.00    -0.317 OA
ATOM      2  C   UNL     1      -1.102   1.223  -0.100  0.00  0.00    +0.172 C 
ATOM      3  C   UNL     1       0.394   1.080   0.180  0.00  0.00    +0.178 C 
ATOM      4  C   UNL     1      -1.857  -0.066   0.228  0.00  0.00    +0.196 C 
ATOM      5  C   UNL     1       0.938  -0.204  -0.434  0.00  0.00    +0.245 C 
ATOM      6  C   UNL     1      -1.169  -1.282  -0.391  0.00  0.00    +0.263 C 
ENDROOT
BRANCH   2   7
ATOM      7  O   UNL     1      -1.603   2.288   0.710  0.00  0.00    -0.379 OA
ATOM      8  H   UNL     1      -1.124   3.105   0.502  0.00  0.00    +0.211 HD
ENDBRANCH   2   7
BRANCH   3   9
ATOM      9  O   UNL     1       1.084   2.189  -0.394  0.00  0.00    -0.379 OA
ATOM     10  H   UNL     1       0.746   3.014  -0.010  0.00  0.00    +0.211 HD
ENDBRANCH   3   9
BRANCH   4  11
ATOM     11  O   UNL     1      -3.182   0.015  -0.297  0.00  0.00    -0.378 OA
ATOM     12  H   UNL     1      -3.635   0.783   0.086  0.00  0.00    +0.211 HD
ENDBRANCH   4  11
BRANCH   6  13
ATOM     13  O   UNL     1      -1.850  -2.451   0.062  0.00  0.00    -0.358 OA
ATOM     14  H   UNL     1      -1.431  -3.239  -0.319  0.00  0.00    +0.213 HD
ENDBRANCH   6  13
BRANCH   5  16
ATOM     15  O   UNL     1       2.648  -1.457   0.719  0.00  0.00    -0.247 OA
ATOM     16  C   UNL     1       2.322  -0.486   0.052  0.00  0.00    +0.344 C 
BRANCH  16  17
ATOM     17  O   UNL     1       3.177   0.488  -0.345  0.00  0.00    -0.478 OA
ATOM     18  H   UNL     1       2.862   1.208  -0.856  0.00  0.00    +0.295 HD
ENDBRANCH  16  17
ENDBRANCH   5  16
TORSDOF 6
