REMARK  Name = 6323220
REMARK  0 active torsions:
REMARK  status: ('A' for Active; 'I' for Inactive)
REMARK                            x       y       z     vdW  Elec       q    Type
REMARK                         _______ _______ _______ _____ _____    ______ ____
ROOT
ATOM      1  O   UNL     1      -3.356  -0.601  -0.129  0.00  0.00    -0.432 OA
ATOM      2  O   UNL     1      -1.885  -2.329  -0.099  0.00  0.00    -0.226 OA
ATOM      3  O   UNL     1       0.554  -2.396   0.403  0.00  0.00    -0.208 OA
ATOM      4  N   UNL     1      -1.162  -0.072  -0.076  0.00  0.00    -0.209 N 
ATOM      5  N   UNL     1       0.166   2.324   0.071  0.00  0.00    -0.318 N 
ATOM      6  N   UNL     1       2.259   1.139   0.025  0.00  0.00    -0.263 N 
ATOM      7  N   UNL     1       2.431  -1.202  -0.058  0.00  0.00    -0.301 NA
ATOM      8  N   UNL     1       4.332   0.175  -0.211  0.00  0.00    -0.320 N 
ATOM      9  C   UNL     1      -1.881   1.156  -0.346  0.00  0.00    +0.147 C 
ATOM     10  C   UNL     1      -1.259   2.371   0.322  0.00  0.00    +0.112 C 
ATOM     11  C   UNL     1      -3.276   0.813   0.102  0.00  0.00    +0.232 C 
ATOM     12  C   UNL     1       0.227  -0.057   0.007  0.00  0.00    +0.180 C 
ATOM     13  C   UNL     1       0.882   1.136   0.034  0.00  0.00    +0.127 C 
ATOM     14  C   UNL     1      -2.076  -1.122  -0.097  0.00  0.00    +0.409 C 
ATOM     15  C   UNL     1       1.062  -1.316   0.128  0.00  0.00    +0.224 C 
ATOM     16  C   UNL     1       2.982  -0.019  -0.076  0.00  0.00    +0.248 C 
ATOM     17  H   UNL     1       0.647   3.170  -0.081  0.00  0.00    +0.148 HD
ATOM     18  H   UNL     1       2.736   1.997   0.094  0.00  0.00    +0.157 HD
ATOM     19  H   UNL     1       4.699   1.089  -0.219  0.00  0.00    +0.146 HD
ATOM     20  H   UNL     1       4.934  -0.598  -0.301  0.00  0.00    +0.146 HD
ENDROOT
TORSDOF 0
