REMARK  Name = 165138
REMARK  4 active torsions:
REMARK  status: ('A' for Active; 'I' for Inactive)
REMARK    1  A    between atoms: N_2  and  C_16
REMARK    2  A    between atoms: C_17  and  O_20
REMARK    3  A    between atoms: C_19  and  C_22
REMARK    4  A    between atoms: C_22  and  O_23
REMARK                            x       y       z     vdW  Elec       q    Type
REMARK                         _______ _______ _______ _____ _____    ______ ____
ROOT
ATOM      1  O   UNL     1      -3.878   2.103  -0.502  0.00  0.00    -0.208 OA
ATOM      2  N   UNL     1       0.205   0.268   0.120  0.00  0.00    -0.207 NA
ATOM      3  N   UNL     1      -1.709  -1.201   0.428  0.00  0.00    -0.279 N 
ATOM      4  N   UNL     1      -0.932   2.130  -0.402  0.00  0.00    -0.241 NA
ATOM      5  N   UNL     1      -3.836  -0.141   0.077  0.00  0.00    -0.301 NA
ATOM      6  N   UNL     1      -3.661  -2.416   0.669  0.00  0.00    -0.320 N 
ATOM      7  C   UNL     1      -1.112  -0.039   0.150  0.00  0.00    +0.191 C 
ATOM      8  C   UNL     1       0.266   1.600  -0.221  0.00  0.00    +0.205 C 
ATOM      9  C   UNL     1      -1.796   1.098  -0.168  0.00  0.00    +0.183 C 
ATOM     10  C   UNL     1      -3.244   1.093  -0.219  0.00  0.00    +0.224 C 
ATOM     11  C   UNL     1      -3.102  -1.198   0.377  0.00  0.00    +0.245 C 
ATOM     12  H   UNL     1      -1.197  -2.010   0.656  0.00  0.00    +0.152 HD
ATOM     13  H   UNL     1      -3.083  -3.183   0.888  0.00  0.00    +0.146 HD
ATOM     14  H   UNL     1      -4.639  -2.524   0.660  0.00  0.00    +0.146 HD
ENDROOT
BRANCH   2  16
ATOM     15  O   UNL     1       2.402   0.144   0.996  0.00  0.00    -0.338 OA
ATOM     16  C   UNL     1       1.341  -0.611   0.387  0.00  0.00    +0.206 C 
ATOM     17  C   UNL     1       1.928  -1.258  -0.857  0.00  0.00    +0.156 C 
ATOM     18  C   UNL     1       3.350  -1.519  -0.414  0.00  0.00    +0.065 C 
ATOM     19  C   UNL     1       3.659  -0.318   0.465  0.00  0.00    +0.149 C 
BRANCH  17  20
ATOM     20  O   UNL     1       1.249  -2.455  -1.183  0.00  0.00    -0.380 OA
ATOM     21  H   UNL     1       0.343  -2.247  -1.461  0.00  0.00    +0.211 HD
ENDBRANCH  17  20
BRANCH  19  22
ATOM     22  C   UNL     1       4.315   0.823  -0.299  0.00  0.00    +0.167 C 
BRANCH  22  23
ATOM     23  O   UNL     1       4.555   1.898   0.595  0.00  0.00    -0.379 OA
ATOM     24  H   UNL     1       4.973   2.631   0.116  0.00  0.00    +0.211 HD
ENDBRANCH  22  23
ENDBRANCH  19  22
ENDBRANCH   2  16
TORSDOF 4
