REMARK  Name = 72886
REMARK  5 active torsions:
REMARK  status: ('A' for Active; 'I' for Inactive)
REMARK    1  A    between atoms: C_1  and  N_2
REMARK    2  A    between atoms: C_1  and  C_7
REMARK    3  A    between atoms: C_1  and  C_10
REMARK    4  A    between atoms: C_7  and  O_8
REMARK    5  A    between atoms: C_10  and  S_11
REMARK                            x       y       z     vdW  Elec       q    Type
REMARK                         _______ _______ _______ _____ _____    ______ ____
ROOT
ATOM      1  C   UNK     1       0.945   0.823   0.397  0.00  0.00    +0.060 C 
ENDROOT
BRANCH   1   2
ATOM      2  N   UNK     1       1.903   1.864   0.022  0.00  0.00    +0.390 N 
ATOM      3  H   UNK     1       1.546   2.775   0.310  0.00  0.00    -0.088 HD
ATOM      4  H   UNK     1       2.037   1.855  -0.989  0.00  0.00    -0.088 HD
ATOM      5  H   UNK     1       2.795   1.688   0.485  0.00  0.00    -0.088 HD
ENDBRANCH   1   2
BRANCH   1   7
ATOM      6  O   UNK     1       1.768  -0.802  -1.222  0.00  0.00    -0.253 OA
ATOM      7  C   UNK     1       1.537  -0.499  -0.058  0.00  0.00    +0.295 C 
BRANCH   7   8
ATOM      8  O   UNK     1       1.767  -1.346   0.979  0.00  0.00    -0.482 OA
ATOM      9  H   UNK     1       1.576  -1.075   1.856  0.00  0.00    +0.295 HD
ENDBRANCH   7   8
ENDBRANCH   1   7
BRANCH   1  10
ATOM     10  C   UNK     1      -0.388   1.091  -0.291  0.00  0.00    +0.147 C 
BRANCH  10  11
ATOM     11  S   UNK     1      -1.591  -0.156   0.052  0.00  0.00    +0.021 S 
ATOM     12  O   UNK     1      -2.863   0.577  -0.660  0.00  0.00    -0.070 OA
ATOM     13  O   UNK     1      -1.822  -0.204   1.484  0.00  0.00    -0.070 OA
ATOM     14  O   UNK     1      -1.256  -1.348  -0.704  0.00  0.00    -0.070 OA
ENDBRANCH  10  11
ENDBRANCH   1  10
TORSDOF 5
