REMARK  Name = 46936829
REMARK  10 active torsions:
REMARK  status: ('A' for Active; 'I' for Inactive)
REMARK    1  A    between atoms: N_2  and  C_5
REMARK    2  A    between atoms: C_3  and  C_21
REMARK    3  A    between atoms: C_5  and  C_6
REMARK    4  A    between atoms: C_5  and  C_9
REMARK    5  A    between atoms: C_9  and  C_13
REMARK    6  A    between atoms: C_9  and  O_19
REMARK    7  A    between atoms: C_14  and  C_15
REMARK    8  A    between atoms: C_21  and  N_23
REMARK    9  A    between atoms: C_25  and  C_29
REMARK   10  A    between atoms: C_27  and  N_35
REMARK                            x       y       z     vdW  Elec       q    Type
REMARK                         _______ _______ _______ _____ _____    ______ ____
ROOT
ATOM      1  O   UNL     1      -0.326   0.665   1.074  0.00  0.00    -0.273 OA
ATOM      2  N   UNL     1       0.428   1.985  -0.683  0.00  0.00    -0.302 N 
ATOM      3  C   UNL     1      -0.360   1.005  -0.106  0.00  0.00    +0.243 C 
ATOM      4  H   UNL     1       0.315   2.175  -1.642  0.00  0.00    +0.150 HD
ENDROOT
BRANCH   2   5
ATOM      5  C   UNL     1       1.415   2.746   0.061  0.00  0.00    +0.107 C 
BRANCH   5   6
ATOM      6  C   UNL     1       1.038   4.252   0.076  0.00  0.00    +0.021 C 
ATOM      7  C   UNL     1       1.109   4.857  -1.332  0.00  0.00    +0.002 C 
ATOM      8  C   UNL     1      -0.339   4.530   0.687  0.00  0.00    +0.002 C 
ENDBRANCH   5   6
BRANCH   5   9
ATOM      9  C   UNL     1       2.828   2.442  -0.496  0.00  0.00    +0.206 C 
BRANCH   9  13
ATOM     10  O   UNL     1       3.075   0.274   0.615  0.00  0.00    -0.421 OA
ATOM     11  N   UNL     1       3.569   0.241  -1.567  0.00  0.00    -0.109 NA
ATOM     12  N   UNL     1       3.749  -1.036  -1.069  0.00  0.00    -0.112 NA
ATOM     13  C   UNL     1       3.175   0.971  -0.549  0.00  0.00    +0.254 A 
ATOM     14  C   UNL     1       3.449  -0.970   0.207  0.00  0.00    +0.225 A 
BRANCH  14  15
ATOM     15  C   UNL     1       3.460  -2.027   1.227  0.00  0.00    +0.070 C 
ATOM     16  C   UNL     1       4.417  -1.797   2.456  0.00  0.00    +0.009 C 
ATOM     17  C   UNL     1       2.043  -2.243   1.866  0.00  0.00    +0.009 C 
ATOM     18  C   UNL     1       3.903  -3.410   0.635  0.00  0.00    +0.009 C 
ENDBRANCH  14  15
ENDBRANCH   9  13
BRANCH   9  19
ATOM     19  O   UNL     1       3.809   3.066   0.340  0.00  0.00    -0.374 OA
ATOM     20  H   UNL     1       3.623   4.016   0.403  0.00  0.00    +0.211 HD
ENDBRANCH   9  19
ENDBRANCH   5   9
ENDBRANCH   2   5
BRANCH   3  21
ATOM     21  C   UNL     1      -1.334   0.422  -1.109  0.00  0.00    +0.185 C 
BRANCH  21  23
ATOM     22  O   UNL     1       0.485  -1.652  -1.588  0.00  0.00    -0.268 OA
ATOM     23  N   UNL     1      -1.600  -0.979  -0.776  0.00  0.00    -0.230 N 
ATOM     24  N   UNL     1      -3.097  -2.616   0.096  0.00  0.00    -0.227 NA
ATOM     25  C   UNL     1      -2.797  -1.381  -0.167  0.00  0.00    +0.138 C 
ATOM     26  C   UNL     1      -0.611  -1.917  -1.097  0.00  0.00    +0.269 C 
ATOM     27  C   UNL     1      -0.971  -3.335  -0.796  0.00  0.00    +0.116 C 
ATOM     28  C   UNL     1      -2.168  -3.558  -0.239  0.00  0.00    +0.119 C 
BRANCH  25  29
ATOM     29  C   UNL     1      -3.784  -0.350   0.206  0.00  0.00    +0.032 C 
ATOM     30  C   UNL     1      -3.731   0.242   1.468  0.00  0.00    +0.003 C 
ATOM     31  C   UNL     1      -4.769   0.034  -0.704  0.00  0.00    +0.003 C 
ATOM     32  C   UNL     1      -4.663   1.218   1.820  0.00  0.00    +0.000 C 
ATOM     33  C   UNL     1      -5.701   1.010  -0.352  0.00  0.00    +0.000 C 
ATOM     34  C   UNL     1      -5.648   1.602   0.910  0.00  0.00    +0.000 C 
ENDBRANCH  25  29
BRANCH  27  35
ATOM     35  N   UNL     1      -0.052  -4.290  -1.116  0.00  0.00    -0.352 N 
ATOM     36  H   UNL     1       0.805  -4.031  -1.524  0.00  0.00    +0.143 HD
ATOM     37  H   UNL     1      -0.246  -5.239  -0.938  0.00  0.00    +0.143 HD
ENDBRANCH  27  35
ENDBRANCH  21  23
ENDBRANCH   3  21
TORSDOF 10
