REMARK  Name = 4797
REMARK  6 active torsions:
REMARK  status: ('A' for Active; 'I' for Inactive)
REMARK    1  A    between atoms: O_1  and  P_2
REMARK    2  A    between atoms: O_1  and  C_8
REMARK    3  A    between atoms: P_2  and  O_4
REMARK    4  A    between atoms: P_2  and  O_6
REMARK    5  A    between atoms: C_8  and  C_11
REMARK    6  A    between atoms: N_10  and  O_13
REMARK                            x       y       z     vdW  Elec       q    Type
REMARK                         _______ _______ _______ _____ _____    ______ ____
ROOT
ATOM      1  O   UNL     1       0.670  -0.519   0.007  0.00  0.00    -0.263 OA
ENDROOT
BRANCH   1   2
ATOM      2  P   UNL     1       2.223  -0.054   0.006  0.00  0.00    +0.474 P 
ATOM      3  O   UNL     1       3.219  -1.176   0.024  0.00  0.00    -0.227 OA
BRANCH   2   4
ATOM      4  O   UNL     1       2.316   0.973   1.252  0.00  0.00    -0.303 OA
ATOM      5  H   UNL     1       1.638   1.660   1.156  0.00  0.00    +0.222 HD
ENDBRANCH   2   4
BRANCH   2   6
ATOM      6  O   UNL     1       2.312   0.918  -1.284  0.00  0.00    -0.303 OA
ATOM      7  H   UNL     1       1.637   1.611  -1.214  0.00  0.00    +0.222 HD
ENDBRANCH   2   6
ENDBRANCH   1   2
BRANCH   1   8
ATOM      8  C   UNL     1      -0.334   0.475  -0.009  0.00  0.00    +0.240 C 
BRANCH   8  11
ATOM      9  O   UNL     1      -1.865  -1.379   0.003  0.00  0.00    -0.270 OA
ATOM     10  N   UNL     1      -2.765   0.715  -0.003  0.00  0.00    -0.195 N 
ATOM     11  C   UNL     1      -1.711  -0.158  -0.006  0.00  0.00    +0.275 C 
ATOM     12  H   UNL     1      -2.609   1.687  -0.010  0.00  0.00    +0.182 HD
BRANCH  10  13
ATOM     13  O   UNL     1      -4.067   0.204   0.010  0.00  0.00    -0.295 OA
ATOM     14  H   UNL     1      -4.702   0.938   0.011  0.00  0.00    +0.241 HD
ENDBRANCH  10  13
ENDBRANCH   8  11
ENDBRANCH   1   8
TORSDOF 6
