REMARK  Name = 130336
REMARK  1 active torsions:
REMARK  status: ('A' for Active; 'I' for Inactive)
REMARK    1  A    between atoms: CA_3  and  C_9
REMARK                            x       y       z     vdW  Elec       q    Type
REMARK                         _______ _______ _______ _____ _____    ______ ____
ROOT
ATOM      1  O   UNL     1      -2.594   0.609  -0.376  0.00  0.00    -0.275 OA
ATOM      2  N   UNL     1      -0.473   0.863   0.585  0.00  0.00    -0.299 N 
ATOM      3  CA  UNL     1       0.730   0.091   0.710  0.00  0.00    +0.137 C 
ATOM      4  C   UNL     1       0.277  -1.332   0.442  0.00  0.00    +0.037 C 
ATOM      5  C   UNL     1      -0.947  -1.175  -0.460  0.00  0.00    +0.087 C 
ATOM      6  C   UNL     1      -1.484   0.186  -0.090  0.00  0.00    +0.223 C 
ATOM      7  H   UNL     1      -0.573   1.775   0.939  0.00  0.00    +0.150 HD
ENDROOT
BRANCH   3   9
ATOM      8  O   UNL     1       2.812   0.158  -0.484  0.00  0.00    -0.286 OA
ATOM      9  C   UNL     1       1.679   0.601  -0.327  0.00  0.00    +0.227 C 
ENDBRANCH   3   9
TORSDOF 1
