REMARK  Name = 439230
REMARK  7 active torsions:
REMARK  status: ('A' for Active; 'I' for Inactive)
REMARK    1  A    between atoms: C_1  and  O_3
REMARK    2  A    between atoms: C_1  and  C_5
REMARK    3  A    between atoms: C_1  and  C_9
REMARK    4  A    between atoms: C_5  and  C_6
REMARK    5  A    between atoms: C_6  and  O_7
REMARK    6  A    between atoms: C_9  and  C_11
REMARK    7  A    between atoms: C_11  and  O_12
REMARK                            x       y       z     vdW  Elec       q    Type
REMARK                         _______ _______ _______ _____ _____    ______ ____
ROOT
ATOM      1  C   UNL     1      -0.176   1.043  -0.045  0.00  0.00    +0.101 C 
ATOM      2  C   UNL     1      -0.926   2.058  -0.917  0.00  0.00    +0.030 C 
ENDROOT
BRANCH   1   3
ATOM      3  O   UNL     1       0.471   1.790   0.994  0.00  0.00    -0.386 OA
ATOM      4  H   UNL     1       0.960   1.183   1.572  0.00  0.00    +0.210 HD
ENDBRANCH   1   3
BRANCH   1   5
ATOM      5  C   UNL     1      -1.148   0.052   0.627  0.00  0.00    +0.059 C 
BRANCH   5   6
ATOM      6  C   UNL     1      -2.047  -0.733  -0.320  0.00  0.00    +0.140 C 
BRANCH   6   7
ATOM      7  O   UNL     1      -2.856  -1.615   0.451  0.00  0.00    -0.382 OA
ATOM      8  H   UNL     1      -3.434  -2.122  -0.140  0.00  0.00    +0.210 HD
ENDBRANCH   6   7
ENDBRANCH   5   6
ENDBRANCH   1   5
BRANCH   1   9
ATOM      9  C   UNL     1       0.922   0.368  -0.885  0.00  0.00    +0.136 C 
BRANCH   9  11
ATOM     10  O   UNL     1       2.434  -0.394   0.843  0.00  0.00    -0.250 OA
ATOM     11  C   UNL     1       1.730  -0.658  -0.123  0.00  0.00    +0.316 C 
BRANCH  11  12
ATOM     12  O   UNL     1       1.595  -1.911  -0.625  0.00  0.00    -0.480 OA
ATOM     13  H   UNL     1       1.043  -2.060  -1.368  0.00  0.00    +0.295 HD
ENDBRANCH  11  12
ENDBRANCH   9  11
ENDBRANCH   1   9
TORSDOF 7
