REMARK  Name = 151243
REMARK  5 active torsions:
REMARK  status: ('A' for Active; 'I' for Inactive)
REMARK    1  A    between atoms: C_1  and  C_4
REMARK    2  A    between atoms: C_1  and  N_7
REMARK    3  A    between atoms: C_1  and  C_11
REMARK    4  A    between atoms: C_11  and  C_12
REMARK    5  A    between atoms: C_17  and  O_18
REMARK                            x       y       z     vdW  Elec       q    Type
REMARK                         _______ _______ _______ _____ _____    ______ ____
ROOT
ATOM      1  C   UNL     1      -2.041  -0.671   0.335  0.00  0.00    +0.017 C 
ENDROOT
BRANCH   1   4
ATOM      2  O   UNL     1      -3.050   1.225  -0.795  0.00  0.00    -0.278 OA
ATOM      3  N   UNL     1      -2.265   1.523   1.343  0.00  0.00    -0.330 N 
ATOM      4  C   UNL     1      -2.514   0.772   0.215  0.00  0.00    +0.199 C 
ATOM      5  H   UNL     1      -2.531   2.471   1.372  0.00  0.00    +0.145 HD
ATOM      6  H   UNL     1      -1.821   1.112   2.119  0.00  0.00    +0.145 HD
ENDBRANCH   1   4
BRANCH   1   7
ATOM      7  N   UNL     1      -3.234  -1.512   0.229  0.00  0.00    +0.388 N 
ATOM      8  H   UNL     1      -2.966  -2.494   0.304  0.00  0.00    -0.089 HD
ATOM      9  H   UNL     1      -3.685  -1.351  -0.671  0.00  0.00    -0.089 HD
ATOM     10  H   UNL     1      -3.882  -1.279   0.981  0.00  0.00    -0.089 HD
ENDBRANCH   1   7
BRANCH   1  11
ATOM     11  C   UNL     1      -1.037  -1.017  -0.775  0.00  0.00    +0.013 C 
BRANCH  11  12
ATOM     12  C   UNL     1       0.369  -0.570  -0.455  0.00  0.00    -0.024 C 
ATOM     13  C   UNL     1       0.784   0.695  -0.839  0.00  0.00    -0.001 C 
ATOM     14  C   UNL     1       1.218  -1.433   0.218  0.00  0.00    -0.001 C 
ATOM     15  C   UNL     1       2.083   1.107  -0.543  0.00  0.00    +0.036 C 
ATOM     16  C   UNL     1       2.518  -1.021   0.514  0.00  0.00    +0.036 C 
ATOM     17  C   UNL     1       2.950   0.249   0.133  0.00  0.00    +0.134 C 
BRANCH  17  18
ATOM     18  O   UNL     1       4.217   0.653   0.422  0.00  0.00    -0.506 OA
ATOM     19  H   UNL     1       4.507   1.506   0.166  0.00  0.00    +0.292 HD
ENDBRANCH  17  18
ENDBRANCH  11  12
ENDBRANCH   1  11
TORSDOF 5
