REMARK  Name = 101544
REMARK  8 active torsions:
REMARK  status: ('A' for Active; 'I' for Inactive)
REMARK    1  A    between atoms: C_2  and  O_18
REMARK    2  A    between atoms: C_3  and  O_16
REMARK    3  A    between atoms: C_4  and  N_7
REMARK    4  A    between atoms: C_5  and  C_25
REMARK    5  A    between atoms: O_18  and  P_19
REMARK    6  A    between atoms: P_19  and  O_21
REMARK    7  A    between atoms: P_19  and  O_23
REMARK    8  A    between atoms: C_25  and  O_26
REMARK                            x       y       z     vdW  Elec       q    Type
REMARK                         _______ _______ _______ _____ _____    ______ ____
ROOT
ATOM      1  O   UNL     1       0.021  -1.893   0.989  0.00  0.00    -0.332 OA
ATOM      2  C   UNL     1      -1.073  -0.057  -0.035  0.00  0.00    +0.203 C 
ATOM      3  C   UNL     1      -2.083  -1.164   0.181  0.00  0.00    +0.172 C 
ATOM      4  C   UNL     1       0.042  -0.458   0.916  0.00  0.00    +0.237 C 
ATOM      5  C   UNL     1      -1.187  -2.381   0.366  0.00  0.00    +0.176 C 
ENDROOT
BRANCH   4   7
ATOM      6  O   UNL     1       1.329   1.934   1.663  0.00  0.00    -0.193 OA
ATOM      7  N   UNL     1       1.334  -0.033   0.457  0.00  0.00    -0.178 N 
ATOM      8  N   UNL     1       3.168   1.534   0.395  0.00  0.00    -0.306 NA
ATOM      9  N   UNL     1       5.049   1.119  -0.908  0.00  0.00    -0.332 N 
ATOM     10  C   UNL     1       2.026  -0.845  -0.428  0.00  0.00    +0.083 C 
ATOM     11  C   UNL     1       1.918   1.188   0.879  0.00  0.00    +0.276 C 
ATOM     12  C   UNL     1       3.229  -0.530  -0.906  0.00  0.00    +0.065 C 
ATOM     13  C   UNL     1       3.808   0.757  -0.439  0.00  0.00    +0.193 C 
ATOM     14  H   UNL     1       5.458   1.966  -0.616  0.00  0.00    +0.145 HD
ATOM     15  H   UNL     1       5.529   0.532  -1.536  0.00  0.00    +0.145 HD
ENDBRANCH   4   7
BRANCH   3  16
ATOM     16  O   UNL     1      -2.796  -0.953   1.399  0.00  0.00    -0.379 OA
ATOM     17  H   UNL     1      -3.375  -0.180   1.305  0.00  0.00    +0.211 HD
ENDBRANCH   3  16
BRANCH   2  18
ATOM     18  O   UNL     1      -1.604   1.219   0.259  0.00  0.00    -0.269 OA
BRANCH  18  19
ATOM     19  P   UNL     1      -2.892   1.734  -0.579  0.00  0.00    +0.473 P 
ATOM     20  O   UNL     1      -4.113   0.870  -0.456  0.00  0.00    -0.227 OA
BRANCH  19  21
ATOM     21  O   UNL     1      -2.324   1.917  -2.082  0.00  0.00    -0.303 OA
ATOM     22  H   UNL     1      -1.539   2.486  -2.064  0.00  0.00    +0.222 HD
ENDBRANCH  19  21
BRANCH  19  23
ATOM     23  O   UNL     1      -3.077   3.256  -0.064  0.00  0.00    -0.303 OA
ATOM     24  H   UNL     1      -2.244   3.740  -0.180  0.00  0.00    +0.222 HD
ENDBRANCH  19  23
ENDBRANCH  18  19
ENDBRANCH   2  18
BRANCH   5  25
ATOM     25  C   UNL     1      -0.807  -3.054  -0.946  0.00  0.00    +0.169 C 
BRANCH  25  26
ATOM     26  O   UNL     1       0.031  -4.161  -0.662  0.00  0.00    -0.379 OA
ATOM     27  H   UNL     1       0.280  -4.599  -1.491  0.00  0.00    +0.211 HD
ENDBRANCH  25  26
ENDBRANCH   5  25
TORSDOF 8
