REMARK  Name = 5288564
REMARK  6 active torsions:
REMARK  status: ('A' for Active; 'I' for Inactive)
REMARK    1  A    between atoms: C_1  and  O_7
REMARK    2  A    between atoms: C_2  and  O_9
REMARK    3  A    between atoms: C_3  and  O_11
REMARK    4  A    between atoms: C_4  and  O_13
REMARK    5  A    between atoms: C_5  and  C_15
REMARK    6  A    between atoms: C_15  and  O_16
REMARK                            x       y       z     vdW  Elec       q    Type
REMARK                         _______ _______ _______ _____ _____    ______ ____
ROOT
ATOM      1  C   UNL     1      -0.741   1.462   0.159  0.00  0.00    +0.171 C 
ATOM      2  C   UNL     1      -1.676   0.349  -0.331  0.00  0.00    +0.171 C 
ATOM      3  C   UNL     1       0.742   1.038   0.117  0.00  0.00    +0.160 C 
ATOM      4  C   UNL     1      -1.459  -0.951   0.457  0.00  0.00    +0.161 C 
ATOM      5  C   UNL     1       0.993  -0.413   0.472  0.00  0.00    +0.012 C 
ATOM      6  C   UNL     1      -0.008  -1.297   0.634  0.00  0.00    +0.001 C 
ENDROOT
BRANCH   1   7
ATOM      7  O   UNL     1      -1.100   1.841   1.486  0.00  0.00    -0.379 OA
ATOM      8  H   UNL     1      -2.033   2.106   1.506  0.00  0.00    +0.211 HD
ENDBRANCH   1   7
BRANCH   2   9
ATOM      9  O   UNL     1      -1.442   0.109  -1.719  0.00  0.00    -0.379 OA
ATOM     10  H   UNL     1      -1.579   0.930  -2.217  0.00  0.00    +0.211 HD
ENDBRANCH   2   9
BRANCH   3  11
ATOM     11  O   UNL     1       1.263   1.282  -1.191  0.00  0.00    -0.378 OA
ATOM     12  H   UNL     1       1.109   2.209  -1.432  0.00  0.00    +0.211 HD
ENDBRANCH   3  11
BRANCH   4  13
ATOM     13  O   UNL     1      -2.143  -2.013  -0.204  0.00  0.00    -0.378 OA
ATOM     14  H   UNL     1      -3.078  -1.777  -0.312  0.00  0.00    +0.211 HD
ENDBRANCH   4  13
BRANCH   5  15
ATOM     15  C   UNL     1       2.429  -0.814   0.660  0.00  0.00    +0.162 C 
BRANCH  15  16
ATOM     16  O   UNL     1       3.144  -0.593  -0.540  0.00  0.00    -0.377 OA
ATOM     17  H   UNL     1       4.070  -0.852  -0.417  0.00  0.00    +0.211 HD
ENDBRANCH  15  16
ENDBRANCH   5  15
TORSDOF 6
