REMARK  Name = 5462442
REMARK  0 active torsions:
REMARK  status: ('A' for Active; 'I' for Inactive)
REMARK                            x       y       z     vdW  Elec       q    Type
REMARK                         _______ _______ _______ _____ _____    ______ ____
ROOT
ATOM      1  O   UNL     1      -4.562  -0.252  -0.270  0.00  0.00    -0.270 OA
ATOM      2  N   UNL     1       1.243   1.556   1.479  0.00  0.00    +0.389 N 
ATOM      3  N   UNL     1      -2.387  -0.420  -1.024  0.00  0.00    -0.284 N 
ATOM      4  C   UNL     1       0.943   0.374   0.638  0.00  0.00    -0.021 C 
ATOM      5  C   UNL     1       1.749   0.458  -0.695  0.00  0.00    -0.009 C 
ATOM      6  C   UNL     1       1.349  -0.751  -1.567  0.00  0.00    +0.025 C 
ATOM      7  C   UNL     1       1.579   1.805  -1.419  0.00  0.00    -0.004 C 
ATOM      8  C   UNL     1       1.465  -0.889   1.403  0.00  0.00    +0.006 C 
ATOM      9  C   UNL     1      -0.564   0.179   0.368  0.00  0.00    -0.031 C 
ATOM     10  C   UNL     1      -0.139  -0.679  -1.965  0.00  0.00    +0.045 C 
ATOM     11  C   UNL     1       1.876   2.954  -0.465  0.00  0.00    -0.023 C 
ATOM     12  C   UNL     1      -1.031  -0.275  -0.816  0.00  0.00    +0.022 C 
ATOM     13  C   UNL     1       1.597  -2.043  -0.815  0.00  0.00    -0.035 C 
ATOM     14  C   UNL     1       1.030   2.834   0.797  0.00  0.00    -0.081 C 
ATOM     15  C   UNL     1       1.657  -2.114   0.528  0.00  0.00    -0.050 C 
ATOM     16  C   UNL     1      -1.525   0.468   1.422  0.00  0.00    -0.001 C 
ATOM     17  C   UNL     1       1.919  -3.404   1.245  0.00  0.00    +0.026 C 
ATOM     18  C   UNL     1      -2.844   0.335   1.236  0.00  0.00    +0.058 C 
ATOM     19  C   UNL     1      -3.355  -0.134  -0.079  0.00  0.00    +0.249 C 
ATOM     20  H   UNL     1       2.220   1.505   1.769  0.00  0.00    -0.084 HD
ATOM     21  H   UNL     1       0.600   1.529   2.270  0.00  0.00    -0.084 HD
ATOM     22  H   UNL     1      -2.685  -0.749  -1.903  0.00  0.00    +0.155 HD
ENDROOT
TORSDOF 0
