REMARK  Name = 444861
REMARK  13 active torsions:
REMARK  status: ('A' for Active; 'I' for Inactive)
REMARK    1  A    between atoms: C_2  and  C_10
REMARK    2  A    between atoms: C_3  and  C_22
REMARK    3  A    between atoms: C_4  and  O_8
REMARK    4  A    between atoms: C_10  and  N_11
REMARK    5  A    between atoms: N_11  and  CA_14
REMARK    6  A    between atoms: CA_14  and  C_16
REMARK    7  A    between atoms: CA_14  and  C_19
REMARK    8  A    between atoms: C_16  and  O_17
REMARK    9  A    between atoms: C_19  and  C_20
REMARK   10  A    between atoms: C_22  and  O_23
REMARK   11  A    between atoms: O_23  and  P_24
REMARK   12  A    between atoms: P_24  and  O_26
REMARK   13  A    between atoms: P_24  and  O_28
REMARK                            x       y       z     vdW  Elec       q    Type
REMARK                         _______ _______ _______ _____ _____    ______ ____
ROOT
ATOM      1  N   UNL     1      -2.198   3.181  -0.728  0.00  0.00    -0.245 NA
ATOM      2  C   UNL     1      -0.494   1.164   0.159  0.00  0.00    -0.009 C 
ATOM      3  C   UNL     1      -1.656   0.834  -0.519  0.00  0.00    +0.024 C 
ATOM      4  C   UNL     1      -0.173   2.490   0.399  0.00  0.00    +0.141 C 
ATOM      5  C   UNL     1      -1.054   3.455  -0.062  0.00  0.00    +0.092 C 
ATOM      6  C   UNL     1      -2.470   1.873  -0.940  0.00  0.00    +0.096 C 
ATOM      7  C   UNL     1      -0.765   4.903   0.166  0.00  0.00    +0.055 C 
ENDROOT
BRANCH   4   8
ATOM      8  O   UNL     1       0.961   2.834   1.063  0.00  0.00    -0.505 OA
ATOM      9  H   UNL     1       1.545   2.169   1.369  0.00  0.00    +0.292 HD
ENDBRANCH   4   8
BRANCH   2  10
ATOM     10  C   UNL     1       0.429   0.076   0.640  0.00  0.00    -0.051 C 
BRANCH  10  11
ATOM     11  N   UNL     1       1.431  -0.265  -0.359  0.00  0.00    +0.395 N 
ATOM     12  H1  UNL     1       0.963  -0.588  -1.205  0.00  0.00    -0.083 HD
ATOM     13  H2  UNL     1       1.990   0.565  -0.558  0.00  0.00    -0.083 HD
BRANCH  11  14
ATOM     14  CA  UNL     1       2.315  -1.320   0.134  0.00  0.00    +0.040 C 
BRANCH  14  16
ATOM     15  OXT UNL     1       3.328   0.333   1.627  0.00  0.00    -0.253 OA
ATOM     16  C   UNL     1       2.994  -0.820   1.393  0.00  0.00    +0.293 C 
BRANCH  16  17
ATOM     17  O   UNL     1       3.211  -1.847   2.256  0.00  0.00    -0.482 OA
ATOM     18  H   UNL     1       2.936  -2.714   2.031  0.00  0.00    +0.295 HD
ENDBRANCH  16  17
ENDBRANCH  14  16
BRANCH  14  19
ATOM     19  C   UNL     1       3.326  -1.752  -0.938  0.00  0.00    -0.010 C 
BRANCH  19  20
ATOM     20  C   UNL     1       4.239  -0.627  -1.441  0.00  0.00    -0.002 C 
ATOM     21  C   UNL     1       5.173  -1.123  -2.536  0.00  0.00    -0.000 C 
ENDBRANCH  19  20
ENDBRANCH  14  19
ENDBRANCH  11  14
ENDBRANCH  10  11
ENDBRANCH   2  10
BRANCH   3  22
ATOM     22  C   UNL     1      -2.042  -0.577  -0.801  0.00  0.00    +0.181 C 
BRANCH  22  23
ATOM     23  O   UNL     1      -2.831  -1.077   0.273  0.00  0.00    -0.268 OA
BRANCH  23  24
ATOM     24  P   UNL     1      -3.368  -2.598   0.186  0.00  0.00    +0.473 P 
ATOM     25  O   UNL     1      -4.191  -3.050   1.357  0.00  0.00    -0.227 OA
BRANCH  24  26
ATOM     26  O   UNL     1      -4.133  -2.625  -1.238  0.00  0.00    -0.303 OA
ATOM     27  H   UNL     1      -3.531  -2.320  -1.934  0.00  0.00    +0.222 HD
ENDBRANCH  24  26
BRANCH  24  28
ATOM     28  O   UNL     1      -2.031  -3.464  -0.094  0.00  0.00    -0.303 OA
ATOM     29  H   UNL     1      -1.566  -3.101  -0.864  0.00  0.00    +0.222 HD
ENDBRANCH  24  28
ENDBRANCH  23  24
ENDBRANCH  22  23
ENDBRANCH   3  22
TORSDOF 13
