REMARK  Name = 5289299
REMARK  7 active torsions:
REMARK  status: ('A' for Active; 'I' for Inactive)
REMARK    1  A    between atoms: C_2  and  C_10
REMARK    2  A    between atoms: C_3  and  O_6
REMARK    3  A    between atoms: C_4  and  O_8
REMARK    4  A    between atoms: C_10  and  O_11
REMARK    5  A    between atoms: O_11  and  P_12
REMARK    6  A    between atoms: P_12  and  O_14
REMARK    7  A    between atoms: P_12  and  O_16
REMARK                            x       y       z     vdW  Elec       q    Type
REMARK                         _______ _______ _______ _____ _____    ______ ____
ROOT
ATOM      1  O   UNL     1      -1.807  -1.481   0.223  0.00  0.00    -0.348 OA
ATOM      2  C   UNL     1      -0.928  -0.508  -0.370  0.00  0.00    +0.174 C 
ATOM      3  C   UNL     1      -1.502   0.858  -0.007  0.00  0.00    +0.169 C 
ATOM      4  C   UNL     1      -2.988   0.574   0.005  0.00  0.00    +0.169 C 
ATOM      5  C   UNL     1      -3.046  -0.836   0.568  0.00  0.00    +0.174 C 
ENDROOT
BRANCH   3   6
ATOM      6  O   UNL     1      -1.082   1.253   1.293  0.00  0.00    -0.379 OA
ATOM      7  H   UNL     1      -0.129   1.435   1.283  0.00  0.00    +0.211 HD
ENDBRANCH   3   6
BRANCH   4   8
ATOM      8  O   UNL     1      -3.477   0.580  -1.330  0.00  0.00    -0.379 OA
ATOM      9  H   UNL     1      -3.438   1.482  -1.685  0.00  0.00    +0.211 HD
ENDBRANCH   4   8
BRANCH   2  10
ATOM     10  C   UNL     1       0.493  -0.763   0.097  0.00  0.00    +0.186 C 
BRANCH  10  11
ATOM     11  O   UNL     1       1.351   0.200  -0.493  0.00  0.00    -0.271 OA
BRANCH  11  12
ATOM     12  P   UNL     1       2.931   0.140  -0.148  0.00  0.00    +0.473 P 
ATOM     13  O   UNL     1       3.766   1.194  -0.814  0.00  0.00    -0.227 OA
BRANCH  12  14
ATOM     14  O   UNL     1       3.341  -1.386  -0.492  0.00  0.00    -0.303 OA
ATOM     15  H   UNL     1       2.751  -1.994  -0.021  0.00  0.00    +0.222 HD
ENDBRANCH  12  14
BRANCH  12  16
ATOM     16  O   UNL     1       2.948   0.174   1.468  0.00  0.00    -0.303 OA
ATOM     17  H   UNL     1       2.386  -0.537   1.813  0.00  0.00    +0.222 HD
ENDBRANCH  12  16
ENDBRANCH  11  12
ENDBRANCH  10  11
ENDBRANCH   2  10
TORSDOF 7
