REMARK  Name = 446873
REMARK  7 active torsions:
REMARK  status: ('A' for Active; 'I' for Inactive)
REMARK    1  A    between atoms: CA_1  and  N_2
REMARK    2  A    between atoms: CA_1  and  C_7
REMARK    3  A    between atoms: CA_1  and  C_10
REMARK    4  A    between atoms: C_7  and  O_8
REMARK    5  A    between atoms: C_10  and  P_11
REMARK    6  A    between atoms: P_11  and  O_13
REMARK    7  A    between atoms: P_11  and  O_15
REMARK                            x       y       z     vdW  Elec       q    Type
REMARK                         _______ _______ _______ _____ _____    ______ ____
ROOT
ATOM      1  CA  UNL     1      -0.967   0.838   0.359  0.00  0.00    +0.048 C 
ENDROOT
BRANCH   1   2
ATOM      2  N   UNL     1      -1.956   1.851  -0.010  0.00  0.00    +0.389 N 
ATOM      3  H1  UNL     1      -1.610   2.774   0.250  0.00  0.00    -0.088 HD
ATOM      4  H2  UNL     1      -2.831   1.666   0.480  0.00  0.00    -0.088 HD
ATOM      5  H3  UNL     1      -2.116   1.818  -1.016  0.00  0.00    -0.088 HD
ENDBRANCH   1   2
BRANCH   1   7
ATOM      6  OXT UNL     1      -1.794  -0.849  -1.195  0.00  0.00    -0.253 OA
ATOM      7  C   UNL     1      -1.530  -0.510  -0.048  0.00  0.00    +0.294 C 
BRANCH   7   8
ATOM      8  O   UNL     1      -1.743  -1.321   1.022  0.00  0.00    -0.482 OA
ATOM      9  H   UNL     1      -1.528  -1.025   1.884  0.00  0.00    +0.295 HD
ENDBRANCH   7   8
ENDBRANCH   1   7
BRANCH   1  10
ATOM     10  C   UNL     1       0.346   1.108  -0.367  0.00  0.00    +0.105 C 
BRANCH  10  11
ATOM     11  P   UNL     1       1.613  -0.145  -0.044  0.00  0.00    +0.335 P 
ATOM     12  O   UNL     1       1.211  -1.515  -0.459  0.00  0.00    -0.258 OA
BRANCH  11  13
ATOM     13  O   UNL     1       1.916   0.069   1.521  0.00  0.00    -0.324 OA
ATOM     14  H   UNL     1       2.594  -0.562   1.808  0.00  0.00    +0.220 HD
ENDBRANCH  11  13
BRANCH  11  15
ATOM     15  O   UNL     1       2.903   0.475  -0.781  0.00  0.00    -0.324 OA
ATOM     16  H   UNL     1       3.657  -0.125  -0.671  0.00  0.00    +0.220 HD
ENDBRANCH  11  15
ENDBRANCH  10  11
ENDBRANCH   1  10
TORSDOF 7
