REMARK  Name = 12057
REMARK  2 active torsions:
REMARK  status: ('A' for Active; 'I' for Inactive)
REMARK    1  A    between atoms: C_1  and  S_7
REMARK    2  A    between atoms: S_7  and  O_9
REMARK                            x       y       z     vdW  Elec       q    Type
REMARK                         _______ _______ _______ _____ _____    ______ ____
ROOT
ATOM      1  C   UNL     1       0.239  -0.087  -0.220  0.00  0.00    +0.100 C 
ATOM      2  C   UNL     1      -0.318   1.150   0.102  0.00  0.00    +0.018 C 
ATOM      3  C   UNL     1      -0.582  -1.208  -0.354  0.00  0.00    +0.018 C 
ATOM      4  C   UNL     1      -1.695   1.268   0.289  0.00  0.00    +0.001 C 
ATOM      5  C   UNL     1      -1.959  -1.090  -0.166  0.00  0.00    +0.001 C 
ATOM      6  C   UNL     1      -2.516   0.148   0.155  0.00  0.00    +0.000 C 
ENDROOT
BRANCH   1   7
ATOM      7  S   UNL     1       2.009  -0.239  -0.460  0.00  0.00    -0.031 S 
ATOM      8  O   UNL     1       2.601   1.126  -0.249  0.00  0.00    -0.076 OA
BRANCH   7   9
ATOM      9  O   UNL     1       2.222  -1.069   0.902  0.00  0.00    -0.274 OA
ATOM     10  H   UNL     1       3.162  -1.285   1.006  0.00  0.00    +0.242 HD
ENDBRANCH   7   9
ENDBRANCH   1   7
TORSDOF 2
