REMARK  Name = 4468930
REMARK  6 active torsions:
REMARK  status: ('A' for Active; 'I' for Inactive)
REMARK    1  A    between atoms: N_1  and  C_3
REMARK    2  A    between atoms: N_1  and  C_6
REMARK    3  A    between atoms: N_1  and  C_9
REMARK    4  A    between atoms: C_3  and  O_4
REMARK    5  A    between atoms: C_6  and  O_7
REMARK    6  A    between atoms: C_9  and  O_10
REMARK                            x       y       z     vdW  Elec       q    Type
REMARK                         _______ _______ _______ _____ _____    ______ ____
ROOT
ATOM      1  N   UNL     1      -0.184  -0.198  -0.052  0.00  0.00    +0.441 N 
ATOM      2  C   UNL     1      -0.205  -0.257  -1.573  0.00  0.00    -0.085 C 
ENDROOT
BRANCH   1   3
ATOM      3  C   UNL     1       0.875  -1.173   0.488  0.00  0.00    +0.077 C 
BRANCH   3   4
ATOM      4  O   UNL     1       2.226  -0.949   0.104  0.00  0.00    -0.404 OA
ATOM      5  H   UNL     1       2.793  -1.626   0.506  0.00  0.00    +0.208 HD
ENDBRANCH   3   4
ENDBRANCH   1   3
BRANCH   1   6
ATOM      6  C   UNL     1      -1.562  -0.616   0.492  0.00  0.00    +0.077 C 
BRANCH   6   7
ATOM      7  O   UNL     1      -2.666   0.196   0.112  0.00  0.00    -0.404 OA
ATOM      8  H   UNL     1      -3.478  -0.157   0.508  0.00  0.00    +0.208 HD
ENDBRANCH   6   7
ENDBRANCH   1   6
BRANCH   1   9
ATOM      9  C   UNL     1       0.130   1.231   0.412  0.00  0.00    +0.077 C 
BRANCH   9  10
ATOM     10  O   UNL     1       1.387   1.766   0.017  0.00  0.00    -0.404 OA
ATOM     11  H   UNL     1       1.478   2.668   0.364  0.00  0.00    +0.208 HD
ENDBRANCH   9  10
ENDBRANCH   1   9
TORSDOF 6
