REMARK  Name = 123938
REMARK  11 active torsions:
REMARK  status: ('A' for Active; 'I' for Inactive)
REMARK    1  A    between atoms: N_2  and  C_16
REMARK    2  A    between atoms: C_3  and  C_5
REMARK    3  A    between atoms: C_5  and  C_6
REMARK    4  A    between atoms: C_6  and  C_7
REMARK    5  A    between atoms: C_7  and  N_8
REMARK    6  A    between atoms: C_7  and  C_13
REMARK    7  A    between atoms: C_13  and  O_14
REMARK    8  A    between atoms: C_16  and  C_18
REMARK    9  A    between atoms: C_16  and  C_21
REMARK   10  A    between atoms: C_18  and  O_19
REMARK   11  A    between atoms: C_21  and  S_22
REMARK                            x       y       z     vdW  Elec       q    Type
REMARK                         _______ _______ _______ _____ _____    ______ ____
ROOT
ATOM      1  O   UNK     1      -0.309   1.677  -1.188  0.00  0.00    -0.275 OA
ATOM      2  N   UNK     1      -1.392   0.100   0.130  0.00  0.00    -0.296 N 
ATOM      3  C   UNK     1      -0.282   0.782  -0.347  0.00  0.00    +0.223 C 
ATOM      4  H   UNK     1      -1.258  -0.603   0.806  0.00  0.00    +0.150 HD
ENDROOT
BRANCH   3   5
ATOM      5  C   UNK     1       1.000   0.280   0.294  0.00  0.00    +0.083 C 
BRANCH   5   6
ATOM      6  C   UNK     1       2.238   1.020  -0.218  0.00  0.00    -0.001 C 
BRANCH   6   7
ATOM      7  C   UNK     1       3.529   0.572   0.476  0.00  0.00    +0.036 C 
BRANCH   7   8
ATOM      8  N   UNK     1       4.663   1.323  -0.068  0.00  0.00    +0.389 N 
ATOM      9  H   UNK     1       4.515   2.321   0.085  0.00  0.00    -0.088 HD
ATOM     10  H   UNK     1       4.743   1.141  -1.069  0.00  0.00    -0.088 HD
ATOM     11  H   UNK     1       5.521   1.031   0.400  0.00  0.00    -0.088 HD
ENDBRANCH   7   8
BRANCH   7  13
ATOM     12  O   UNK     1       4.415  -1.334  -0.758  0.00  0.00    -0.253 OA
ATOM     13  C   UNK     1       3.814  -0.896   0.215  0.00  0.00    +0.293 C 
BRANCH  13  14
ATOM     14  O   UNK     1       3.300  -1.700   1.182  0.00  0.00    -0.482 OA
ATOM     15  H   UNK     1       2.846  -1.325   1.911  0.00  0.00    +0.295 HD
ENDBRANCH  13  14
ENDBRANCH   7  13
ENDBRANCH   6   7
ENDBRANCH   5   6
ENDBRANCH   3   5
BRANCH   2  16
ATOM     16  C   UNK     1      -2.735   0.376  -0.323  0.00  0.00    +0.182 C 
BRANCH  16  18
ATOM     17  O   UNK     1      -4.941   0.501   0.677  0.00  0.00    -0.248 OA
ATOM     18  C   UNK     1      -3.754   0.221   0.794  0.00  0.00    +0.333 C 
BRANCH  18  19
ATOM     19  O   UNK     1      -3.217  -0.245   1.947  0.00  0.00    -0.479 OA
ATOM     20  H   UNK     1      -2.303  -0.446   1.991  0.00  0.00    +0.295 HD
ENDBRANCH  18  19
ENDBRANCH  16  18
BRANCH  16  21
ATOM     21  C   UNK     1      -3.102  -0.443  -1.563  0.00  0.00    +0.084 C 
BRANCH  21  22
ATOM     22  S   UNK     1      -3.228  -2.235  -1.249  0.00  0.00    -0.166 S 
ATOM     23  H   UNK     1      -3.556  -2.876  -2.403  0.00  0.00    +0.102 HD
ENDBRANCH  21  22
ENDBRANCH  16  21
ENDBRANCH   2  16
TORSDOF 11
