REMARK  Name = 449137
REMARK  3 active torsions:
REMARK  status: ('A' for Active; 'I' for Inactive)
REMARK    1  A    between atoms: C_2  and  C_4
REMARK    2  A    between atoms: C_2  and  C_14
REMARK    3  A    between atoms: C_13  and  C_15
REMARK                            x       y       z     vdW  Elec       q    Type
REMARK                         _______ _______ _______ _____ _____    ______ ____
ROOT
ATOM      1  O   UNL     1      -1.416  -1.810  -0.089  0.00  0.00    -0.289 OA
ATOM      2  C   UNL     1      -1.327  -0.613  -0.351  0.00  0.00    +0.208 C 
ENDROOT
BRANCH   2   4
ATOM      3  N   UNL     1      -3.705  -0.696  -0.658  0.00  0.00    +0.390 N 
ATOM      4  C   UNL     1      -2.541   0.188  -0.709  0.00  0.00    +0.007 C 
ATOM      5  C   UNL     1      -2.814   1.287   0.313  0.00  0.00    -0.016 C 
ATOM      6  C   UNL     1      -4.097   0.865   1.020  0.00  0.00    -0.025 C 
ATOM      7  C   UNL     1      -4.237  -0.609   0.698  0.00  0.00    -0.081 C 
ATOM      8  H   UNL     1      -3.428  -1.655  -0.867  0.00  0.00    -0.084 HD
ATOM      9  H   UNL     1      -4.406  -0.420  -1.346  0.00  0.00    -0.084 HD
ENDBRANCH   2   4
BRANCH   2  14
ATOM     10  O   UNL     1       1.054  -0.681   0.002  0.00  0.00    -0.417 OA
ATOM     11  N   UNL     1       1.540   1.460  -0.423  0.00  0.00    -0.111 NA
ATOM     12  N   UNL     1       0.177   1.293  -0.578  0.00  0.00    -0.104 NA
ATOM     13  C   UNL     1       2.011   0.283  -0.084  0.00  0.00    +0.226 A 
ATOM     14  C   UNL     1       0.002   0.061  -0.318  0.00  0.00    +0.283 A 
BRANCH  13  15
ATOM     15  C   UNL     1       3.390  -0.126   0.206  0.00  0.00    +0.070 C 
ATOM     16  C   UNL     1       3.900  -1.260  -0.758  0.00  0.00    +0.009 C 
ATOM     17  C   UNL     1       3.650  -0.704   1.651  0.00  0.00    +0.009 C 
ATOM     18  C   UNL     1       4.412   1.062   0.077  0.00  0.00    +0.009 C 
ENDBRANCH  13  15
ENDBRANCH   2  14
TORSDOF 3
