REMARK  Name = 446000
REMARK  6 active torsions:
REMARK  status: ('A' for Active; 'I' for Inactive)
REMARK    1  A    between atoms: C_2  and  S_7
REMARK    2  A    between atoms: C_3  and  O_9
REMARK    3  A    between atoms: C_4  and  C_15
REMARK    4  A    between atoms: C_5  and  O_11
REMARK    5  A    between atoms: C_6  and  O_13
REMARK    6  A    between atoms: C_15  and  O_16
REMARK                            x       y       z     vdW  Elec       q    Type
REMARK                         _______ _______ _______ _____ _____    ______ ____
ROOT
ATOM      1  O   UNL     1       0.844   0.673  -0.804  0.00  0.00    -0.328 OA
ATOM      2  C   UNL     1      -0.040  -1.485  -0.066  0.00  0.00    +0.103 C 
ATOM      3  C   UNL     1      -1.406  -0.836   0.208  0.00  0.00    +0.154 C 
ATOM      4  C   UNL     1       1.105  -0.460   0.040  0.00  0.00    +0.159 C 
ATOM      5  C   UNL     1      -1.564   0.440  -0.620  0.00  0.00    +0.195 C 
ATOM      6  C   UNL     1      -0.358   1.367  -0.471  0.00  0.00    +0.266 C 
ENDROOT
BRANCH   2   7
ATOM      7  S   UNL     1       0.205  -2.891   1.086  0.00  0.00    -0.164 S 
ATOM      8  H   UNL     1      -0.827  -3.767   0.957  0.00  0.00    +0.102 HD
ENDBRANCH   2   7
BRANCH   3   9
ATOM      9  O   UNL     1      -2.455  -1.729  -0.173  0.00  0.00    -0.381 OA
ATOM     10  H   UNL     1      -2.381  -2.551   0.337  0.00  0.00    +0.210 HD
ENDBRANCH   3   9
BRANCH   5  11
ATOM     11  O   UNL     1      -2.754   1.116  -0.225  0.00  0.00    -0.378 OA
ATOM     12  H   UNL     1      -3.512   0.519  -0.324  0.00  0.00    +0.211 HD
ENDBRANCH   5  11
BRANCH   6  13
ATOM     13  O   UNL     1      -0.292   1.983   0.813  0.00  0.00    -0.326 OA
ATOM     14  C   UNL     1       0.837   2.837   0.919  0.00  0.00    +0.177 C 
ENDBRANCH   6  13
BRANCH   4  15
ATOM     15  C   UNL     1       2.453  -1.018  -0.416  0.00  0.00    +0.168 C 
BRANCH  15  16
ATOM     16  O   UNL     1       3.426   0.002  -0.290  0.00  0.00    -0.379 OA
ATOM     17  H   UNL     1       4.288  -0.338  -0.576  0.00  0.00    +0.211 HD
ENDBRANCH  15  16
ENDBRANCH   4  15
TORSDOF 6
