REMARK  Name = 6093202
REMARK  9 active torsions:
REMARK  status: ('A' for Active; 'I' for Inactive)
REMARK    1  A    between atoms: C_2  and  O_17
REMARK    2  A    between atoms: C_3  and  O_19
REMARK    3  A    between atoms: C_4  and  C_21
REMARK    4  A    between atoms: C_5  and  N_6
REMARK    5  A    between atoms: C_9  and  C_14
REMARK    6  A    between atoms: C_21  and  O_22
REMARK    7  A    between atoms: O_22  and  P_23
REMARK    8  A    between atoms: P_23  and  O_25
REMARK    9  A    between atoms: P_23  and  O_27
REMARK                            x       y       z     vdW  Elec       q    Type
REMARK                         _______ _______ _______ _____ _____    ______ ____
ROOT
ATOM      1  O   UNL     1      -0.595   0.384   0.558  0.00  0.00    -0.333 OA
ATOM      2  C   UNL     1      -1.146   2.233  -0.804  0.00  0.00    +0.171 C 
ATOM      3  C   UNL     1       0.335   2.309  -0.504  0.00  0.00    +0.187 C 
ATOM      4  C   UNL     1      -1.436   0.763  -0.544  0.00  0.00    +0.176 C 
ATOM      5  C   UNL     1       0.459   1.358   0.676  0.00  0.00    +0.223 C 
ENDROOT
BRANCH   5   6
ATOM      6  N   UNL     1       1.800   0.721   0.685  0.00  0.00    -0.279 N 
ATOM      7  C   UNL     1       1.994  -0.412  -0.015  0.00  0.00    +0.124 C 
ATOM      8  C   UNL     1       2.792   1.290   1.393  0.00  0.00    +0.063 C 
ATOM      9  C   UNL     1       3.237  -1.029  -0.025  0.00  0.00    +0.051 C 
ATOM     10  C   UNL     1       4.056   0.717   1.419  0.00  0.00    +0.016 C 
ATOM     11  C   UNL     1       4.276  -0.455   0.702  0.00  0.00    +0.003 C 
BRANCH   9  14
ATOM     12  O   UNL     1       4.550  -2.828  -0.790  0.00  0.00    -0.271 OA
ATOM     13  N   UNL     1       2.366  -2.773  -1.486  0.00  0.00    -0.326 N 
ATOM     14  C   UNL     1       3.447  -2.251  -0.781  0.00  0.00    +0.240 C 
ATOM     15  H   UNL     1       2.472  -3.600  -2.009  0.00  0.00    +0.145 HD
ATOM     16  H   UNL     1       1.495  -2.315  -1.461  0.00  0.00    +0.145 HD
ENDBRANCH   9  14
ENDBRANCH   5   6
BRANCH   2  17
ATOM     17  O   UNL     1      -1.410   2.596  -2.146  0.00  0.00    -0.379 OA
ATOM     18  H   UNL     1      -1.213   3.537  -2.271  0.00  0.00    +0.211 HD
ENDBRANCH   2  17
BRANCH   3  19
ATOM     19  O   UNL     1       0.726   3.619  -0.137  0.00  0.00    -0.378 OA
ATOM     20  H   UNL     1       0.640   4.209  -0.902  0.00  0.00    +0.211 HD
ENDBRANCH   3  19
BRANCH   4  21
ATOM     21  C   UNL     1      -2.887   0.488  -0.193  0.00  0.00    +0.186 C 
BRANCH  21  22
ATOM     22  O   UNL     1      -3.051  -0.905   0.019  0.00  0.00    -0.271 OA
BRANCH  22  23
ATOM     23  P   UNL     1      -4.521  -1.457   0.409  0.00  0.00    +0.473 P 
ATOM     24  O   UNL     1      -4.607  -2.941   0.615  0.00  0.00    -0.227 OA
BRANCH  23  25
ATOM     25  O   UNL     1      -5.476  -0.864  -0.753  0.00  0.00    -0.303 OA
ATOM     26  H   UNL     1      -5.354   0.097  -0.814  0.00  0.00    +0.222 HD
ENDBRANCH  23  25
BRANCH  23  27
ATOM     27  O   UNL     1      -4.910  -0.565   1.701  0.00  0.00    -0.303 OA
ATOM     28  H   UNL     1      -4.827   0.376   1.480  0.00  0.00    +0.222 HD
ENDBRANCH  23  27
ENDBRANCH  22  23
ENDBRANCH  21  22
ENDBRANCH   4  21
TORSDOF 9
