REMARK  Name = 795
REMARK  0 active torsions:
REMARK  status: ('A' for Active; 'I' for Inactive)
REMARK                            x       y       z     vdW  Elec       q    Type
REMARK                         _______ _______ _______ _____ _____    ______ ____
ROOT
ATOM      1  N   UNL     1       0.745  -0.887   0.000  0.00  0.00    -0.314 N 
ATOM      2  N   UNL     1      -1.152   0.268   0.000  0.00  0.00    -0.314 N 
ATOM      3  C   UNL     1       1.108   0.431   0.000  0.00  0.00    +0.075 C 
ATOM      4  C   UNL     1      -0.621  -0.935   0.000  0.00  0.00    +0.182 C 
ATOM      5  C   UNL     1      -0.080   1.123   0.000  0.00  0.00    +0.075 C 
ATOM      6  H   UNL     1       1.355  -1.659   0.000  0.00  0.00    +0.148 HD
ATOM      7  H   UNL     1      -2.109   0.502   0.001  0.00  0.00    +0.148 HD
ENDROOT
TORSDOF 0
