REMARK  Name = 448889
REMARK  5 active torsions:
REMARK  status: ('A' for Active; 'I' for Inactive)
REMARK    1  A    between atoms: C_1  and  N_2
REMARK    2  A    between atoms: C_1  and  C_16
REMARK    3  A    between atoms: C_6  and  C_10
REMARK    4  A    between atoms: C_16  and  C_17
REMARK    5  A    between atoms: C_17  and  C_21
REMARK                            x       y       z     vdW  Elec       q    Type
REMARK                         _______ _______ _______ _____ _____    ______ ____
ROOT
ATOM      1  C   UNL     1       0.079  -3.169   0.740  0.00  0.00    -0.076 C 
ENDROOT
BRANCH   1   2
ATOM      2  N   UNL     1       1.148  -2.269   0.314  0.00  0.00    +0.390 N 
ATOM      3  C   UNL     1       2.415  -2.990   0.157  0.00  0.00    -0.072 C 
ATOM      4  C   UNL     1       3.474  -2.057  -0.450  0.00  0.00    +0.003 C 
ATOM      5  C   UNL     1       1.299  -1.154   1.262  0.00  0.00    -0.051 C 
ATOM      6  C   UNL     1       3.543  -0.713   0.240  0.00  0.00    -0.031 C 
ATOM      7  C   UNL     1       2.527  -0.315   1.030  0.00  0.00    -0.053 C 
ATOM      8  H   UNL     1       0.890  -1.885  -0.595  0.00  0.00    -0.079 HD
BRANCH   6  10
ATOM      9  F   UNL     1       8.073   2.492  -0.616  0.00  0.00    -0.204 F 
ATOM     10  C   UNL     1       4.739   0.133   0.015  0.00  0.00    -0.004 C 
ATOM     11  C   UNL     1       5.172   1.014   1.008  0.00  0.00    +0.002 C 
ATOM     12  C   UNL     1       5.437   0.051  -1.192  0.00  0.00    +0.002 C 
ATOM     13  C   UNL     1       6.298   1.810   0.796  0.00  0.00    +0.030 C 
ATOM     14  C   UNL     1       6.563   0.847  -1.404  0.00  0.00    +0.030 C 
ATOM     15  C   UNL     1       6.993   1.727  -0.411  0.00  0.00    +0.140 C 
ENDBRANCH   6  10
ENDBRANCH   1   2
BRANCH   1  16
ATOM     16  C   UNL     1      -1.256  -2.421   0.784  0.00  0.00    -0.014 C 
BRANCH  16  17
ATOM     17  C   UNL     1      -1.647  -1.846  -0.568  0.00  0.00    +0.074 C 
BRANCH  17  21
ATOM     18  O   UNL     1      -6.334  -1.556  -0.709  0.00  0.00    -0.209 OA
ATOM     19  N   UNL     1      -2.810   0.277  -0.166  0.00  0.00    -0.290 N 
ATOM     20  N   UNL     1      -4.048  -1.704  -0.642  0.00  0.00    -0.322 NA
ATOM     21  C   UNL     1      -2.931  -1.062  -0.456  0.00  0.00    +0.173 C 
ATOM     22  C   UNL     1      -3.965   1.053  -0.050  0.00  0.00    +0.058 C 
ATOM     23  C   UNL     1      -5.213   0.442  -0.233  0.00  0.00    +0.108 C 
ATOM     24  C   UNL     1      -3.908   2.418   0.245  0.00  0.00    -0.008 C 
ATOM     25  C   UNL     1      -5.245  -1.016  -0.545  0.00  0.00    +0.207 C 
ATOM     26  C   UNL     1      -6.393   1.183  -0.124  0.00  0.00    +0.014 C 
ATOM     27  C   UNL     1      -5.085   3.161   0.354  0.00  0.00    -0.003 C 
ATOM     28  C   UNL     1      -6.323   2.545   0.169  0.00  0.00    +0.001 C 
ATOM     29  C   UNL     1      -2.604   3.118   0.450  0.00  0.00    +0.032 C 
ATOM     30  H   UNL     1      -1.922   0.682  -0.042  0.00  0.00    +0.154 HD
ENDBRANCH  17  21
ENDBRANCH  16  17
ENDBRANCH   1  16
TORSDOF 5
