REMARK  Name = 304271
REMARK  2 active torsions:
REMARK  status: ('A' for Active; 'I' for Inactive)
REMARK    1  A    between atoms: C_3  and  C_7
REMARK    2  A    between atoms: C_7  and  O_8
REMARK                            x       y       z     vdW  Elec       q    Type
REMARK                         _______ _______ _______ _____ _____    ______ ____
ROOT
ATOM      1  S   UNK     1       2.407   0.743   0.000  0.00  0.00    -0.108 S 
ATOM      2  N   UNK     1       0.638  -1.142   0.000  0.00  0.00    -0.255 NA
ATOM      3  C   UNK     1      -0.036   0.064   0.001  0.00  0.00    +0.141 C 
ATOM      4  C   UNK     1       0.753   1.195   0.000  0.00  0.00    +0.111 C 
ATOM      5  C   UNK     1       1.931  -0.905  -0.001  0.00  0.00    +0.183 C 
ENDROOT
BRANCH   3   7
ATOM      6  O   UNK     1      -2.187   1.111   0.000  0.00  0.00    -0.244 OA
ATOM      7  C   UNK     1      -1.472   0.091   0.000  0.00  0.00    +0.352 C 
BRANCH   7   8
ATOM      8  O   UNK     1      -2.034  -1.157   0.000  0.00  0.00    -0.476 OA
ATOM      9  H   UNK     1      -1.487  -1.918   0.001  0.00  0.00    +0.295 HD
ENDBRANCH   7   8
ENDBRANCH   3   7
TORSDOF 2
