REMARK  Name = 446725
REMARK  5 active torsions:
REMARK  status: ('A' for Active; 'I' for Inactive)
REMARK    1  A    between atoms: N_3  and  C1*_17
REMARK    2  A    between atoms: C_7  and  C_12
REMARK    3  A    between atoms: C3*_18  and  O3*_21
REMARK    4  A    between atoms: C4*_20  and  C5*_23
REMARK    5  A    between atoms: C5*_23  and  O5*_24
REMARK                            x       y       z     vdW  Elec       q    Type
REMARK                         _______ _______ _______ _____ _____    ______ ____
ROOT
ATOM      1  O   UNL     1       2.295  -3.177  -0.021  0.00  0.00    -0.252 OA
ATOM      2  O   UNL     1      -2.298  -2.988  -0.056  0.00  0.00    -0.270 OA
ATOM      3  N   UNL     1       1.271  -1.087   0.129  0.00  0.00    -0.219 N 
ATOM      4  N   UNL     1       0.004  -3.065  -0.021  0.00  0.00    -0.236 N 
ATOM      5  C   UNL     1       0.095  -0.365   0.180  0.00  0.00    +0.076 C 
ATOM      6  C   UNL     1       1.276  -2.484   0.027  0.00  0.00    +0.315 C 
ATOM      7  C   UNL     1      -1.121  -0.926   0.131  0.00  0.00    +0.075 C 
ATOM      8  C   UNL     1      -1.217  -2.408   0.013  0.00  0.00    +0.254 C 
ATOM      9  H   UNL     1      -0.027  -4.047  -0.088  0.00  0.00    +0.159 HD
ENDROOT
BRANCH   7  12
ATOM     10 BR   UNL     1      -5.612   2.294  -1.235  0.00  0.00    -0.042 Br
ATOM     11  S   UNL     1      -2.993   0.484  -1.253  0.00  0.00    -0.080 S 
ATOM     12  C   UNL     1      -2.297  -0.118   0.196  0.00  0.00    +0.036 C 
ATOM     13  C   UNL     1      -3.014   0.284   1.308  0.00  0.00    +0.008 C 
ATOM     14  C   UNL     1      -4.138   1.090   0.966  0.00  0.00    +0.014 C 
ATOM     15  C   UNL     1      -4.245   1.278  -0.394  0.00  0.00    +0.064 C 
ENDBRANCH   7  12
BRANCH   3  17
ATOM     16  O4* UNL     1       2.329   0.803   1.014  0.00  0.00    -0.335 OA
ATOM     17  C1* UNL     1       2.504  -0.358   0.190  0.00  0.00    +0.202 C 
ATOM     18  C3* UNL     1       3.666   1.423  -0.843  0.00  0.00    +0.144 C 
ATOM     19  C2* UNL     1       2.972   0.122  -1.175  0.00  0.00    +0.083 C 
ATOM     20  C4* UNL     1       2.856   1.956   0.330  0.00  0.00    +0.173 C 
BRANCH  18  21
ATOM     21  O3* UNL     1       5.005   1.161  -0.429  0.00  0.00    -0.382 OA
ATOM     22  H3* UNL     1       5.516   0.822  -1.181  0.00  0.00    +0.210 HD
ENDBRANCH  18  21
BRANCH  20  23
ATOM     23  C5* UNL     1       1.679   2.820  -0.106  0.00  0.00    +0.169 C 
BRANCH  23  24
ATOM     24  O5* UNL     1       0.982   3.260   1.048  0.00  0.00    -0.379 OA
ATOM     25  H5* UNL     1       0.230   3.811   0.781  0.00  0.00    +0.211 HD
ENDBRANCH  23  24
ENDBRANCH  20  23
ENDBRANCH   3  17
TORSDOF 5
