REMARK  Name = 79034
REMARK  12 active torsions:
REMARK  status: ('A' for Active; 'I' for Inactive)
REMARK    1  A    between atoms: C_1  and  C_2
REMARK    2  A    between atoms: C_1  and  C_10
REMARK    3  A    between atoms: C_2  and  C_3
REMARK    4  A    between atoms: C_3  and  C_4
REMARK    5  A    between atoms: C_4  and  C_5
REMARK    6  A    between atoms: C_5  and  C_6
REMARK    7  A    between atoms: C_6  and  C_7
REMARK    8  A    between atoms: C_7  and  O_8
REMARK    9  A    between atoms: C_11  and  C_12
REMARK   10  A    between atoms: C_12  and  C_13
REMARK   11  A    between atoms: C_13  and  C_15
REMARK   12  A    between atoms: C_15  and  O_16
REMARK                            x       y       z     vdW  Elec       q    Type
REMARK                         _______ _______ _______ _____ _____    ______ ____
ROOT
ATOM      1  C   UNL     1      -0.127   0.527  -0.043  0.00  0.00    +0.026 C 
ENDROOT
BRANCH   1   2
ATOM      2  C   UNL     1      -1.438  -0.264  -0.005  0.00  0.00    -0.031 C 
ATOM      3  C   UNL     1      -2.718   0.573   0.083  0.00  0.00    -0.030 C 
BRANCH   3   4
ATOM      4  C   UNL     1      -4.033  -0.214   0.051  0.00  0.00    +0.037 C 
BRANCH   4   5
ATOM      5  C   UNL     1      -5.295   0.644   0.064  0.00  0.00    +0.114 C 
BRANCH   5   7
ATOM      6  O   UNL     1      -6.588  -1.401   0.001  0.00  0.00    -0.250 OA
ATOM      7  C   UNL     1      -6.553  -0.179  -0.005  0.00  0.00    +0.314 C 
BRANCH   7   8
ATOM      8  O   UNL     1      -7.653   0.611  -0.074  0.00  0.00    -0.480 OA
ATOM      9  H   UNL     1      -7.560   1.544  -0.075  0.00  0.00    +0.295 HD
ENDBRANCH   7   8
ENDBRANCH   5   7
ENDBRANCH   4   5
ENDBRANCH   3   4
ENDBRANCH   1   2
BRANCH   1  10
ATOM     10  C   UNL     1       1.119  -0.361  -0.044  0.00  0.00    +0.005 C 
BRANCH  10  11
ATOM     11  C   UNL     1       2.398   0.480  -0.059  0.00  0.00    +0.000 C 
BRANCH  11  12
ATOM     12  C   UNL     1       3.646  -0.406  -0.027  0.00  0.00    +0.000 C 
BRANCH  12  13
ATOM     13  C   UNL     1       4.923   0.438  -0.006  0.00  0.00    +0.003 C 
BRANCH  13  14
ATOM     14  C   UNL     1       6.205  -0.402   0.017  0.00  0.00    +0.032 C 
BRANCH  14  15
ATOM     15  C   UNL     1       7.495   0.411   0.024  0.00  0.00    +0.137 C 
BRANCH  15  16
ATOM     16  O   UNL     1       8.618  -0.458   0.022  0.00  0.00    -0.382 OA
ATOM     17  H   UNL     1       9.433   0.068   0.027  0.00  0.00    +0.210 HD
ENDBRANCH  15  16
ENDBRANCH  14  15
ENDBRANCH  13  14
ENDBRANCH  12  13
ENDBRANCH  11  12
ENDBRANCH  10  11
ENDBRANCH   1  10
TORSDOF 12
