REMARK  Name = 447478
REMARK  5 active torsions:
REMARK  status: ('A' for Active; 'I' for Inactive)
REMARK    1  A    between atoms: C_2  and  C_19
REMARK    2  A    between atoms: C_8  and  C_13
REMARK    3  A    between atoms: C_17  and  O_25
REMARK    4  A    between atoms: C_18  and  O_23
REMARK    5  A    between atoms: O_25  and  C_26
REMARK                            x       y       z     vdW  Elec       q    Type
REMARK                         _______ _______ _______ _____ _____    ______ ____
ROOT
ATOM      1  N   UNL     1       1.034  -0.550   0.368  0.00  0.00    -0.312 N 
ATOM      2  C   UNL     1       0.674   0.735   0.062  0.00  0.00    +0.051 C 
ATOM      3  C   UNL     1       2.922   0.546  -0.089  0.00  0.00    +0.015 C 
ATOM      4  C   UNL     1       2.400  -0.694   0.283  0.00  0.00    +0.048 C 
ATOM      5  C   UNL     1       1.822   1.438  -0.225  0.00  0.00    +0.016 C 
ATOM      6  C   UNL     1       4.316   0.676  -0.249  0.00  0.00    +0.004 C 
ATOM      7  C   UNL     1       3.206  -1.816   0.506  0.00  0.00    +0.015 C 
ATOM      8  C   UNL     1       5.134  -0.438  -0.029  0.00  0.00    +0.031 C 
ATOM      9  C   UNL     1       4.586  -1.664   0.342  0.00  0.00    +0.004 C 
ATOM     10  H   UNL     1       0.405  -1.268   0.612  0.00  0.00    +0.152 HD
ENDROOT
BRANCH   8  13
ATOM     11  N   UNL     1       7.425  -1.397   0.017  0.00  0.00    -0.343 N 
ATOM     12  N   UNL     1       7.098   0.849  -0.540  0.00  0.00    -0.285 NA
ATOM     13  C   UNL     1       6.575  -0.313  -0.192  0.00  0.00    +0.117 C 
ATOM     14  H   UNL     1       8.397  -1.290  -0.098  0.00  0.00    +0.144 HD
ATOM     15  H   UNL     1       7.053  -2.270   0.280  0.00  0.00    +0.144 HD
ATOM     16  H   UNL     1       8.073   0.937  -0.650  0.00  0.00    +0.188 HD
ENDBRANCH   8  13
BRANCH   2  19
ATOM     17  C   UNL     1      -3.061   0.718  -0.207  0.00  0.00    +0.172 C 
ATOM     18  C   UNL     1      -1.737   0.279  -0.223  0.00  0.00    +0.169 C 
ATOM     19  C   UNL     1      -0.702   1.168   0.072  0.00  0.00    +0.050 C 
ATOM     20  C   UNL     1      -3.352   2.046   0.102  0.00  0.00    +0.040 C 
ATOM     21  C   UNL     1      -0.995   2.497   0.382  0.00  0.00    +0.004 C 
ATOM     22  C   UNL     1      -2.318   2.936   0.397  0.00  0.00    +0.003 C 
BRANCH  18  23
ATOM     23  O   UNL     1      -1.468  -1.025  -0.527  0.00  0.00    -0.503 OA
ATOM     24  H   UNL     1      -2.170  -1.614  -0.723  0.00  0.00    +0.292 HD
ENDBRANCH  18  23
BRANCH  17  25
ATOM     25  O   UNL     1      -4.080  -0.140  -0.493  0.00  0.00    -0.476 OA
BRANCH  25  26
ATOM     26  C   UNL     1      -5.057  -0.343   0.520  0.00  0.00    +0.166 C 
ATOM     27  C   UNL     1      -5.147  -1.825   0.846  0.00  0.00    +0.044 C 
ATOM     28  C   UNL     1      -6.446  -0.024  -0.011  0.00  0.00    +0.044 C 
ATOM     29  C   UNL     1      -6.009  -2.412  -0.271  0.00  0.00    +0.004 C 
ATOM     30  C   UNL     1      -6.820  -1.248  -0.842  0.00  0.00    +0.004 C 
ENDBRANCH  25  26
ENDBRANCH  17  25
ENDBRANCH   2  19
TORSDOF 5
