REMARK  Name = 13847
REMARK  7 active torsions:
REMARK  status: ('A' for Active; 'I' for Inactive)
REMARK    1  A    between atoms: O_1  and  C_2
REMARK    2  A    between atoms: O_1  and  C_7
REMARK    3  A    between atoms: C_2  and  C_3
REMARK    4  A    between atoms: C_3  and  O_4
REMARK    5  A    between atoms: O_4  and  C_5
REMARK    6  A    between atoms: C_7  and  C_8
REMARK    7  A    between atoms: C_8  and  O_9
REMARK                            x       y       z     vdW  Elec       q    Type
REMARK                         _______ _______ _______ _____ _____    ______ ____
ROOT
ATOM      1  O   UNL     1      -0.603  -0.322  -0.014  0.00  0.00    -0.348 OA
ENDROOT
BRANCH   1   2
ATOM      2  C   UNL     1       0.590   0.449  -0.008  0.00  0.00    +0.174 C 
BRANCH   2   3
ATOM      3  C   UNL     1       1.784  -0.486   0.003  0.00  0.00    +0.174 C 
BRANCH   3   4
ATOM      4  O   UNL     1       2.979   0.286  -0.012  0.00  0.00    -0.351 OA
BRANCH   4   5
ATOM      5  C   UNL     1       4.134  -0.541   0.019  0.00  0.00    +0.142 C 
ATOM      6  C   UNL     1       5.368   0.335   0.001  0.00  0.00    +0.035 C 
ENDBRANCH   4   5
ENDBRANCH   3   4
ENDBRANCH   2   3
ENDBRANCH   1   2
BRANCH   1   7
ATOM      7  C   UNL     1      -1.759   0.506  -0.002  0.00  0.00    +0.174 C 
BRANCH   7   8
ATOM      8  C   UNL     1      -2.996  -0.371  -0.008  0.00  0.00    +0.174 C 
BRANCH   8   9
ATOM      9  O   UNL     1      -4.152   0.457   0.024  0.00  0.00    -0.348 OA
ATOM     10  C   UNL     1      -5.346  -0.313  -0.003  0.00  0.00    +0.174 C 
ENDBRANCH   8   9
ENDBRANCH   7   8
ENDBRANCH   1   7
TORSDOF 7
