REMARK  Name = 7950
REMARK  0 active torsions:
REMARK  status: ('A' for Active; 'I' for Inactive)
REMARK                            x       y       z     vdW  Elec       q    Type
REMARK                         _______ _______ _______ _____ _____    ______ ____
ROOT
ATOM      1 CL   UNL     1      -1.314   2.825   0.000  0.00  0.00    -0.082 Cl
ATOM      2 CL   UNL     1      -1.790  -2.550   0.000  0.00  0.00    -0.082 Cl
ATOM      3 CL   UNL     1       3.104  -0.275   0.000  0.00  0.00    -0.082 Cl
ATOM      4  C   UNL     1      -0.588   1.265   0.000  0.00  0.00    +0.059 C 
ATOM      5  C   UNL     1      -0.801  -1.142   0.000  0.00  0.00    +0.059 C 
ATOM      6  C   UNL     1       1.389  -0.123   0.000  0.00  0.00    +0.059 C 
ATOM      7  C   UNL     1      -1.389   0.123   0.000  0.00  0.00    +0.023 C 
ATOM      8  C   UNL     1       0.801   1.142   0.000  0.00  0.00    +0.023 C 
ATOM      9  C   UNL     1       0.588  -1.265   0.000  0.00  0.00    +0.023 C 
ENDROOT
TORSDOF 0
