REMARK  Name = 449379
REMARK  8 active torsions:
REMARK  status: ('A' for Active; 'I' for Inactive)
REMARK    1  A    between atoms: C_2  and  N_16
REMARK    2  A    between atoms: C_3  and  C_22
REMARK    3  A    between atoms: C_4  and  N_7
REMARK    4  A    between atoms: C_6  and  C_28
REMARK    5  A    between atoms: N_7  and  C_10
REMARK    6  A    between atoms: N_21  and  C_24
REMARK    7  A    between atoms: C_24  and  C_25
REMARK    8  A    between atoms: C_28  and  O_29
REMARK                            x       y       z     vdW  Elec       q    Type
REMARK                         _______ _______ _______ _____ _____    ______ ____
ROOT
ATOM      1  O   UNL     1       1.360   1.473   0.970  0.00  0.00    -0.462 OA
ATOM      2  C   UNL     1       0.487  -0.813   0.471  0.00  0.00    +0.148 C 
ATOM      3  C   UNL     1       0.284   0.552   1.143  0.00  0.00    +0.261 C 
ATOM      4  C   UNL     1       0.969  -0.690  -0.982  0.00  0.00    +0.153 C 
ATOM      5  C   UNL     1       1.874   0.487  -1.171  0.00  0.00    +0.043 C 
ATOM      6  C   UNL     1       2.025   1.429  -0.230  0.00  0.00    +0.212 C 
ENDROOT
BRANCH   2   8
ATOM      7  O   UNL     1       0.542  -3.699   0.813  0.00  0.00    -0.275 OA
ATOM      8  N   UNL     1       1.435  -1.593   1.245  0.00  0.00    -0.300 N 
ATOM      9  C   UNL     1       1.377  -2.972   1.346  0.00  0.00    +0.223 C 
ATOM     10  C   UNL     1       2.494  -3.529   2.188  0.00  0.00    +0.095 C 
ATOM     11  H   UNL     1       2.155  -1.118   1.720  0.00  0.00    +0.150 HD
ENDBRANCH   2   8
BRANCH   3  14
ATOM     12  O   UNL     1      -0.939   1.972  -0.296  0.00  0.00    -0.271 OA
ATOM     13  N   UNL     1      -2.140   0.925   1.396  0.00  0.00    -0.275 N 
ATOM     14  C   UNL     1      -0.980   1.216   0.678  0.00  0.00    +0.268 C 
ATOM     15  C   UNL     1      -2.143   0.024   2.542  0.00  0.00    +0.115 C 
BRANCH  13  16
ATOM     16  C   UNL     1      -3.438   1.501   1.052  0.00  0.00    +0.094 C 
BRANCH  16  17
ATOM     17  C   UNL     1      -4.210   0.641   0.058  0.00  0.00    +0.022 C 
ATOM     18  C   UNL     1      -5.554   1.245  -0.323  0.00  0.00    +0.002 C 
ENDBRANCH  16  17
ENDBRANCH  13  16
ENDBRANCH   3  14
BRANCH   6  20
ATOM     19  O   UNL     1       3.639   2.610  -1.517  0.00  0.00    -0.242 OA
ATOM     20  C   UNL     1       2.976   2.509  -0.499  0.00  0.00    +0.372 C 
BRANCH  20  21
ATOM     21  O   UNL     1       3.001   3.363   0.546  0.00  0.00    -0.475 OA
ATOM     22  H   UNL     1       2.455   3.207   1.292  0.00  0.00    +0.296 HD
ENDBRANCH  20  21
ENDBRANCH   6  20
BRANCH   4  23
ATOM     23  N   UNL     1      -0.196  -0.536  -1.863  0.00  0.00    -0.236 NA
BRANCH  23  26
ATOM     24  N   UNL     1      -0.326  -2.924  -2.089  0.00  0.00    -0.370 N 
ATOM     25  N   UNL     1      -1.815  -1.567  -3.155  0.00  0.00    -0.370 N 
ATOM     26  C   UNL     1      -0.722  -1.625  -2.323  0.00  0.00    +0.189 C 
ATOM     27  H   UNL     1       0.447  -3.105  -1.508  0.00  0.00    +0.159 HD
ATOM     28  H   UNL     1      -0.817  -3.670  -2.503  0.00  0.00    +0.159 HD
ATOM     29  H   UNL     1      -2.199  -0.695  -3.403  0.00  0.00    +0.159 HD
ATOM     30  H   UNL     1      -2.214  -2.397  -3.504  0.00  0.00    +0.159 HD
ENDBRANCH  23  26
ENDBRANCH   4  23
TORSDOF 8
