REMARK  Name = 76726
REMARK  2 active torsions:
REMARK  status: ('A' for Active; 'I' for Inactive)
REMARK    1  A    between atoms: C_5  and  N_11
REMARK    2  A    between atoms: C_6  and  N_14
REMARK                            x       y       z     vdW  Elec       q    Type
REMARK                         _______ _______ _______ _____ _____    ______ ____
ROOT
ATOM      1  O   UNL     1       0.983   2.349   0.001  0.00  0.00    -0.266 OA
ATOM      2  O   UNL     1      -2.936  -0.053   0.001  0.00  0.00    -0.247 OA
ATOM      3  N   UNL     1      -0.929  -1.166   0.000  0.00  0.00    -0.295 N 
ATOM      4  N   UNL     1      -0.985   1.163  -0.001  0.00  0.00    -0.273 N 
ATOM      5  C   UNL     1       0.452  -1.191   0.000  0.00  0.00    +0.124 A 
ATOM      6  C   UNL     1       1.143  -0.029   0.000  0.00  0.00    +0.128 A 
ATOM      7  C   UNL     1       0.394   1.270   0.000  0.00  0.00    +0.277 A 
ATOM      8  C   UNL     1      -1.705  -0.023   0.000  0.00  0.00    +0.328 A 
ATOM      9  H   UNL     1      -1.397  -2.031   0.000  0.00  0.00    +0.172 HD
ATOM     10  H   UNL     1      -1.500   2.002  -0.002  0.00  0.00    +0.173 HD
ENDROOT
BRANCH   5  11
ATOM     11  N   UNL     1       1.078  -2.412   0.000  0.00  0.00    -0.343 N 
ATOM     12  H   UNL     1       0.544  -3.239   0.000  0.00  0.00    +0.144 HD
ATOM     13  H   UNL     1       2.061  -2.461   0.000  0.00  0.00    +0.144 HD
ENDBRANCH   5  11
BRANCH   6  14
ATOM     14  N   UNL     1       2.505   0.091   0.000  0.00  0.00    -0.351 N 
ATOM     15  H   UNL     1       3.070  -0.715   0.000  0.00  0.00    +0.143 HD
ATOM     16  H   UNL     1       2.921   0.984   0.000  0.00  0.00    +0.143 HD
ENDBRANCH   6  14
TORSDOF 2
