REMARK  Name = 1387
REMARK  2 active torsions:
REMARK  status: ('A' for Active; 'I' for Inactive)
REMARK    1  A    between atoms: C_6  and  S_12
REMARK    2  A    between atoms: S_12  and  N_15
REMARK                            x       y       z     vdW  Elec       q    Type
REMARK                         _______ _______ _______ _____ _____    ______ ____
ROOT
ATOM      1  S   UNL     1       3.499  -0.721   0.029  0.00  0.00    +0.033 S 
ATOM      2  O   UNL     1       1.820  -2.786  -0.007  0.00  0.00    -0.278 OA
ATOM      3  N   UNL     1       2.776   0.783   0.021  0.00  0.00    -0.294 N 
ATOM      4  C   UNL     1       1.390   0.719  -0.007  0.00  0.00    +0.070 A 
ATOM      5  C   UNL     1       0.873  -0.585  -0.019  0.00  0.00    +0.064 A 
ATOM      6  C   UNL     1      -1.367   0.212  -0.061  0.00  0.00    +0.122 C 
ATOM      7  C   UNL     1      -0.485  -0.865  -0.046  0.00  0.00    +0.025 C 
ATOM      8  C   UNL     1       0.496   1.783  -0.022  0.00  0.00    +0.019 C 
ATOM      9  C   UNL     1      -0.881   1.527  -0.049  0.00  0.00    +0.021 C 
ATOM     10  C   UNL     1       1.952  -1.577  -0.002  0.00  0.00    +0.242 A 
ATOM     11  C   UNL     1       3.525   2.017   0.033  0.00  0.00    +0.139 C 
ENDROOT
BRANCH   6  12
ATOM     12  S   UNL     1      -3.089  -0.075  -0.097  0.00  0.00    +0.057 S 
ATOM     13  O   UNL     1      -3.737   1.093  -0.677  0.00  0.00    -0.153 OA
ATOM     14  O   UNL     1      -3.327  -1.393  -0.669  0.00  0.00    -0.153 OA
BRANCH  12  15
ATOM     15  N   UNL     1      -3.445  -0.131   1.573  0.00  0.00    -0.203 NA
ATOM     16  H   UNL     1      -4.443  -0.296   1.703  0.00  0.00    +0.144 HD
ATOM     17  H   UNL     1      -3.189   0.757   2.005  0.00  0.00    +0.144 HD
ENDBRANCH  12  15
ENDBRANCH   6  12
TORSDOF 2
