REMARK  Name = 5289593
REMARK  8 active torsions:
REMARK  status: ('A' for Active; 'I' for Inactive)
REMARK    1  A    between atoms: C_1  and  O_2
REMARK    2  A    between atoms: C_1  and  C_4
REMARK    3  A    between atoms: C_1  and  C_13
REMARK    4  A    between atoms: C_4  and  C_7
REMARK    5  A    between atoms: C_4  and  O_11
REMARK    6  A    between atoms: N_6  and  O_9
REMARK    7  A    between atoms: C_13  and  C_16
REMARK    8  A    between atoms: C_13  and  O_17
REMARK                            x       y       z     vdW  Elec       q    Type
REMARK                         _______ _______ _______ _____ _____    ______ ____
ROOT
ATOM      1  C   UNL     1       0.366   0.688   0.348  0.00  0.00    +0.184 C 
ENDROOT
BRANCH   1   2
ATOM      2  O   UNL     1      -0.031   2.056   0.243  0.00  0.00    -0.379 OA
ATOM      3  H   UNL     1      -0.961   2.143   0.505  0.00  0.00    +0.211 HD
ENDBRANCH   1   2
BRANCH   1   4
ATOM      4  C   UNL     1      -0.626  -0.163  -0.469  0.00  0.00    +0.219 C 
BRANCH   4   7
ATOM      5  O   UNL     1      -2.653   1.111  -0.123  0.00  0.00    -0.270 OA
ATOM      6  N   UNL     1      -2.680  -1.151   0.330  0.00  0.00    -0.195 N 
ATOM      7  C   UNL     1      -2.087   0.022  -0.066  0.00  0.00    +0.274 C 
ATOM      8  H   UNL     1      -2.187  -2.002   0.361  0.00  0.00    +0.182 HD
BRANCH   6   9
ATOM      9  O   UNL     1      -4.032  -1.061   0.688  0.00  0.00    -0.295 OA
ATOM     10  H   UNL     1      -4.356  -1.937   0.950  0.00  0.00    +0.241 HD
ENDBRANCH   6   9
ENDBRANCH   4   7
BRANCH   4  11
ATOM     11  O   UNL     1      -0.500   0.126  -1.853  0.00  0.00    -0.374 OA
ATOM     12  H   UNL     1       0.425   0.013  -2.124  0.00  0.00    +0.211 HD
ENDBRANCH   4  11
ENDBRANCH   1   4
BRANCH   1  13
ATOM     13  C   UNL     1       1.840   0.552  -0.066  0.00  0.00    +0.244 C 
BRANCH  13  16
ATOM     14  O   UNL     1       2.400  -1.400   1.190  0.00  0.00    -0.243 OA
ATOM     15  O   UNL     1       2.918  -1.315  -1.031  0.00  0.00    -0.243 OA
ATOM     16  C   UNL     1       2.443  -0.861   0.051  0.00  0.00    +0.394 C 
ENDBRANCH  13  16
BRANCH  13  17
ATOM     17  O   UNL     1       2.642   1.395   0.758  0.00  0.00    -0.372 OA
ATOM     18  H   UNL     1       2.302   2.303   0.719  0.00  0.00    +0.211 HD
ENDBRANCH  13  17
ENDBRANCH   1  13
TORSDOF 8
