REMARK  Name = 5496599
REMARK  7 active torsions:
REMARK  status: ('A' for Active; 'I' for Inactive)
REMARK    1  A    between atoms: N_2  and  C_17
REMARK    2  A    between atoms: C_3  and  C_5
REMARK    3  A    between atoms: C_8  and  S_11
REMARK    4  A    between atoms: S_11  and  N_14
REMARK    5  A    between atoms: C_17  and  C_18
REMARK    6  A    between atoms: C_18  and  C_20
REMARK    7  A    between atoms: C_18  and  C_29
REMARK                            x       y       z     vdW  Elec       q    Type
REMARK                         _______ _______ _______ _____ _____    ______ ____
ROOT
ATOM      1  O   UNL     1       0.625  -3.143  -0.859  0.00  0.00    -0.270 OA
ATOM      2  N   UNL     1      -0.337  -1.799   0.768  0.00  0.00    -0.301 N 
ATOM      3  C   UNL     1       0.675  -2.174  -0.106  0.00  0.00    +0.246 C 
ATOM      4  H   UNL     1      -0.203  -1.004   1.333  0.00  0.00    +0.150 HD
ENDROOT
BRANCH   3   5
ATOM      5  C   UNL     1       1.900  -1.334  -0.083  0.00  0.00    +0.053 C 
ATOM      6  C   UNL     1       3.103  -1.903  -0.447  0.00  0.00    +0.006 C 
ATOM      7  C   UNL     1       1.796  -0.014   0.301  0.00  0.00    +0.006 C 
ATOM      8  C   UNL     1       4.176   0.224  -0.040  0.00  0.00    +0.122 C 
ATOM      9  C   UNL     1       4.254  -1.114  -0.425  0.00  0.00    +0.020 C 
ATOM     10  C   UNL     1       2.946   0.774   0.323  0.00  0.00    +0.020 C 
BRANCH   8  11
ATOM     11  S   UNL     1       5.616   1.211  -0.014  0.00  0.00    +0.057 S 
ATOM     12  O   UNL     1       6.584   0.635  -0.938  0.00  0.00    -0.153 OA
ATOM     13  O   UNL     1       5.223   2.606  -0.155  0.00  0.00    -0.153 OA
BRANCH  11  14
ATOM     14  N   UNL     1       6.159   0.953   1.585  0.00  0.00    -0.203 NA
ATOM     15  H   UNL     1       7.016   1.483   1.743  0.00  0.00    +0.144 HD
ATOM     16  H   UNL     1       6.343  -0.041   1.725  0.00  0.00    +0.144 HD
ENDBRANCH  11  14
ENDBRANCH   8  11
ENDBRANCH   3   5
BRANCH   2  17
ATOM     17  C   UNL     1      -1.575  -2.527   0.880  0.00  0.00    +0.094 C 
BRANCH  17  18
ATOM     18  C   UNL     1      -2.653  -1.995  -0.099  0.00  0.00    +0.042 C 
BRANCH  18  20
ATOM     19  N   UNL     1      -3.752   3.477   0.494  0.00  0.00    -0.312 N 
ATOM     20  C   UNL     1      -2.968  -0.552   0.121  0.00  0.00    -0.021 C 
ATOM     21  C   UNL     1      -2.725   0.370  -0.903  0.00  0.00    -0.003 C 
ATOM     22  C   UNL     1      -3.498  -0.140   1.342  0.00  0.00    -0.003 C 
ATOM     23  C   UNL     1      -3.024   1.731  -0.688  0.00  0.00    +0.014 C 
ATOM     24  C   UNL     1      -3.554   2.115   0.546  0.00  0.00    +0.048 C 
ATOM     25  C   UNL     1      -3.802   1.204   1.578  0.00  0.00    +0.014 C 
ATOM     26  C   UNL     1      -2.910   2.908  -1.479  0.00  0.00    +0.017 C 
ATOM     27  C   UNL     1      -3.366   3.965  -0.725  0.00  0.00    +0.062 C 
ATOM     28  H   UNL     1      -4.119   4.021   1.229  0.00  0.00    +0.152 HD
ENDBRANCH  18  20
BRANCH  18  29
ATOM     29  C   UNL     1      -3.894  -2.928   0.002  0.00  0.00    +0.006 C 
ATOM     30  C   UNL     1      -4.998  -2.551  -0.979  0.00  0.00    +0.000 C 
ENDBRANCH  18  29
ENDBRANCH  17  18
ENDBRANCH   2  17
TORSDOF 7
