REMARK  Name = 446752
REMARK  3 active torsions:
REMARK  status: ('A' for Active; 'I' for Inactive)
REMARK    1  A    between atoms: C_6  and  C_18
REMARK    2  A    between atoms: C_18  and  N_19
REMARK    3  A    between atoms: N_19  and  C_22
REMARK                            x       y       z     vdW  Elec       q    Type
REMARK                         _______ _______ _______ _____ _____    ______ ____
ROOT
ATOM      1  N   UNL     1       2.723   0.365  -2.044  0.00  0.00    -0.182 NA
ATOM      2  N   UNL     1       4.762  -0.435  -1.295  0.00  0.00    -0.273 NA
ATOM      3  N   UNL     1       5.238  -0.665   1.054  0.00  0.00    -0.312 NA
ATOM      4  N   UNL     1       3.662  -0.089   2.661  0.00  0.00    -0.332 N 
ATOM      5  N   UNL     1       6.836  -1.248  -0.555  0.00  0.00    -0.283 N 
ATOM      6  C   UNL     1       1.001   0.998  -0.491  0.00  0.00    +0.010 C 
ATOM      7  C   UNL     1       1.821   0.662   0.561  0.00  0.00    -0.009 C 
ATOM      8  C   UNL     1       3.107   0.171   0.293  0.00  0.00    +0.115 C 
ATOM      9  C   UNL     1       3.536   0.032  -1.032  0.00  0.00    +0.104 C 
ATOM     10  C   UNL     1       1.484   0.838  -1.765  0.00  0.00    +0.107 C 
ATOM     11  C   UNL     1       1.267   0.848   1.941  0.00  0.00    +0.032 C 
ATOM     12  C   UNL     1       4.003  -0.194   1.295  0.00  0.00    +0.201 C 
ATOM     13  C   UNL     1       5.548  -0.759  -0.246  0.00  0.00    +0.206 C 
ATOM     14  H   UNL     1       4.312  -0.353   3.352  0.00  0.00    +0.145 HD
ATOM     15  H   UNL     1       2.775   0.249   2.922  0.00  0.00    +0.145 HD
ATOM     16  H   UNL     1       7.117  -1.338  -1.494  0.00  0.00    +0.156 HD
ATOM     17  H   UNL     1       7.453  -1.500   0.170  0.00  0.00    +0.156 HD
ENDROOT
BRANCH   6  18
ATOM     18  C   UNL     1      -0.391   1.532  -0.289  0.00  0.00    +0.097 C 
BRANCH  18  19
ATOM     19  N   UNL     1      -1.335   0.463  -0.247  0.00  0.00    -0.288 NA
ATOM     20  H   UNL     1      -1.005  -0.462  -0.325  0.00  0.00    +0.124 HD
BRANCH  19  22
ATOM     21  N   UNL     1      -5.917  -1.150   0.130  0.00  0.00    -0.248 NA
ATOM     22  C   UNL     1      -2.727   0.676  -0.098  0.00  0.00    +0.101 C 
ATOM     23  C   UNL     1      -3.637  -0.393  -0.059  0.00  0.00    +0.010 C 
ATOM     24  C   UNL     1      -5.018  -0.149   0.090  0.00  0.00    +0.061 C 
ATOM     25  C   UNL     1      -3.177   1.989   0.012  0.00  0.00    -0.010 C 
ATOM     26  C   UNL     1      -3.211  -1.724  -0.167  0.00  0.00    +0.000 C 
ATOM     27  C   UNL     1      -5.441   1.173   0.196  0.00  0.00    +0.071 C 
ATOM     28  C   UNL     1      -4.536   2.237   0.159  0.00  0.00    -0.023 C 
ATOM     29  C   UNL     1      -4.134  -2.758  -0.126  0.00  0.00    +0.020 C 
ATOM     30  C   UNL     1      -5.464  -2.421   0.023  0.00  0.00    +0.098 C 
ENDBRANCH  19  22
ENDBRANCH  18  19
ENDBRANCH   6  18
TORSDOF 3
