REMARK  Name = 448878
REMARK  6 active torsions:
REMARK  status: ('A' for Active; 'I' for Inactive)
REMARK    1  A    between atoms: CA_1  and  N_3
REMARK    2  A    between atoms: CA_1  and  C_10
REMARK    3  A    between atoms: CA_1  and  CB_13
REMARK    4  A    between atoms: C_10  and  O_11
REMARK    5  A    between atoms: CB_13  and  CG_14
REMARK    6  A    between atoms: CG_14  and  SD_15
REMARK                            x       y       z     vdW  Elec       q    Type
REMARK                         _______ _______ _______ _____ _____    ______ ____
ROOT
ATOM      1  CA  UNL     1       0.537   0.605   0.519  0.00  0.00    +0.173 C 
ENDROOT
BRANCH   1   3
ATOM      2  O   UNL     1       2.571  -1.363   1.154  0.00  0.00    -0.253 OA
ATOM      3  N   UNL     1       1.266  -0.228  -0.403  0.00  0.00    -0.281 N 
ATOM      4  N   UNL     1       2.781  -1.821  -1.086  0.00  0.00    -0.313 N 
ATOM      5  C   ACE A   0       2.230  -1.150  -0.009  0.00  0.00    +0.298 C 
ATOM      6  H   UNL     1       1.072  -0.140  -1.364  0.00  0.00    +0.151 HD
ATOM      7  H   UNL     1       3.477  -2.501  -0.939  0.00  0.00    +0.146 HD
ATOM      8  H   UNL     1       2.477  -1.617  -2.000  0.00  0.00    +0.146 HD
ENDBRANCH   1   3
BRANCH   1  10
ATOM      9  OXT UNL     1      -0.295   2.877   0.599  0.00  0.00    -0.248 OA
ATOM     10  C   UNL     1       0.237   1.983  -0.051  0.00  0.00    +0.332 C 
BRANCH  10  11
ATOM     11  O   UNL     1       0.554   2.131  -1.360  0.00  0.00    -0.479 OA
ATOM     12  H   UNL     1       0.960   1.427  -1.826  0.00  0.00    +0.295 HD
ENDBRANCH  10  11
ENDBRANCH   1  10
BRANCH   1  13
ATOM     13  CB  UNL     1      -0.729  -0.103   1.020  0.00  0.00    +0.043 C 
BRANCH  13  14
ATOM     14  CG  UNL     1      -1.763  -0.362  -0.078  0.00  0.00    +0.060 C 
BRANCH  14  15
ATOM     15  SD  UNL     1      -3.224  -1.193   0.612  0.00  0.00    -0.139 S 
ATOM     16  CE  UNL     1      -4.167  -1.375  -0.918  0.00  0.00    +0.069 C 
ENDBRANCH  14  15
ENDBRANCH  13  14
ENDBRANCH   1  13
TORSDOF 6
