REMARK  Name = 444552
REMARK  6 active torsions:
REMARK  status: ('A' for Active; 'I' for Inactive)
REMARK    1  A    between atoms: C_2  and  O_15
REMARK    2  A    between atoms: C_3  and  O_7
REMARK    3  A    between atoms: C_4  and  O_9
REMARK    4  A    between atoms: C_6  and  C_12
REMARK    5  A    between atoms: C_12  and  O_13
REMARK    6  A    between atoms: O_15  and  S_16
REMARK                            x       y       z     vdW  Elec       q    Type
REMARK                         _______ _______ _______ _____ _____    ______ ____
ROOT
ATOM      1  O   UNL     1      -1.373   0.322  -1.205  0.00  0.00    -0.444 OA
ATOM      2  C   UNL     1       0.800   0.990  -0.238  0.00  0.00    +0.248 C 
ATOM      3  C   UNL     1       0.316   0.633   1.172  0.00  0.00    +0.172 C 
ATOM      4  C   UNL     1      -0.369   1.349  -1.163  0.00  0.00    +0.318 C 
ATOM      5  C   UNL     1      -0.987  -0.106   1.136  0.00  0.00    +0.049 C 
ATOM      6  C   UNL     1      -1.700  -0.234   0.008  0.00  0.00    +0.214 C 
ENDROOT
BRANCH   3   7
ATOM      7  O   UNL     1       0.142   1.831   1.925  0.00  0.00    -0.377 OA
ATOM      8  H   UNL     1       0.980   2.318   1.956  0.00  0.00    +0.211 HD
ENDBRANCH   3   7
BRANCH   4   9
ATOM      9  O   UNL     1      -0.924   2.600  -0.764  0.00  0.00    -0.348 OA
ATOM     10  H   UNL     1      -1.664   2.827  -1.349  0.00  0.00    +0.214 HD
ENDBRANCH   4   9
BRANCH   6  12
ATOM     11  O   UNL     1      -3.345  -1.586   1.065  0.00  0.00    -0.242 OA
ATOM     12  C   UNL     1      -2.927  -1.030   0.064  0.00  0.00    +0.372 C 
BRANCH  12  13
ATOM     13  O   UNL     1      -3.512  -1.050  -1.152  0.00  0.00    -0.475 OA
ATOM     14  H   UNL     1      -3.118  -0.592  -1.869  0.00  0.00    +0.296 HD
ENDBRANCH  12  13
ENDBRANCH   6  12
BRANCH   2  15
ATOM     15  O   UNL     1       1.485  -0.126  -0.806  0.00  0.00    -0.193 OA
BRANCH  15  16
ATOM     16  S   UNL     1       2.815  -0.715  -0.066  0.00  0.00    +0.239 S 
ATOM     17  O   UNL     1       3.370  -1.837  -1.112  0.00  0.00    -0.116 OA
ATOM     18  O   UNL     1       3.792   0.356  -0.015  0.00  0.00    -0.116 OA
ATOM     19  O   UNL     1       2.417  -1.398   1.151  0.00  0.00    -0.022 OA
ENDBRANCH  15  16
ENDBRANCH   2  15
TORSDOF 6
