REMARK  Name = 447750
REMARK  11 active torsions:
REMARK  status: ('A' for Active; 'I' for Inactive)
REMARK    1  A    between atoms: C_6  and  C_17
REMARK    2  A    between atoms: C_9  and  C_21
REMARK    3  A    between atoms: C_17  and  O_19
REMARK    4  A    between atoms: C_21  and  C_22
REMARK    5  A    between atoms: C_22  and  O_23
REMARK    6  A    between atoms: O_23  and  P_24
REMARK    7  A    between atoms: P_24  and  O_26
REMARK    8  A    between atoms: P_24  and  O_28
REMARK    9  A    between atoms: O_28  and  P_29
REMARK   10  A    between atoms: P_29  and  O_31
REMARK   11  A    between atoms: P_29  and  O_33
REMARK                            x       y       z     vdW  Elec       q    Type
REMARK                         _______ _______ _______ _____ _____    ______ ____
ROOT
ATOM      1  S   UNL     1       0.319   2.006  -1.145  0.00  0.00    -0.079 S 
ATOM      2  N   UNL     1      -1.170   1.334   0.923  0.00  0.00    -0.285 N 
ATOM      3  N   UNL     1      -1.831   0.349  -1.198  0.00  0.00    -0.286 N 
ATOM      4  N   UNL     1      -3.200  -1.573  -1.234  0.00  0.00    -0.340 NA
ATOM      5  N   UNL     1      -4.265  -2.388   0.765  0.00  0.00    -0.186 NA
ATOM      6  C   UNL     1      -1.360   1.539  -0.519  0.00  0.00    +0.188 C 
ATOM      7  C   UNL     1      -2.245   0.681   1.659  0.00  0.00    +0.125 C 
ATOM      8  C   UNL     1       0.076   1.728   1.423  0.00  0.00    +0.029 C 
ATOM      9  C   UNL     1       0.968   2.116   0.487  0.00  0.00    +0.018 C 
ATOM     10  C   UNL     1      -2.850  -0.434   0.847  0.00  0.00    +0.062 C 
ATOM     11  C   UNL     1      -2.638  -0.563  -0.528  0.00  0.00    +0.192 C 
ATOM     12  C   UNL     1       0.319   1.703   2.901  0.00  0.00    +0.047 C 
ATOM     13  C   UNL     1      -3.684  -1.374   1.435  0.00  0.00    +0.111 C 
ATOM     14  C   UNL     1      -3.982  -2.428  -0.546  0.00  0.00    +0.066 C 
ATOM     15  C   UNL     1      -4.601  -3.537  -1.328  0.00  0.00    +0.129 C 
ATOM     16  H   UNL     1      -1.579   0.186  -2.136  0.00  0.00    +0.151 HD
ENDROOT
BRANCH   6  17
ATOM     17  C   UNL     1      -2.312   2.708  -0.783  0.00  0.00    +0.155 C 
ATOM     18  C   UNL     1      -2.414   3.020  -2.264  0.00  0.00    +0.036 C 
BRANCH  17  19
ATOM     19  O   UNL     1      -1.839   3.852  -0.086  0.00  0.00    -0.380 OA
ATOM     20  H   UNL     1      -1.774   3.651   0.860  0.00  0.00    +0.211 HD
ENDBRANCH  17  19
ENDBRANCH   6  17
BRANCH   9  21
ATOM     21  C   UNL     1       2.377   2.575   0.661  0.00  0.00    +0.066 C 
BRANCH  21  22
ATOM     22  C   UNL     1       3.376   1.429   0.567  0.00  0.00    +0.159 C 
BRANCH  22  23
ATOM     23  O   UNL     1       3.249   0.786  -0.695  0.00  0.00    -0.273 OA
BRANCH  23  24
ATOM     24  P   UNL     1       4.198  -0.472  -1.056  0.00  0.00    +0.484 P 
ATOM     25  O   UNL     1       3.965  -1.060  -2.417  0.00  0.00    -0.227 OA
BRANCH  24  26
ATOM     26  O   UNL     1       5.702   0.072  -0.814  0.00  0.00    -0.302 OA
ATOM     27  H   UNL     1       5.774   0.436   0.083  0.00  0.00    +0.222 HD
ENDBRANCH  24  26
BRANCH  24  28
ATOM     28  O   UNL     1       3.979  -1.512   0.162  0.00  0.00    -0.186 OA
BRANCH  28  29
ATOM     29  P   UNL     1       2.678  -2.355   0.616  0.00  0.00    +0.481 P 
ATOM     30  O   UNL     1       1.486  -1.519   0.978  0.00  0.00    -0.227 OA
BRANCH  29  31
ATOM     31  O   UNL     1       2.454  -3.384  -0.610  0.00  0.00    -0.302 OA
ATOM     32  H   UNL     1       3.273  -3.878  -0.772  0.00  0.00    +0.222 HD
ENDBRANCH  29  31
BRANCH  29  33
ATOM     33  O   UNL     1       3.245  -3.296   1.801  0.00  0.00    -0.302 OA
ATOM     34  H   UNL     1       4.011  -3.797   1.478  0.00  0.00    +0.222 HD
ENDBRANCH  29  33
ENDBRANCH  28  29
ENDBRANCH  24  28
ENDBRANCH  23  24
ENDBRANCH  22  23
ENDBRANCH  21  22
ENDBRANCH   9  21
TORSDOF 11
