REMARK  Name = 5289227
REMARK  6 active torsions:
REMARK  status: ('A' for Active; 'I' for Inactive)
REMARK    1  A    between atoms: N_1  and  C_13
REMARK    2  A    between atoms: C_5  and  C_17
REMARK    3  A    between atoms: C_13  and  C_14
REMARK    4  A    between atoms: C_14  and  C_15
REMARK    5  A    between atoms: C_17  and  C_18
REMARK    6  A    between atoms: C_23  and  O_24
REMARK                            x       y       z     vdW  Elec       q    Type
REMARK                         _______ _______ _______ _____ _____    ______ ____
ROOT
ATOM      1  N   UNL     1      -1.811   0.365   0.519  0.00  0.00    -0.249 N 
ATOM      2  N   UNL     1      -0.162  -1.005  -0.038  0.00  0.00    -0.385 NA
ATOM      3  N   UNL     1      -3.703  -1.148   0.375  0.00  0.00    -0.227 NA
ATOM      4  N   UNL     1      -2.982  -3.385  -0.284  0.00  0.00    -0.227 NA
ATOM      5  C   UNL     1      -0.473   0.226   0.313  0.00  0.00    +0.169 C 
ATOM      6  C   UNL     1      -2.401  -0.835   0.289  0.00  0.00    +0.167 C 
ATOM      7  C   UNL     1      -1.357  -1.679  -0.057  0.00  0.00    +0.195 C 
ATOM      8  C   UNL     1      -1.685  -2.998  -0.350  0.00  0.00    +0.155 C 
ATOM      9  C   UNL     1      -3.897  -2.449   0.069  0.00  0.00    +0.253 C 
ATOM     10  N   UNL     1      -0.690  -3.923  -0.710  0.00  0.00    -0.341 N 
ATOM     11  H   UNL     1      -0.934  -4.854  -0.915  0.00  0.00    +0.144 HD
ATOM     12  H   UNL     1       0.252  -3.639  -0.757  0.00  0.00    +0.144 HD
ENDROOT
BRANCH   1  13
ATOM     13  C   UNL     1      -2.499   1.589   0.917  0.00  0.00    +0.099 C 
BRANCH  13  14
ATOM     14  C   UNL     1      -2.943   2.417  -0.289  0.00  0.00    +0.022 C 
BRANCH  14  15
ATOM     15  C   UNL     1      -3.650   3.697   0.151  0.00  0.00    +0.002 C 
ATOM     16  C   UNL     1      -4.059   4.546  -1.042  0.00  0.00    +0.000 C 
ENDBRANCH  14  15
ENDBRANCH  13  14
ENDBRANCH   1  13
BRANCH   5  17
ATOM     17  C   UNL     1       0.477   1.345   0.476  0.00  0.00    +0.101 C 
BRANCH  17  18
ATOM     18  C   UNL     1       1.926   0.970   0.197  0.00  0.00    -0.014 C 
ATOM     19  C   UNL     1       2.412   1.101  -1.087  0.00  0.00    -0.001 C 
ATOM     20  C   UNL     1       2.707   0.512   1.237  0.00  0.00    -0.001 C 
ATOM     21  C   UNL     1       3.739   0.757  -1.343  0.00  0.00    +0.037 C 
ATOM     22  C   UNL     1       4.035   0.168   0.981  0.00  0.00    +0.037 C 
ATOM     23  C   UNL     1       4.551   0.290  -0.309  0.00  0.00    +0.139 C 
BRANCH  23  24
ATOM     24  O   UNL     1       5.846  -0.045  -0.559  0.00  0.00    -0.471 OA
ATOM     25  C   UNL     1       6.620  -0.515   0.544  0.00  0.00    +0.252 C 
ENDBRANCH  23  24
ENDBRANCH  17  18
ENDBRANCH   5  17
TORSDOF 6
