REMARK  Name = 448267
REMARK  6 active torsions:
REMARK  status: ('A' for Active; 'I' for Inactive)
REMARK    1  A    between atoms: C_2  and  O_11
REMARK    2  A    between atoms: C_3  and  O_13
REMARK    3  A    between atoms: C_4  and  O_15
REMARK    4  A    between atoms: C_5  and  C_17
REMARK    5  A    between atoms: C_6  and  N_7
REMARK    6  A    between atoms: C_17  and  O_18
REMARK                            x       y       z     vdW  Elec       q    Type
REMARK                         _______ _______ _______ _____ _____    ______ ____
ROOT
ATOM      1  S   UNL     1       0.784   1.509  -0.596  0.00  0.00    -0.157 S 
ATOM      2  C   UNL     1      -1.225  -0.791   0.439  0.00  0.00    +0.163 C 
ATOM      3  C   UNL     1       0.164  -1.170  -0.088  0.00  0.00    +0.152 C 
ATOM      4  C   UNL     1      -1.779   0.506  -0.161  0.00  0.00    +0.130 C 
ATOM      5  C   UNL     1       1.223  -0.090   0.172  0.00  0.00    +0.104 C 
ATOM      6  C   UNL     1      -0.902   1.742   0.075  0.00  0.00    +0.015 C 
ENDROOT
BRANCH   6   7
ATOM      7  N   UNL     1      -0.862   2.134   1.481  0.00  0.00    +0.390 N 
ATOM      8  H   UNL     1      -0.269   2.957   1.588  0.00  0.00    -0.088 HD
ATOM      9  H   UNL     1      -0.484   1.367   2.038  0.00  0.00    -0.088 HD
ATOM     10  H   UNL     1      -1.806   2.352   1.800  0.00  0.00    -0.088 HD
ENDBRANCH   6   7
BRANCH   2  11
ATOM     11  O   UNL     1      -2.124  -1.860   0.125  0.00  0.00    -0.380 OA
ATOM     12  H   UNL     1      -1.785  -2.688   0.499  0.00  0.00    +0.211 HD
ENDBRANCH   2  11
BRANCH   3  13
ATOM     13  O   UNL     1       0.579  -2.361   0.592  0.00  0.00    -0.381 OA
ATOM     14  H   UNL     1      -0.075  -3.063   0.444  0.00  0.00    +0.210 HD
ENDBRANCH   3  13
BRANCH   4  15
ATOM     15  O   UNL     1      -1.966   0.351  -1.573  0.00  0.00    -0.383 OA
ATOM     16  H   UNL     1      -2.520  -0.427  -1.743  0.00  0.00    +0.210 HD
ENDBRANCH   4  15
BRANCH   5  17
ATOM     17  C   UNL     1       2.595  -0.507  -0.365  0.00  0.00    +0.150 C 
BRANCH  17  18
ATOM     18  O   UNL     1       3.513   0.537  -0.101  0.00  0.00    -0.381 OA
ATOM     19  H   UNL     1       4.389   0.289  -0.435  0.00  0.00    +0.210 HD
ENDBRANCH  17  18
ENDBRANCH   5  17
TORSDOF 6
