REMARK  Name = 448408
REMARK  8 active torsions:
REMARK  status: ('A' for Active; 'I' for Inactive)
REMARK    1  A    between atoms: N_2  and  C_25
REMARK    2  A    between atoms: C_3  and  C_6
REMARK    3  A    between atoms: C_5  and  N_12
REMARK    4  A    between atoms: C_25  and  C_26
REMARK    5  A    between atoms: C_27  and  S_32
REMARK    6  A    between atoms: S_32  and  C_33
REMARK    7  A    between atoms: C_34  and  C_39
REMARK    8  A    between atoms: C_39  and  O_40
REMARK                            x       y       z     vdW  Elec       q    Type
REMARK                         _______ _______ _______ _____ _____    ______ ____
ROOT
ATOM      1  O   UNL     1       3.057  -3.597   0.739  0.00  0.00    -0.270 OA
ATOM      2  N   UNL     1       2.604  -1.350   0.391  0.00  0.00    -0.297 N 
ATOM      3  C   UNL     1       2.229  -2.690   0.542  0.00  0.00    +0.246 C 
ATOM      4  H   UNL     1       1.896  -0.683   0.237  0.00  0.00    +0.150 HD
ENDROOT
BRANCH   3   6
ATOM      5  C   UNL     1      -1.512  -2.303   0.652  0.00  0.00    +0.090 C 
ATOM      6  C   UNL     1       0.811  -2.995   0.434  0.00  0.00    +0.055 C 
ATOM      7  C   UNL     1      -0.138  -2.023   0.751  0.00  0.00    +0.023 C 
ATOM      8  C   UNL     1      -1.909  -3.582   0.228  0.00  0.00    +0.018 C 
ATOM      9  C   UNL     1       0.400  -4.261   0.014  0.00  0.00    +0.005 C 
ATOM     10  C   UNL     1      -0.959  -4.554  -0.089  0.00  0.00    +0.002 C 
BRANCH   5  12
ATOM     11  O   UNL     1      -6.120  -0.367  -0.766  0.00  0.00    -0.207 OA
ATOM     12  N   UNL     1      -2.458  -1.334   0.967  0.00  0.00    -0.137 N 
ATOM     13  N   UNL     1      -2.168  -0.083   1.413  0.00  0.00    -0.215 N 
ATOM     14  N   UNL     1      -3.683  -1.365   0.305  0.00  0.00    -0.143 NA
ATOM     15  N   UNL     1      -3.481   1.983   1.193  0.00  0.00    -0.309 NA
ATOM     16  N   UNL     1      -5.576   1.746   0.018  0.00  0.00    -0.251 NA
ATOM     17  N   UNL     1      -4.931   3.808   0.844  0.00  0.00    -0.283 N 
ATOM     18  C   UNL     1      -3.184   0.744   1.063  0.00  0.00    +0.243 C 
ATOM     19  C   UNL     1      -4.119  -0.145   0.356  0.00  0.00    +0.241 C 
ATOM     20  C   UNL     1      -5.369   0.402  -0.184  0.00  0.00    +0.239 C 
ATOM     21  C   UNL     1      -4.681   2.467   0.664  0.00  0.00    +0.208 C 
ATOM     22  H   UNL     1      -1.357   0.178   1.907  0.00  0.00    +0.175 HD
ATOM     23  H   UNL     1      -4.281   4.371   1.323  0.00  0.00    +0.156 HD
ATOM     24  H   UNL     1      -5.761   4.205   0.493  0.00  0.00    +0.156 HD
ENDBRANCH   5  12
ENDBRANCH   3   6
BRANCH   2  25
ATOM     25  C   UNL     1       3.974  -0.892   0.448  0.00  0.00    +0.117 C 
BRANCH  25  26
ATOM     26  C   UNL     1       4.079   0.494   1.015  0.00  0.00    +0.003 C 
ATOM     27  C   UNL     1       4.025   1.624   0.204  0.00  0.00    +0.027 C 
ATOM     28  C   UNL     1       4.235   0.622   2.392  0.00  0.00    -0.002 C 
ATOM     29  C   UNL     1       4.128   2.892   0.775  0.00  0.00    +0.006 C 
ATOM     30  C   UNL     1       4.338   1.890   2.963  0.00  0.00    -0.000 C 
ATOM     31  C   UNL     1       4.284   3.025   2.155  0.00  0.00    +0.000 C 
BRANCH  27  32
ATOM     32  S   UNL     1       3.826   1.506  -1.569  0.00  0.00    -0.087 S 
BRANCH  32  33
ATOM     33  C   UNL     1       2.046   1.538  -1.717  0.00  0.00    +0.028 C 
ATOM     34  C   UNL     1       1.338   0.484  -2.298  0.00  0.00    +0.013 C 
ATOM     35  C   UNL     1       1.360   2.654  -1.235  0.00  0.00    +0.006 C 
ATOM     36  C   UNL     1      -0.052   0.546  -2.395  0.00  0.00    -0.001 C 
ATOM     37  C   UNL     1      -0.030   2.716  -1.333  0.00  0.00    +0.000 C 
ATOM     38  C   UNL     1      -0.736   1.662  -1.913  0.00  0.00    -0.000 C 
BRANCH  34  39
ATOM     39  C   UNL     1       2.025  -0.733  -2.829  0.00  0.00    +0.164 C 
BRANCH  39  40
ATOM     40  O   UNL     1       2.351  -0.527  -4.197  0.00  0.00    -0.377 OA
ATOM     41  H   UNL     1       2.797  -1.315  -4.545  0.00  0.00    +0.211 HD
ENDBRANCH  39  40
ENDBRANCH  34  39
ENDBRANCH  32  33
ENDBRANCH  27  32
ENDBRANCH  25  26
ENDBRANCH   2  25
TORSDOF 8
