REMARK  Name = 444809
REMARK  6 active torsions:
REMARK  status: ('A' for Active; 'I' for Inactive)
REMARK    1  A    between atoms: C_2  and  O_9
REMARK    2  A    between atoms: C_3  and  O_11
REMARK    3  A    between atoms: C_4  and  C_15
REMARK    4  A    between atoms: C_5  and  O_13
REMARK    5  A    between atoms: C_6  and  S_7
REMARK    6  A    between atoms: C_15  and  O_16
REMARK                            x       y       z     vdW  Elec       q    Type
REMARK                         _______ _______ _______ _____ _____    ______ ____
ROOT
ATOM      1  O   UNL     1       0.618   1.165  -0.233  0.00  0.00    -0.340 OA
ATOM      2  C   UNL     1       0.453  -1.255  -0.244  0.00  0.00    +0.169 C 
ATOM      3  C   UNL     1      -1.010  -1.161   0.189  0.00  0.00    +0.170 C 
ATOM      4  C   UNL     1       1.238  -0.033   0.238  0.00  0.00    +0.175 C 
ATOM      5  C   UNL     1      -1.615   0.200  -0.172  0.00  0.00    +0.177 C 
ATOM      6  C   UNL     1      -0.701   1.342   0.284  0.00  0.00    +0.188 C 
ENDROOT
BRANCH   6   7
ATOM      7  S   UNL     1      -1.371   2.950  -0.276  0.00  0.00    -0.137 S 
ATOM      8  H   UNL     1      -0.549   3.952   0.136  0.00  0.00    +0.105 HD
ENDBRANCH   6   7
BRANCH   2   9
ATOM      9  O   UNL     1       1.039  -2.430   0.310  0.00  0.00    -0.379 OA
ATOM     10  H   UNL     1       0.547  -3.210   0.009  0.00  0.00    +0.211 HD
ENDBRANCH   2   9
BRANCH   3  11
ATOM     11  O   UNL     1      -1.770  -2.171  -0.478  0.00  0.00    -0.379 OA
ATOM     12  H   UNL     1      -1.406  -3.044  -0.264  0.00  0.00    +0.211 HD
ENDBRANCH   3  11
BRANCH   5  13
ATOM     13  O   UNL     1      -2.883   0.316   0.472  0.00  0.00    -0.379 OA
ATOM     14  H   UNL     1      -3.460  -0.408   0.182  0.00  0.00    +0.211 HD
ENDBRANCH   5  13
BRANCH   4  15
ATOM     15  C   UNL     1       2.672  -0.041  -0.282  0.00  0.00    +0.169 C 
BRANCH  15  16
ATOM     16  O   UNL     1       3.330   1.119   0.192  0.00  0.00    -0.379 OA
ATOM     17  H   UNL     1       4.245   1.127  -0.131  0.00  0.00    +0.211 HD
ENDBRANCH  15  16
ENDBRANCH   4  15
TORSDOF 6
