REMARK  Name = 5179950
REMARK  2 active torsions:
REMARK  status: ('A' for Active; 'I' for Inactive)
REMARK    1  A    between atoms: C_1  and  C_4
REMARK    2  A    between atoms: C_1  and  S_5
REMARK                            x       y       z     vdW  Elec       q    Type
REMARK                         _______ _______ _______ _____ _____    ______ ____
ROOT
ATOM      1  C   UNL     1      -0.214  -0.477   0.536  0.00  0.00    +0.172 C 
ENDROOT
BRANCH   1   4
ATOM      2  O   UNL     1       1.374   1.224   0.161  0.00  0.00    -0.245 OA
ATOM      3  O   UNL     1       1.927  -0.939  -0.336  0.00  0.00    -0.245 OA
ATOM      4  C   UNL     1       1.167  -0.021   0.086  0.00  0.00    +0.376 C 
ENDBRANCH   1   4
BRANCH   1   5
ATOM      5  S   UNL     1      -1.346   0.426  -0.548  0.00  0.00    -0.128 S 
ATOM      6  C   UNL     1      -2.908  -0.214   0.102  0.00  0.00    +0.070 C 
ENDBRANCH   1   5
TORSDOF 2
