REMARK  Name = 445537
REMARK  4 active torsions:
REMARK  status: ('A' for Active; 'I' for Inactive)
REMARK    1  A    between atoms: C_2  and  O_16
REMARK    2  A    between atoms: C_3  and  C_10
REMARK    3  A    between atoms: C_5  and  C_18
REMARK    4  A    between atoms: C_18  and  O_19
REMARK                            x       y       z     vdW  Elec       q    Type
REMARK                         _______ _______ _______ _____ _____    ______ ____
ROOT
ATOM      1  O   UNL     1      -1.649  -0.509   0.880  0.00  0.00    -0.349 OA
ATOM      2  C   UNL     1      -3.084   0.801  -0.483  0.00  0.00    +0.143 C 
ATOM      3  C   UNL     1      -0.960   0.704   0.536  0.00  0.00    +0.146 C 
ATOM      4  C   UNL     1      -1.664   1.274  -0.688  0.00  0.00    +0.066 C 
ATOM      5  C   UNL     1      -2.898  -0.565   0.162  0.00  0.00    +0.171 C 
ENDROOT
BRANCH   3  10
ATOM      6  O   UNL     1       0.960   2.711  -0.074  0.00  0.00    -0.270 OA
ATOM      7  O   UNL     1       4.466  -0.250  -0.367  0.00  0.00    -0.252 OA
ATOM      8  N   UNL     1       2.346  -1.082   0.135  0.00  0.00    -0.240 N 
ATOM      9  N   UNL     1       2.708   1.216  -0.217  0.00  0.00    -0.236 N 
ATOM     10  C   UNL     1       0.482   0.417   0.300  0.00  0.00    +0.073 C 
ATOM     11  C   UNL     1       1.010  -0.812   0.353  0.00  0.00    +0.072 C 
ATOM     12  C   UNL     1       1.381   1.560  -0.010  0.00  0.00    +0.252 C 
ATOM     13  C   UNL     1       3.264  -0.067  -0.163  0.00  0.00    +0.314 C 
ATOM     14  C   UNL     1       2.781  -2.471   0.224  0.00  0.00    +0.122 C 
ATOM     15  H   UNL     1       3.326   1.954  -0.425  0.00  0.00    +0.159 HD
ENDBRANCH   3  10
BRANCH   2  16
ATOM     16  O   UNL     1      -3.726   1.681   0.436  0.00  0.00    -0.382 OA
ATOM     17  H   UNL     1      -3.844   2.551   0.023  0.00  0.00    +0.210 HD
ENDBRANCH   2  16
BRANCH   5  18
ATOM     18  C   UNL     1      -2.800  -1.692  -0.857  0.00  0.00    +0.169 C 
BRANCH  18  19
ATOM     19  O   UNL     1      -2.618  -2.915  -0.165  0.00  0.00    -0.379 OA
ATOM     20  H   UNL     1      -2.554  -3.642  -0.804  0.00  0.00    +0.211 HD
ENDBRANCH  18  19
ENDBRANCH   5  18
TORSDOF 4
