REMARK  Name = 446488
REMARK  8 active torsions:
REMARK  status: ('A' for Active; 'I' for Inactive)
REMARK    1  A    between atoms: C_2  and  O_18
REMARK    2  A    between atoms: C_3  and  O_20
REMARK    3  A    between atoms: C_4  and  N_6
REMARK    4  A    between atoms: C_5  and  C_22
REMARK    5  A    between atoms: C_22  and  O_23
REMARK    6  A    between atoms: O_23  and  P_24
REMARK    7  A    between atoms: P_24  and  O_26
REMARK    8  A    between atoms: P_24  and  O_28
REMARK                            x       y       z     vdW  Elec       q    Type
REMARK                         _______ _______ _______ _____ _____    ______ ____
ROOT
ATOM      1  O   UNL     1       0.858   0.119   0.129  0.00  0.00    -0.336 OA
ATOM      2  C   UNL     1      -0.223  -2.006   0.116  0.00  0.00    +0.183 C 
ATOM      3  C   UNL     1       1.253  -2.194  -0.176  0.00  0.00    +0.171 C 
ATOM      4  C   UNL     1      -0.380  -0.530  -0.239  0.00  0.00    +0.208 C 
ATOM      5  C   UNL     1       1.843  -0.903   0.378  0.00  0.00    +0.176 C 
ENDROOT
BRANCH   4   6
ATOM      6  N   UNL     1      -1.516   0.151   0.371  0.00  0.00    -0.210 NA
ATOM      7  N   UNL     1      -2.677   1.288   1.906  0.00  0.00    -0.204 NA
ATOM      8  N   UNL     1      -4.764   1.395   0.664  0.00  0.00    -0.195 NA
ATOM      9  N   UNL     1      -4.672   0.308  -1.518  0.00  0.00    -0.231 NA
ATOM     10  C   UNL     1      -2.770   0.323  -0.153  0.00  0.00    +0.201 C 
ATOM     11  C   UNL     1      -1.514   0.749   1.608  0.00  0.00    +0.214 C 
ATOM     12  C   UNL     1      -3.469   1.030   0.816  0.00  0.00    +0.027 C 
ATOM     13  C   UNL     1      -3.379  -0.043  -1.338  0.00  0.00    +0.129 C 
ATOM     14  C   UNL     1      -5.276   0.996  -0.520  0.00  0.00    +0.262 C 
ATOM     15  N   UNL     1      -2.694  -0.758  -2.334  0.00  0.00    -0.344 N 
ATOM     16  H   UNL     1      -3.155  -1.005  -3.168  0.00  0.00    +0.143 HD
ATOM     17  H   UNL     1      -1.752  -1.012  -2.199  0.00  0.00    +0.143 HD
ENDBRANCH   4   6
BRANCH   2  18
ATOM     18  O   UNL     1      -0.475  -2.221   1.502  0.00  0.00    -0.378 OA
ATOM     19  H   UNL     1      -0.370  -3.163   1.708  0.00  0.00    +0.211 HD
ENDBRANCH   2  18
BRANCH   3  20
ATOM     20  O   UNL     1       1.806  -3.336   0.443  0.00  0.00    -0.379 OA
ATOM     21  H   UNL     1       1.405  -4.134   0.064  0.00  0.00    +0.211 HD
ENDBRANCH   3  20
BRANCH   5  22
ATOM     22  C   UNL     1       3.157  -0.515  -0.275  0.00  0.00    +0.186 C 
BRANCH  22  23
ATOM     23  O   UNL     1       3.614   0.698   0.300  0.00  0.00    -0.271 OA
BRANCH  23  24
ATOM     24  P   UNL     1       5.007   1.327  -0.231  0.00  0.00    +0.473 P 
ATOM     25  O   UNL     1       5.416   2.611   0.430  0.00  0.00    -0.227 OA
BRANCH  24  26
ATOM     26  O   UNL     1       4.807   1.408  -1.833  0.00  0.00    -0.303 OA
ATOM     27  H   UNL     1       4.545   0.537  -2.171  0.00  0.00    +0.222 HD
ENDBRANCH  24  26
BRANCH  24  28
ATOM     28  O   UNL     1       6.048   0.103  -0.047  0.00  0.00    -0.303 OA
ATOM     29  H   UNL     1       5.707  -0.683  -0.504  0.00  0.00    +0.222 HD
ENDBRANCH  24  28
ENDBRANCH  23  24
ENDBRANCH  22  23
ENDBRANCH   5  22
TORSDOF 8
