REMARK  Name = 65374
REMARK  6 active torsions:
REMARK  status: ('A' for Active; 'I' for Inactive)
REMARK    1  A    between atoms: C_3  and  C_16
REMARK    2  A    between atoms: C_5  and  N_8
REMARK    3  A    between atoms: C_16  and  O_17
REMARK    4  A    between atoms: O_17  and  P_18
REMARK    5  A    between atoms: P_18  and  O_20
REMARK    6  A    between atoms: P_18  and  O_22
REMARK                            x       y       z     vdW  Elec       q    Type
REMARK                         _______ _______ _______ _____ _____    ______ ____
ROOT
ATOM      1  O   UNL     1       0.588  -0.567   1.027  0.00  0.00    -0.337 OA
ATOM      2  C   UNL     1       1.862  -1.705  -0.630  0.00  0.00    +0.037 C 
ATOM      3  C   UNL     1       1.861  -0.541   0.353  0.00  0.00    +0.147 C 
ATOM      4  C   UNL     1       0.394  -1.896  -0.931  0.00  0.00    +0.054 C 
ATOM      5  C   UNL     1      -0.264  -1.526   0.386  0.00  0.00    +0.199 C 
ENDROOT
BRANCH   5   8
ATOM      6  O   UNL     1      -2.713  -2.981   0.464  0.00  0.00    -0.252 OA
ATOM      7  O   UNL     1      -5.194   0.815  -0.300  0.00  0.00    -0.270 OA
ATOM      8  N   UNL     1      -1.569  -0.961   0.213  0.00  0.00    -0.219 N 
ATOM      9  N   UNL     1      -3.938  -1.080   0.082  0.00  0.00    -0.236 N 
ATOM     10  C   UNL     1      -1.680   0.408  -0.013  0.00  0.00    +0.071 C 
ATOM     11  C   UNL     1      -2.732  -1.764   0.268  0.00  0.00    +0.315 C 
ATOM     12  C   UNL     1      -2.836   1.059  -0.191  0.00  0.00    +0.047 C 
ATOM     13  C   UNL     1      -4.100   0.278  -0.145  0.00  0.00    +0.250 C 
ATOM     14  C   UNL     1      -2.927   2.531  -0.433  0.00  0.00    +0.037 C 
ATOM     15  H   UNL     1      -4.760  -1.621   0.117  0.00  0.00    +0.159 HD
ENDBRANCH   5   8
BRANCH   3  16
ATOM     16  C   UNL     1       1.998   0.810  -0.338  0.00  0.00    +0.183 C 
BRANCH  16  17
ATOM     17  O   UNL     1       1.977   1.826   0.648  0.00  0.00    -0.271 OA
BRANCH  17  18
ATOM     18  P   UNL     1       2.108   3.368   0.171  0.00  0.00    +0.473 P 
ATOM     19  O   UNL     1       2.076   4.379   1.280  0.00  0.00    -0.227 OA
BRANCH  18  20
ATOM     20  O   UNL     1       0.946   3.526  -0.942  0.00  0.00    -0.303 OA
ATOM     21  H   UNL     1       1.046   2.833  -1.614  0.00  0.00    +0.222 HD
ENDBRANCH  18  20
BRANCH  18  22
ATOM     22  O   UNL     1       3.466   3.361  -0.707  0.00  0.00    -0.303 OA
ATOM     23  H   UNL     1       3.401   2.682  -1.397  0.00  0.00    +0.222 HD
ENDBRANCH  18  22
ENDBRANCH  17  18
ENDBRANCH  16  17
ENDBRANCH   3  16
TORSDOF 6
REMARK  Name = 65374
REMARK  6 active torsions:
REMARK  status: ('A' for Active; 'I' for Inactive)
REMARK    1  A    between atoms: C_3  and  C_16
REMARK    2  A    between atoms: C_5  and  N_8
REMARK    3  A    between atoms: C_16  and  O_17
REMARK    4  A    between atoms: O_17  and  P_18
REMARK    5  A    between atoms: P_18  and  O_20
REMARK    6  A    between atoms: P_18  and  O_22
REMARK                            x       y       z     vdW  Elec       q    Type
REMARK                         _______ _______ _______ _____ _____    ______ ____
ROOT
ATOM      1  N   UNL     1       3.593  -3.116  -0.093  0.00  0.00    +0.000 NA
ATOM      2  N   UNL     1       4.708  -3.322  -0.214  0.00  0.00    +0.000 NA
ENDROOT
TORSDOF 0
