REMARK  Name = 445008
REMARK  9 active torsions:
REMARK  status: ('A' for Active; 'I' for Inactive)
REMARK    1  A    between atoms: C_2  and  C_10
REMARK    2  A    between atoms: C_3  and  C_20
REMARK    3  A    between atoms: C_4  and  O_8
REMARK    4  A    between atoms: C_10  and  N_11
REMARK    5  A    between atoms: N_11  and  C_16
REMARK    6  A    between atoms: C_20  and  O_21
REMARK    7  A    between atoms: O_21  and  P_22
REMARK    8  A    between atoms: P_22  and  O_24
REMARK    9  A    between atoms: P_22  and  O_26
REMARK                            x       y       z     vdW  Elec       q    Type
REMARK                         _______ _______ _______ _____ _____    ______ ____
ROOT
ATOM      1  N   UNL     1      -3.258   2.100  -0.706  0.00  0.00    -0.245 NA
ATOM      2  C   UNL     1      -0.864   1.069   0.304  0.00  0.00    +0.032 C 
ATOM      3  C   UNL     1      -1.715   0.259  -0.439  0.00  0.00    +0.028 C 
ATOM      4  C   UNL     1      -1.209   2.395   0.542  0.00  0.00    +0.144 C 
ATOM      5  C   UNL     1      -2.406   2.858   0.020  0.00  0.00    +0.093 C 
ATOM      6  C   UNL     1      -2.889   0.817  -0.918  0.00  0.00    +0.097 C 
ATOM      7  C   UNL     1      -2.825   4.274   0.248  0.00  0.00    +0.055 C 
ENDROOT
BRANCH   4   8
ATOM      8  O   UNL     1      -0.398   3.210   1.266  0.00  0.00    -0.505 OA
ATOM      9  H   UNL     1       0.409   2.881   1.612  0.00  0.00    +0.292 HD
ENDBRANCH   4   8
BRANCH   2  10
ATOM     10  C   UNL     1       0.417   0.522   0.846  0.00  0.00    +0.117 C 
BRANCH  10  11
ATOM     11  N   UNL     1       1.495   0.703  -0.101  0.00  0.00    -0.323 N 
ATOM     12  H   UNL     1       1.299   1.169  -0.945  0.00  0.00    +0.147 HD
BRANCH  11  16
ATOM     13  O   UNL     1       4.695  -0.657   0.955  0.00  0.00    -0.379 OA
ATOM     14  O   UNL     1       3.730   1.019  -1.940  0.00  0.00    -0.266 OA
ATOM     15  N   UNL     1       4.975  -0.107  -0.316  0.00  0.00    -0.143 N 
ATOM     16  C   UNL     1       2.761   0.266   0.112  0.00  0.00    +0.142 C 
ATOM     17  C   UNL     1       3.845   0.459  -0.863  0.00  0.00    +0.293 C 
ATOM     18  C   UNL     1       3.358  -0.380   1.106  0.00  0.00    +0.226 C 
ATOM     19  H   UNL     1       5.858  -0.126  -0.751  0.00  0.00    +0.196 HD
ENDBRANCH  11  16
ENDBRANCH  10  11
ENDBRANCH   2  10
BRANCH   3  20
ATOM     20  C   UNL     1      -1.396  -1.168  -0.726  0.00  0.00    +0.181 C 
BRANCH  20  21
ATOM     21  O   UNL     1      -1.927  -1.989   0.308  0.00  0.00    -0.268 OA
BRANCH  21  22
ATOM     22  P   UNL     1      -1.702  -3.587   0.208  0.00  0.00    +0.473 P 
ATOM     23  O   UNL     1      -2.292  -4.383   1.335  0.00  0.00    -0.227 OA
BRANCH  22  24
ATOM     24  O   UNL     1      -0.104  -3.740   0.015  0.00  0.00    -0.303 OA
ATOM     25  H   UNL     1       0.185  -3.193  -0.731  0.00  0.00    +0.222 HD
ENDBRANCH  22  24
BRANCH  22  26
ATOM     26  O   UNL     1      -2.289  -3.939  -1.257  0.00  0.00    -0.303 OA
ATOM     27  H   UNL     1      -1.856  -3.381  -1.921  0.00  0.00    +0.222 HD
ENDBRANCH  22  26
ENDBRANCH  21  22
ENDBRANCH  20  21
ENDBRANCH   3  20
TORSDOF 9
