REMARK  Name = 6101
REMARK  1 active torsions:
REMARK  status: ('A' for Active; 'I' for Inactive)
REMARK    1  A    between atoms: C_1  and  S_8
REMARK                            x       y       z     vdW  Elec       q    Type
REMARK                         _______ _______ _______ _____ _____    ______ ____
ROOT
ATOM      1  C   UNL     1       0.396  -0.001   0.048  0.00  0.00    +0.112 C 
ATOM      2  C   UNL     1      -2.393   0.002  -0.016  0.00  0.00    -0.022 C 
ATOM      3  C   UNL     1      -0.300   1.208   0.037  0.00  0.00    +0.019 C 
ATOM      4  C   UNL     1      -0.303  -1.208   0.027  0.00  0.00    +0.019 C 
ATOM      5  C   UNL     1      -1.695   1.209   0.005  0.00  0.00    -0.003 C 
ATOM      6  C   UNL     1      -1.697  -1.207  -0.005  0.00  0.00    -0.003 C 
ATOM      7  C   UNL     1      -3.885   0.004  -0.048  0.00  0.00    +0.031 C 
ENDROOT
BRANCH   1   8
ATOM      8  S   UNL     1       2.141  -0.003   0.088  0.00  0.00    +0.042 S 
ATOM      9  O   UNL     1       2.607   0.004  -1.479  0.00  0.00    -0.065 OA
ATOM     10  O   UNL     1       2.579   1.260   0.667  0.00  0.00    -0.065 OA
ATOM     11  O   UNL     1       2.550  -1.269   0.676  0.00  0.00    -0.065 OA
ENDBRANCH   1   8
TORSDOF 1
