REMARK  Name = 13195
REMARK  0 active torsions:
REMARK  status: ('A' for Active; 'I' for Inactive)
REMARK                            x       y       z     vdW  Elec       q    Type
REMARK                         _______ _______ _______ _____ _____    ______ ____
ROOT
ATOM      1  N   UNL     1      -0.011  -1.082   0.000  0.00  0.00    -0.319 N 
ATOM      2  N   UNL     1      -1.455   0.606   0.000  0.00  0.00    -0.315 N 
ATOM      3  C   UNL     1       0.744   0.057   0.000  0.00  0.00    +0.038 C 
ATOM      4  C   UNL     1       2.215   0.036   0.000  0.00  0.00    +0.048 C 
ATOM      5  C   UNL     1      -0.169   1.085   0.000  0.00  0.00    +0.069 C 
ATOM      6  C   UNL     1      -1.325  -0.702   0.000  0.00  0.00    +0.182 C 
ATOM      7  H   UNL     1       0.328  -2.006   0.000  0.00  0.00    +0.148 HD
ATOM      8  H   UNL     1      -2.290   1.127   0.001  0.00  0.00    +0.148 HD
ENDROOT
TORSDOF 0
