REMARK  Name = 6540253
REMARK  4 active torsions:
REMARK  status: ('A' for Active; 'I' for Inactive)
REMARK    1  A    between atoms: C_1  and  C_4
REMARK    2  A    between atoms: C_1  and  N_7
REMARK    3  A    between atoms: C_1  and  C_11
REMARK    4  A    between atoms: C_11  and  S_12
REMARK                            x       y       z     vdW  Elec       q    Type
REMARK                         _______ _______ _______ _____ _____    ______ ____
ROOT
ATOM      1  C   UNL     1       0.084   0.707  -0.336  0.00  0.00    +0.023 C 
ENDROOT
BRANCH   1   4
ATOM      2  O   UNL     1      -0.655  -1.132   1.067  0.00  0.00    -0.278 OA
ATOM      3  N   UNL     1      -1.873  -0.642  -0.818  0.00  0.00    -0.330 N 
ATOM      4  C   UNL     1      -0.825  -0.453   0.057  0.00  0.00    +0.200 C 
ATOM      5  H   UNL     1      -2.522  -1.365  -0.659  0.00  0.00    +0.145 HD
ATOM      6  H   UNL     1      -1.972  -0.055  -1.601  0.00  0.00    +0.145 HD
ENDBRANCH   1   4
BRANCH   1   7
ATOM      7  N   UNL     1      -0.546   1.904   0.228  0.00  0.00    +0.388 N 
ATOM      8  H   UNL     1       0.017   2.724  -0.001  0.00  0.00    -0.089 HD
ATOM      9  H   UNL     1      -0.611   1.809   1.241  0.00  0.00    -0.089 HD
ATOM     10  H   UNL     1      -1.481   2.013  -0.164  0.00  0.00    -0.089 HD
ENDBRANCH   1   7
BRANCH   1  11
ATOM     11  C   UNL     1       1.505   0.562   0.215  0.00  0.00    +0.040 C 
BRANCH  11  12
ATOM     12  S   UNL     1       2.310  -0.945  -0.414  0.00  0.00    -0.170 S 
ATOM     13  H   UNL     1       3.567  -1.035   0.098  0.00  0.00    +0.102 HD
ENDBRANCH  11  12
ENDBRANCH   1  11
TORSDOF 4
