67874
  -OEChem-09071812053D

 16 16  0     0  0  0  0  0  0999 V2000
   -2.4697    1.2552    0.0003 F   0  0  0  0  0  0  0  0  0  0  0  0
   -2.4706   -0.6278   -1.0865 F   0  0  0  0  0  0  0  0  0  0  0  0
   -2.4451   -0.6313    1.0937 F   0  0  0  0  0  0  0  0  0  0  0  0
    3.6954    0.0010   -0.0009 O   0  0  0  0  0  0  0  0  0  0  0  0
   -0.4554    0.0006   -0.0005 C   0  0  0  0  0  0  0  0  0  0  0  0
    0.2421    1.2085    0.0010 C   0  0  0  0  0  0  0  0  0  0  0  0
    0.2419   -1.2075   -0.0024 C   0  0  0  0  0  0  0  0  0  0  0  0
   -1.9466    0.0004   -0.0008 C   0  0  0  0  0  0  0  0  0  0  0  0
    1.6370    1.2083    0.0004 C   0  0  0  0  0  0  0  0  0  0  0  0
    1.6368   -1.2076   -0.0028 C   0  0  0  0  0  0  0  0  0  0  0  0
    2.3343    0.0003   -0.0014 C   0  0  0  0  0  0  0  0  0  0  0  0
   -0.2821    2.1602    0.0025 H   0  0  0  0  0  0  0  0  0  0  0  0
   -0.2926   -2.1538   -0.0037 H   0  0  0  0  0  0  0  0  0  0  0  0
    2.1687    2.1560    0.0016 H   0  0  0  0  0  0  0  0  0  0  0  0
    2.1745   -2.1518   -0.0041 H   0  0  0  0  0  0  0  0  0  0  0  0
    4.0100    0.9214    0.0003 H   0  0  0  0  0  0  0  0  0  0  0  0
  1  8  1  0  0  0  0
  2  8  1  0  0  0  0
  3  8  1  0  0  0  0
  4 11  1  0  0  0  0
  4 16  1  0  0  0  0
  5  6  2  0  0  0  0
  5  7  1  0  0  0  0
  5  8  1  0  0  0  0
  6  9  1  0  0  0  0
  6 12  1  0  0  0  0
  7 10  2  0  0  0  0
  7 13  1  0  0  0  0
  9 11  2  0  0  0  0
  9 14  1  0  0  0  0
 10 11  1  0  0  0  0
 10 15  1  0  0  0  0
M  END
> <DATABASE_ID>
DB03610

> <DATABASE_NAME>
drugbank

> <ORIGINAL_SOURCE>
PUBCHEM

> <ORIGINAL_SOURCE_URL>
https://pubchem.ncbi.nlm.nih.gov/rest/pug/compound/inchikey/BAYGVMXZJBFEMB-UHFFFAOYSA-N/SDF?record_type=3d

> <SMILES>
OC1=CC=C(C=C1)C(F)(F)F

> <INCHI_IDENTIFIER>
InChI=1S/C7H5F3O/c8-7(9,10)5-1-3-6(11)4-2-5/h1-4,11H

> <INCHI_KEY>
BAYGVMXZJBFEMB-UHFFFAOYSA-N

> <FORMULA>
C7H5F3O

> <MOLECULAR_WEIGHT>
162.1092

> <EXACT_MASS>
162.029249397

> <JCHEM_ACCEPTOR_COUNT>
1

> <JCHEM_ATOM_COUNT>
16

> <JCHEM_AVERAGE_POLARIZABILITY>
12.232056147628182

> <JCHEM_BIOAVAILABILITY>
1

> <JCHEM_DONOR_COUNT>
1

> <JCHEM_FORMAL_CHARGE>
0

> <JCHEM_GHOSE_FILTER>
0

> <JCHEM_IUPAC>
4-(trifluoromethyl)phenol

> <ALOGPS_LOGP>
2.65

> <JCHEM_LOGP>
2.5475289759999997

> <ALOGPS_LOGS>
-1.51

> <JCHEM_MDDR_LIKE_RULE>
0

> <JCHEM_NUMBER_OF_RINGS>
1

> <JCHEM_PHYSIOLOGICAL_CHARGE>
0

> <JCHEM_PKA_STRONGEST_ACIDIC>
9.387030731676834

> <JCHEM_PKA_STRONGEST_BASIC>
-5.962199777609453

> <JCHEM_POLAR_SURFACE_AREA>
20.23

> <JCHEM_REFRACTIVITY>
34.0126

> <JCHEM_ROTATABLE_BOND_COUNT>
1

> <JCHEM_RULE_OF_FIVE>
1

> <ALOGPS_SOLUBILITY>
5.06e+00 g/l

> <JCHEM_TRADITIONAL_IUPAC>
α,α,α-trifluoro-P-cresol

> <JCHEM_VEBER_RULE>
1

> <DRUGBANK_ID>
DB03610

> <SECONDARY_ACCESSION_NUMBERS>
EXPT01405

> <DRUG_GROUPS>
experimental

> <GENERIC_NAME>
4-(trifluoromethyl)phenol

> <SYNONYMS>
4-hydroxybenzotrifluoride; 4-trifluoromethylphenol; α,α,α-trifluoro-p-cresol

$$$$
