REMARK  Name = 49867144
REMARK  7 active torsions:
REMARK  status: ('A' for Active; 'I' for Inactive)
REMARK    1  A    between atoms: C_2  and  O_7
REMARK    2  A    between atoms: C_3  and  O_17
REMARK    3  A    between atoms: C_4  and  O_9
REMARK    4  A    between atoms: C_5  and  C_14
REMARK    5  A    between atoms: C_6  and  O_11
REMARK    6  A    between atoms: C_14  and  O_15
REMARK    7  A    between atoms: O_17  and  S_18
REMARK                            x       y       z     vdW  Elec       q    Type
REMARK                         _______ _______ _______ _____ _____    ______ ____
ROOT
ATOM      1  O   UNL     1      -1.188  -1.367  -0.178  0.00  0.00    -0.317 OA
ATOM      2  C   UNL     1       0.174   1.073  -0.914  0.00  0.00    +0.175 C 
ATOM      3  C   UNL     1       0.885  -0.280  -0.898  0.00  0.00    +0.232 C 
ATOM      4  C   UNL     1      -1.033   1.057   0.034  0.00  0.00    +0.178 C 
ATOM      5  C   UNL     1      -1.927  -0.148  -0.247  0.00  0.00    +0.245 C 
ATOM      6  C   UNL     1      -0.122  -1.417  -1.129  0.00  0.00    +0.266 C 
ENDROOT
BRANCH   2   7
ATOM      7  O   UNL     1      -0.255   1.335  -2.250  0.00  0.00    -0.379 OA
ATOM      8  H   UNL     1       0.514   1.344  -2.841  0.00  0.00    +0.211 HD
ENDBRANCH   2   7
BRANCH   4   9
ATOM      9  O   UNL     1      -1.786   2.255  -0.121  0.00  0.00    -0.379 OA
ATOM     10  H   UNL     1      -1.218   3.020   0.058  0.00  0.00    +0.211 HD
ENDBRANCH   4   9
BRANCH   6  11
ATOM     11  O   UNL     1       0.522  -2.687  -1.093  0.00  0.00    -0.358 OA
ATOM     12  H   UNL     1      -0.134  -3.386  -1.241  0.00  0.00    +0.213 HD
ENDBRANCH   6  11
BRANCH   5  14
ATOM     13  O   UNL     1      -3.033  -1.269   1.582  0.00  0.00    -0.247 OA
ATOM     14  C   UNL     1      -2.955  -0.313   0.825  0.00  0.00    +0.344 C 
BRANCH  14  15
ATOM     15  O   UNL     1      -3.799   0.748   0.846  0.00  0.00    -0.478 OA
ATOM     16  H   UNL     1      -3.683   1.450   0.237  0.00  0.00    +0.295 HD
ENDBRANCH  14  15
ENDBRANCH   5  14
BRANCH   3  17
ATOM     17  O   UNL     1       1.513  -0.435   0.373  0.00  0.00    -0.195 OA
BRANCH  17  18
ATOM     18  S   UNL     1       2.941   0.300   0.662  0.00  0.00    +0.239 S 
ATOM     19  O   UNL     1       3.631  -0.637   1.805  0.00  0.00    -0.022 OA
ATOM     20  O   UNL     1       3.740   0.180  -0.543  0.00  0.00    -0.116 OA
ATOM     21  O   UNL     1       2.692   1.605   1.245  0.00  0.00    -0.116 OA
ENDBRANCH  17  18
ENDBRANCH   3  17
TORSDOF 7
