REMARK  Name = 448973
REMARK  4 active torsions:
REMARK  status: ('A' for Active; 'I' for Inactive)
REMARK    1  A    between atoms: C_6  and  C_16
REMARK    2  A    between atoms: C_16  and  C_17
REMARK    3  A    between atoms: C_18  and  O_23
REMARK    4  A    between atoms: C_20  and  O_25
REMARK                            x       y       z     vdW  Elec       q    Type
REMARK                         _______ _______ _______ _____ _____    ______ ____
ROOT
ATOM      1  F   UNL     1      -4.885   2.156  -1.502  0.00  0.00    -0.098 F 
ATOM      2  N   UNL     1      -1.606  -0.961   1.246  0.00  0.00    -0.270 NA
ATOM      3  N   UNL     1      -0.763   0.912   0.382  0.00  0.00    -0.298 N 
ATOM      4  N   UNL     1      -2.817   1.697  -0.653  0.00  0.00    -0.305 NA
ATOM      5  N   UNL     1      -4.723   0.211  -0.315  0.00  0.00    -0.305 NA
ATOM      6  C   UNL     1      -0.502  -0.167   1.089  0.00  0.00    +0.134 C 
ATOM      7  C   UNL     1      -2.643  -0.352   0.598  0.00  0.00    +0.192 C 
ATOM      8  C   UNL     1      -2.094   0.808   0.070  0.00  0.00    +0.195 C 
ATOM      9  C   UNL     1      -3.976  -0.657   0.404  0.00  0.00    +0.191 C 
ATOM     10  C   UNL     1      -4.106   1.319  -0.792  0.00  0.00    +0.299 C 
ATOM     11  H   UNL     1      -1.646  -1.814   1.736  0.00  0.00    +0.126 HD
ATOM     12  H   UNL     1      -0.141   1.633   0.133  0.00  0.00    +0.150 HD
ATOM     13  N   UNL     1      -4.542  -1.828   0.933  0.00  0.00    -0.334 N 
ATOM     14  H   UNL     1      -5.495  -2.026   0.782  0.00  0.00    +0.144 HD
ATOM     15  H   UNL     1      -3.986  -2.451   1.454  0.00  0.00    +0.144 HD
ENDROOT
BRANCH   6  16
ATOM     16  C   UNL     1       0.799  -0.542   1.674  0.00  0.00    +0.066 C 
BRANCH  16  17
ATOM     17  C   UNL     1       1.986  -0.370   0.737  0.00  0.00    +0.018 C 
ATOM     18  C   UNL     1       2.024  -1.067  -0.454  0.00  0.00    +0.135 C 
ATOM     19  C   UNL     1       2.998   0.489   1.117  0.00  0.00    +0.036 C 
ATOM     20  C   UNL     1       4.094   0.658   0.270  0.00  0.00    +0.139 C 
ATOM     21  C   UNL     1       3.119  -0.898  -1.301  0.00  0.00    +0.040 C 
ATOM     22  C   UNL     1       4.154  -0.036  -0.939  0.00  0.00    +0.040 C 
BRANCH  18  23
ATOM     23  O   UNL     1       1.022  -1.914  -0.822  0.00  0.00    -0.472 OA
ATOM     24  C   UNL     1       1.165  -2.582  -2.073  0.00  0.00    +0.252 C 
ENDBRANCH  18  23
BRANCH  20  25
ATOM     25  O   UNL     1       5.103   1.500   0.622  0.00  0.00    -0.471 OA
ATOM     26  C   UNL     1       6.193   1.625  -0.291  0.00  0.00    +0.252 C 
ENDBRANCH  20  25
ENDBRANCH  16  17
ENDBRANCH   6  16
TORSDOF 4
