REMARK  Name = 447834
REMARK  5 active torsions:
REMARK  status: ('A' for Active; 'I' for Inactive)
REMARK    1  A    between atoms: C_1  and  C_15
REMARK    2  A    between atoms: C_4  and  C_8
REMARK    3  A    between atoms: C_8  and  C_11
REMARK    4  A    between atoms: C_15  and  C_18
REMARK    5  A    between atoms: C_18  and  O_19
REMARK                            x       y       z     vdW  Elec       q    Type
REMARK                         _______ _______ _______ _____ _____    ______ ____
ROOT
ATOM      1  C   UNL     1       2.455   0.427   0.242  0.00  0.00    -0.012 C 
ATOM      2  C   UNL     1       1.846   0.392  -1.013  0.00  0.00    -0.004 C 
ATOM      3  C   UNL     1       1.705   0.756   1.371  0.00  0.00    -0.004 C 
ATOM      4  C   UNL     1      -0.261   1.015  -0.008  0.00  0.00    +0.039 C 
ATOM      5  C   UNL     1       0.488   0.686  -1.138  0.00  0.00    +0.003 C 
ATOM      6  C   UNL     1       0.347   1.050   1.247  0.00  0.00    +0.003 C 
ENDROOT
BRANCH   4   8
ATOM      7  O   UNL     1      -1.992   2.509  -0.322  0.00  0.00    -0.286 OA
ATOM      8  C   UNL     1      -1.677   1.321  -0.138  0.00  0.00    +0.201 C 
BRANCH   8  11
ATOM      9  I   UNL     1      -6.794  -1.516  -0.006  0.00  0.00    -0.035 I 
ATOM     10  S   UNL     1      -4.318   0.716  -0.201  0.00  0.00    -0.078 S 
ATOM     11  C   UNL     1      -2.701   0.260  -0.037  0.00  0.00    +0.069 C 
ATOM     12  C   UNL     1      -2.493  -1.052   0.176  0.00  0.00    +0.011 C 
ATOM     13  C   UNL     1      -3.733  -1.752   0.209  0.00  0.00    +0.013 C 
ATOM     14  C   UNL     1      -4.807  -0.911   0.018  0.00  0.00    +0.059 C 
ENDBRANCH   8  11
ENDBRANCH   4   8
BRANCH   1  15
ATOM     15  C   UNL     1       3.906   0.113   0.375  0.00  0.00    +0.121 C 
ATOM     16  C   UNL     1       4.825   1.080  -0.399  0.00  0.00    +0.016 C 
BRANCH  15  18
ATOM     17  O   UNL     1       3.415  -2.132  -0.455  0.00  0.00    -0.250 OA
ATOM     18  C   UNL     1       4.237  -1.326  -0.037  0.00  0.00    +0.317 C 
BRANCH  18  19
ATOM     19  O   UNL     1       5.551  -1.636   0.116  0.00  0.00    -0.480 OA
ATOM     20  H   UNL     1       6.150  -0.992   0.439  0.00  0.00    +0.295 HD
ENDBRANCH  18  19
ENDBRANCH  15  18
ENDBRANCH   1  15
TORSDOF 5
