REMARK  Name = 13373305
REMARK  1 active torsions:
REMARK  status: ('A' for Active; 'I' for Inactive)
REMARK    1  A    between atoms: C_4  and  N_9
REMARK                            x       y       z     vdW  Elec       q    Type
REMARK                         _______ _______ _______ _____ _____    ______ ____
ROOT
ATOM      1  O   UNL     1      -1.749  -1.477  -0.003  0.00  0.00    -0.277 OA
ATOM      2  O   UNL     1       2.625  -0.056   0.123  0.00  0.00    -0.275 OA
ATOM      3  N   UNL     1       0.536  -1.076   0.107  0.00  0.00    -0.257 N 
ATOM      4  C   UNL     1      -0.823   0.732  -0.422  0.00  0.00    +0.022 C 
ATOM      5  C   UNL     1       0.597   1.232  -0.161  0.00  0.00    +0.073 C 
ATOM      6  C   UNL     1      -0.781  -0.734  -0.078  0.00  0.00    +0.208 C 
ATOM      7  C   UNL     1       1.408  -0.019   0.027  0.00  0.00    +0.226 C 
ATOM      8  H   UNL     1       0.830  -1.999   0.283  0.00  0.00    +0.157 HD
ENDROOT
BRANCH   4   9
ATOM      9  N   UNL     1      -1.813   1.399   0.406  0.00  0.00    +0.388 N 
ATOM     10  H   UNL     1      -1.840   2.392   0.171  0.00  0.00    -0.089 HD
ATOM     11  H   UNL     1      -1.564   1.289   1.389  0.00  0.00    -0.089 HD
ATOM     12  H   UNL     1      -2.731   0.986   0.239  0.00  0.00    -0.089 HD
ENDBRANCH   4   9
TORSDOF 1
