REMARK  Name = 151437
REMARK  7 active torsions:
REMARK  status: ('A' for Active; 'I' for Inactive)
REMARK    1  A    between atoms: C_2  and  O_6
REMARK    2  A    between atoms: C_3  and  O_8
REMARK    3  A    between atoms: C_4  and  C_20
REMARK    4  A    between atoms: C_5  and  O_10
REMARK    5  A    between atoms: O_10  and  C_11
REMARK    6  A    between atoms: C_16  and  N_19
REMARK    7  A    between atoms: C_20  and  O_21
REMARK                            x       y       z     vdW  Elec       q    Type
REMARK                         _______ _______ _______ _____ _____    ______ ____
ROOT
ATOM      1  O   UNL     1       1.663   0.668   0.378  0.00  0.00    -0.316 OA
ATOM      2  C   UNL     1       3.483  -0.396  -0.740  0.00  0.00    +0.173 C 
ATOM      3  C   UNL     1       2.973  -1.301   0.363  0.00  0.00    +0.210 C 
ATOM      4  C   UNL     1       2.802   0.941  -0.459  0.00  0.00    +0.177 C 
ATOM      5  C   UNL     1       1.588  -0.739   0.646  0.00  0.00    +0.318 C 
ENDROOT
BRANCH   2   6
ATOM      6  O   UNL     1       3.050  -0.892  -2.006  0.00  0.00    -0.379 OA
ATOM      7  H   UNL     1       3.483  -1.742  -2.185  0.00  0.00    +0.211 HD
ENDBRANCH   2   6
BRANCH   3   8
ATOM      8  O   UNL     1       3.799  -1.143   1.510  0.00  0.00    -0.377 OA
ATOM      9  H   UNL     1       4.680  -1.503   1.325  0.00  0.00    +0.211 HD
ENDBRANCH   3   8
BRANCH   5  10
ATOM     10  O   UNL     1       0.644  -1.363  -0.217  0.00  0.00    -0.451 OA
BRANCH  10  11
ATOM     11  C   UNL     1      -0.646  -0.909  -0.149  0.00  0.00    +0.141 C 
ATOM     12  C   UNL     1      -1.343  -0.991   1.051  0.00  0.00    +0.039 C 
ATOM     13  C   UNL     1      -1.247  -0.369  -1.281  0.00  0.00    +0.039 C 
ATOM     14  C   UNL     1      -2.657  -0.527   1.121  0.00  0.00    +0.027 C 
ATOM     15  C   UNL     1      -2.561   0.095  -1.212  0.00  0.00    +0.027 C 
ATOM     16  C   UNL     1      -3.266   0.015  -0.011  0.00  0.00    +0.143 C 
BRANCH  16  19
ATOM     17  O   UNL     1      -5.221   0.403   1.149  0.00  0.00    -0.126 OA
ATOM     18  O   UNL     1      -5.133   0.970  -0.970  0.00  0.00    -0.126 OA
ATOM     19  N   UNL     1      -4.604   0.485   0.059  0.00  0.00    +0.058 N 
ENDBRANCH  16  19
ENDBRANCH  10  11
ENDBRANCH   5  10
BRANCH   4  20
ATOM     20  C   UNL     1       3.697   1.924   0.284  0.00  0.00    +0.169 C 
BRANCH  20  21
ATOM     21  O   UNL     1       2.980   3.129   0.485  0.00  0.00    -0.379 OA
ATOM     22  H   UNL     1       3.541   3.764   0.958  0.00  0.00    +0.211 HD
ENDBRANCH  20  21
ENDBRANCH   4  20
TORSDOF 7
