REMARK  Name = 1682
REMARK  6 active torsions:
REMARK  status: ('A' for Active; 'I' for Inactive)
REMARK    1  A    between atoms: P_1  and  O_3
REMARK    2  A    between atoms: P_1  and  O_5
REMARK    3  A    between atoms: P_1  and  C_7
REMARK    4  A    between atoms: C_7  and  C_8
REMARK    5  A    between atoms: C_8  and  C_10
REMARK    6  A    between atoms: C_10  and  O_11
REMARK                            x       y       z     vdW  Elec       q    Type
REMARK                         _______ _______ _______ _____ _____    ______ ____
ROOT
ATOM      1  P   UNL     1      -1.860  -0.067  -0.080  0.00  0.00    +0.337 P 
ATOM      2  O   UNL     1      -2.136  -0.968  -1.231  0.00  0.00    -0.258 OA
ENDROOT
BRANCH   1   3
ATOM      3  O   UNL     1      -2.764   1.262   0.017  0.00  0.00    -0.324 OA
ATOM      4  H   UNL     1      -3.702   1.015   0.018  0.00  0.00    +0.220 HD
ENDBRANCH   1   3
BRANCH   1   5
ATOM      5  O   UNL     1      -1.980  -0.726   1.384  0.00  0.00    -0.324 OA
ATOM      6  H   UNL     1      -2.859  -1.123   1.489  0.00  0.00    +0.220 HD
ENDBRANCH   1   5
BRANCH   1   7
ATOM      7  C   UNL     1      -0.181   0.602  -0.069  0.00  0.00    +0.127 C 
BRANCH   7   8
ATOM      8  C   UNL     1       0.873  -0.492  -0.001  0.00  0.00    +0.122 C 
BRANCH   8  10
ATOM      9  O   UNL     1       2.568   1.250  -0.083  0.00  0.00    -0.250 OA
ATOM     10  C   UNL     1       2.276   0.065  -0.011  0.00  0.00    +0.314 C 
BRANCH  10  11
ATOM     11  O   UNL     1       3.203  -0.925   0.073  0.00  0.00    -0.480 OA
ATOM     12  H   UNL     1       2.930  -1.820   0.127  0.00  0.00    +0.295 HD
ENDBRANCH  10  11
ENDBRANCH   8  10
ENDBRANCH   7   8
ENDBRANCH   1   7
TORSDOF 6
