REMARK  Name = 12793
REMARK  4 active torsions:
REMARK  status: ('A' for Active; 'I' for Inactive)
REMARK    1  A    between atoms: O_1  and  C_2
REMARK    2  A    between atoms: O_1  and  P_8
REMARK    3  A    between atoms: P_8  and  O_10
REMARK    4  A    between atoms: P_8  and  O_12
REMARK                            x       y       z     vdW  Elec       q    Type
REMARK                         _______ _______ _______ _____ _____    ______ ____
ROOT
ATOM      1  O   UNL     1       0.829  -0.879  -0.081  0.00  0.00    -0.403 OA
ENDROOT
BRANCH   1   2
ATOM      2  C   UNL     1      -0.460  -0.444  -0.044  0.00  0.00    +0.149 C 
ATOM      3  C   UNL     1      -0.734   0.923   0.003  0.00  0.00    +0.037 C 
ATOM      4  C   UNL     1      -1.507  -1.365  -0.052  0.00  0.00    +0.037 C 
ATOM      5  C   UNL     1      -2.055   1.369   0.042  0.00  0.00    +0.003 C 
ATOM      6  C   UNL     1      -2.829  -0.919  -0.013  0.00  0.00    +0.003 C 
ATOM      7  C   UNL     1      -3.102   0.448   0.034  0.00  0.00    +0.000 C 
ENDBRANCH   1   2
BRANCH   1   8
ATOM      8  P   UNL     1       2.137   0.075  -0.075  0.00  0.00    +0.528 P 
ATOM      9  O   UNL     1       2.233   1.037  -1.224  0.00  0.00    -0.216 OA
BRANCH   8  10
ATOM     10  O   UNL     1       2.133   0.742   1.398  0.00  0.00    -0.293 OA
ATOM     11  H   UNL     1       2.069   0.044   2.069  0.00  0.00    +0.223 HD
ENDBRANCH   8  10
BRANCH   8  12
ATOM     12  O   UNL     1       3.354  -0.987   0.011  0.00  0.00    -0.293 OA
ATOM     13  H   UNL     1       3.221  -1.570   0.775  0.00  0.00    +0.223 HD
ENDBRANCH   8  12
ENDBRANCH   1   8
TORSDOF 4
