REMARK  Name = 6923517
REMARK  4 active torsions:
REMARK  status: ('A' for Active; 'I' for Inactive)
REMARK    1  A    between atoms: CG_2  and  CB_11
REMARK    2  A    between atoms: CB_11  and  CA_12
REMARK    3  A    between atoms: CA_12  and  N_13
REMARK    4  A    between atoms: CA_12  and  C_19
REMARK                            x       y       z     vdW  Elec       q    Type
REMARK                         _______ _______ _______ _____ _____    ______ ____
ROOT
ATOM      1  NE1 TRP A   1      -1.156   1.981  -0.348  0.00  0.00    -0.312 N 
ATOM      2  CG  TRP A   1       0.129   0.214  -0.739  0.00  0.00    -0.008 C 
ATOM      3  CD2 TRP A   1      -1.143  -0.249  -0.302  0.00  0.00    +0.011 C 
ATOM      4  CE2 TRP A   1      -1.930   0.879  -0.063  0.00  0.00    +0.048 C 
ATOM      5  CD1 TRP A   1       0.091   1.589  -0.757  0.00  0.00    +0.058 C 
ATOM      6  CE3 TRP A   1      -1.702  -1.524  -0.085  0.00  0.00    +0.001 C 
ATOM      7  CZ2 TRP A   1      -3.254   0.796   0.383  0.00  0.00    +0.015 C 
ATOM      8  CZ3 TRP A   1      -3.025  -1.623   0.361  0.00  0.00    +0.000 C 
ATOM      9  CH2 TRP A   1      -3.788  -0.479   0.590  0.00  0.00    +0.001 C 
ATOM     10  HE1 TRP A   1      -1.455   2.916  -0.269  0.00  0.00    +0.152 HD
ENDROOT
BRANCH   2  11
ATOM     11  CB  TRP A   1       1.290  -0.621  -1.109  0.00  0.00    +0.017 C 
BRANCH  11  12
ATOM     12  CA  TRP A   1       2.230  -0.944   0.073  0.00  0.00    +0.045 C 
BRANCH  12  13
ATOM     13  N   TRP A   1       3.273  -1.902  -0.413  0.00  0.00    +0.389 N 
ATOM     14  H1  TRP A   1       2.820  -2.731  -0.797  0.00  0.00    -0.088 HD
ATOM     15  H2  TRP A   1       3.874  -2.173   0.365  0.00  0.00    -0.088 HD
ATOM     16  H3  TRP A   1       3.834  -1.455  -1.137  0.00  0.00    -0.088 HD
ENDBRANCH  12  13
BRANCH  12  19
ATOM     17  O   TRP A   1       3.511   1.028  -0.153  0.00  0.00    -0.248 OA
ATOM     18  OXT TRP A   1       2.627   0.525   1.895  0.00  0.00    -0.248 OA
ATOM     19  C   TRP A   1       2.848   0.331   0.667  0.00  0.00    +0.345 C 
ENDBRANCH  12  19
ENDBRANCH  11  12
ENDBRANCH   2  11
TORSDOF 4
