REMARK  Name = 656959
REMARK  9 active torsions:
REMARK  status: ('A' for Active; 'I' for Inactive)
REMARK    1  A    between atoms: C_2  and  O_7
REMARK    2  A    between atoms: C_3  and  O_9
REMARK    3  A    between atoms: C_4  and  O_11
REMARK    4  A    between atoms: C_5  and  C_21
REMARK    5  A    between atoms: C_6  and  N_13
REMARK    6  A    between atoms: N_13  and  P_15
REMARK    7  A    between atoms: P_15  and  O_17
REMARK    8  A    between atoms: P_15  and  O_19
REMARK    9  A    between atoms: C_21  and  O_22
REMARK                            x       y       z     vdW  Elec       q    Type
REMARK                         _______ _______ _______ _____ _____    ______ ____
ROOT
ATOM      1  O   UNL     1       0.513   0.720  -0.436  0.00  0.00    -0.335 OA
ATOM      2  C   UNL     1       2.589  -1.145   0.219  0.00  0.00    +0.170 C 
ATOM      3  C   UNL     1       2.892   0.284  -0.234  0.00  0.00    +0.169 C 
ATOM      4  C   UNL     1       1.205  -1.602  -0.249  0.00  0.00    +0.183 C 
ATOM      5  C   UNL     1       1.731   1.219   0.122  0.00  0.00    +0.175 C 
ATOM      6  C   UNL     1       0.139  -0.553   0.094  0.00  0.00    +0.211 C 
ENDROOT
BRANCH   2   7
ATOM      7  O   UNL     1       3.579  -2.029  -0.310  0.00  0.00    -0.379 OA
ATOM      8  H   UNL     1       4.458  -1.743  -0.016  0.00  0.00    +0.211 HD
ENDBRANCH   2   7
BRANCH   3   9
ATOM      9  O   UNL     1       4.089   0.709   0.411  0.00  0.00    -0.379 OA
ATOM     10  H   UNL     1       4.814   0.108   0.176  0.00  0.00    +0.211 HD
ENDBRANCH   3   9
BRANCH   4  11
ATOM     11  O   UNL     1       0.882  -2.830   0.402  0.00  0.00    -0.378 OA
ATOM     12  H   UNL     1       1.554  -3.496   0.188  0.00  0.00    +0.211 HD
ENDBRANCH   4  11
BRANCH   6  13
ATOM     13  N   UNL     1      -1.163  -0.961  -0.436  0.00  0.00    -0.187 NA
ATOM     14  H   UNL     1      -1.230  -0.593  -1.384  0.00  0.00    +0.137 HD
BRANCH  13  15
ATOM     15  P   UNL     1      -2.529  -0.489   0.368  0.00  0.00    +0.412 P 
ATOM     16  O   UNL     1      -2.662  -0.951   1.797  0.00  0.00    -0.240 OA
BRANCH  15  17
ATOM     17  O   UNL     1      -3.815  -0.939  -0.521  0.00  0.00    -0.280 OA
ATOM     18  C   UNL     1      -3.985  -0.447  -1.840  0.00  0.00    +0.185 C 
ENDBRANCH  15  17
BRANCH  15  19
ATOM     19  O   UNL     1      -2.572   1.134   0.250  0.00  0.00    -0.280 OA
ATOM     20  C   UNL     1      -3.647   1.834   0.853  0.00  0.00    +0.185 C 
ENDBRANCH  15  19
ENDBRANCH  13  15
ENDBRANCH   6  13
BRANCH   5  21
ATOM     21  C   UNL     1       1.935   2.627  -0.427  0.00  0.00    +0.169 C 
BRANCH  21  22
ATOM     22  O   UNL     1       0.819   3.419  -0.064  0.00  0.00    -0.379 OA
ATOM     23  H   UNL     1       0.935   4.319  -0.407  0.00  0.00    +0.211 HD
ENDBRANCH  21  22
ENDBRANCH   5  21
TORSDOF 9
