REMARK  Name = 4369101
REMARK  5 active torsions:
REMARK  status: ('A' for Active; 'I' for Inactive)
REMARK    1  A    between atoms: N_5  and  C_12
REMARK    2  A    between atoms: C_6  and  N_20
REMARK    3  A    between atoms: C_11  and  S_24
REMARK    4  A    between atoms: C_15  and  O_18
REMARK    5  A    between atoms: S_24  and  N_27
REMARK                            x       y       z     vdW  Elec       q    Type
REMARK                         _______ _______ _______ _____ _____    ______ ____
ROOT
ATOM      1  S   UNL     1       0.212  -1.180  -0.064  0.00  0.00    +0.082 S 
ATOM      2  S   UNL     1      -2.731  -1.441  -0.439  0.00  0.00    -0.048 S 
ATOM      3  O   UNL     1       0.267  -2.158   1.005  0.00  0.00    -0.149 OA
ATOM      4  O   UNL     1       0.411  -1.540  -1.453  0.00  0.00    -0.149 OA
ATOM      5  N   UNL     1       1.180   0.205   0.341  0.00  0.00    -0.192 N 
ATOM      6  C   UNL     1      -0.713   1.735   0.996  0.00  0.00    -0.015 C 
ATOM      7  C   UNL     1       0.614   1.068   1.441  0.00  0.00    +0.099 C 
ATOM      8  C   UNL     1      -1.744   0.745   0.518  0.00  0.00    -0.013 C 
ATOM      9  C   UNL     1      -1.409  -0.503   0.038  0.00  0.00    +0.150 C 
ATOM     10  C   UNL     1      -3.163   0.923   0.485  0.00  0.00    +0.022 C 
ATOM     11  C   UNL     1      -3.818  -0.183  -0.015  0.00  0.00    +0.152 C 
ENDROOT
BRANCH   5  12
ATOM     12  C   UNL     1       2.599  -0.070   0.391  0.00  0.00    +0.072 C 
ATOM     13  C   UNL     1       3.416   0.324  -0.665  0.00  0.00    +0.053 C 
ATOM     14  C   UNL     1       3.138  -0.726   1.494  0.00  0.00    +0.016 C 
ATOM     15  C   UNL     1       4.785   0.059  -0.617  0.00  0.00    +0.140 C 
ATOM     16  C   UNL     1       4.506  -0.991   1.541  0.00  0.00    +0.004 C 
ATOM     17  C   UNL     1       5.330  -0.599   0.486  0.00  0.00    +0.037 C 
BRANCH  15  18
ATOM     18  O   UNL     1       5.588   0.442  -1.647  0.00  0.00    -0.471 OA
ATOM     19  C   UNL     1       6.978   0.139  -1.533  0.00  0.00    +0.252 C 
ENDBRANCH  15  18
ENDBRANCH   5  12
BRANCH   6  20
ATOM     20  N   UNL     1      -0.459   2.687  -0.089  0.00  0.00    +0.387 N 
ATOM     21  C   UNL     1      -1.677   3.397  -0.443  0.00  0.00    -0.105 C 
ATOM     22  H   UNL     1      -0.117   2.180  -0.905  0.00  0.00    -0.084 HD
ATOM     23  H   UNL     1       0.236   3.364   0.224  0.00  0.00    -0.084 HD
ENDBRANCH   6  20
BRANCH  11  24
ATOM     24  S   UNL     1      -5.514  -0.552  -0.295  0.00  0.00    +0.063 S 
ATOM     25  O   UNL     1      -5.622  -2.006  -0.241  0.00  0.00    -0.153 OA
ATOM     26  O   UNL     1      -6.244   0.281   0.652  0.00  0.00    -0.153 OA
BRANCH  24  27
ATOM     27  N   UNL     1      -5.929  -0.055  -1.886  0.00  0.00    -0.203 NA
ATOM     28  H   UNL     1      -6.912  -0.264  -2.062  0.00  0.00    +0.144 HD
ATOM     29  H   UNL     1      -5.350  -0.555  -2.561  0.00  0.00    +0.144 HD
ENDBRANCH  24  27
ENDBRANCH  11  24
TORSDOF 5
