REMARK  Name = 6954
REMARK  4 active torsions:
REMARK  status: ('A' for Active; 'I' for Inactive)
REMARK    1  A    between atoms: C_1  and  N_9
REMARK    2  A    between atoms: C_2  and  N_12
REMARK    3  A    between atoms: C_3  and  O_16
REMARK    4  A    between atoms: C_4  and  N_15
REMARK                            x       y       z     vdW  Elec       q    Type
REMARK                         _______ _______ _______ _____ _____    ______ ____
ROOT
ATOM      1  C   UNL     1       0.532   1.208   0.000  0.00  0.00    +0.180 C 
ATOM      2  C   UNL     1       0.535  -1.208   0.001  0.00  0.00    +0.180 C 
ATOM      3  C   UNL     1       1.231   0.001   0.001  0.00  0.00    +0.179 C 
ATOM      4  C   UNL     1      -1.559  -0.002   0.000  0.00  0.00    +0.146 C 
ATOM      5  C   UNL     1      -0.863   1.207   0.000  0.00  0.00    +0.051 C 
ATOM      6  C   UNL     1      -0.860  -1.209   0.000  0.00  0.00    +0.051 C 
ENDROOT
BRANCH   1   9
ATOM      7  O   UNL     1       0.559   3.514  -0.001  0.00  0.00    -0.126 OA
ATOM      8  O   UNL     1       2.477   2.447   0.000  0.00  0.00    -0.126 OA
ATOM      9  N   UNL     1       1.224   2.452   0.000  0.00  0.00    +0.061 N 
ENDBRANCH   1   9
BRANCH   2  12
ATOM     10  O   UNL     1       0.567  -3.513  -0.001  0.00  0.00    -0.126 OA
ATOM     11  O   UNL     1       2.483  -2.442   0.000  0.00  0.00    -0.126 OA
ATOM     12  N   UNL     1       1.229  -2.449   0.000  0.00  0.00    +0.061 N 
ENDBRANCH   2  12
BRANCH   4  15
ATOM     13  O   UNL     1      -3.588   1.094   0.000  0.00  0.00    -0.126 OA
ATOM     14  O   UNL     1      -3.586  -1.101   0.000  0.00  0.00    -0.126 OA
ATOM     15  N   UNL     1      -2.979  -0.003   0.000  0.00  0.00    +0.058 N 
ENDBRANCH   4  15
BRANCH   3  16
ATOM     16  O   UNL     1       2.597   0.002   0.000  0.00  0.00    -0.503 OA
ATOM     17  H   UNL     1       3.065   0.814   0.000  0.00  0.00    +0.292 HD
ENDBRANCH   3  16
TORSDOF 4
