REMARK  Name = 11295
REMARK  5 active torsions:
REMARK  status: ('A' for Active; 'I' for Inactive)
REMARK    1  A    between atoms: N_1  and  C_4
REMARK    2  A    between atoms: C_2  and  C_3
REMARK    3  A    between atoms: C_2  and  C_11
REMARK    4  A    between atoms: C_2  and  C_20
REMARK    5  A    between atoms: C_12  and  N_17
REMARK                            x       y       z     vdW  Elec       q    Type
REMARK                         _______ _______ _______ _____ _____    ______ ____
ROOT
ATOM      1  C   UNL     1      -0.079   0.748  -0.008  0.00  0.00    +0.067 C 
ENDROOT
BRANCH   1   2
ATOM      2  C   UNL     1      -1.162  -0.047   0.002  0.00  0.00    -0.014 C 
ATOM      3  C   UNL     1      -3.440  -1.722   0.027  0.00  0.00    +0.048 C 
ATOM      4  C   UNL     1      -2.496   0.532   0.001  0.00  0.00    -0.002 C 
ATOM      5  C   UNL     1      -1.006  -1.494   0.016  0.00  0.00    -0.002 C 
ATOM      6  C   UNL     1      -3.589  -0.243   0.013  0.00  0.00    +0.014 C 
ATOM      7  C   UNL     1      -2.072  -2.306   0.028  0.00  0.00    +0.014 C 
BRANCH   3   8
ATOM      8  N   UNL     1      -4.475  -2.483   0.037  0.00  0.00    -0.304 N 
ATOM      9  C   UNL     1      -4.350  -3.963   0.051  0.00  0.00    +0.112 C 
ATOM     10  C   UNL     1      -5.851  -1.923   0.036  0.00  0.00    +0.112 C 
ENDBRANCH   3   8
ENDBRANCH   1   2
BRANCH   1  11
ATOM     11  C   UNL     1       1.263   0.110  -0.005  0.00  0.00    -0.014 C 
ATOM     12  C   UNL     1       3.753  -1.074   0.001  0.00  0.00    +0.048 C 
ATOM     13  C   UNL     1       1.867  -0.164   1.204  0.00  0.00    -0.002 C 
ATOM     14  C   UNL     1       1.861  -0.188  -1.212  0.00  0.00    -0.002 C 
ATOM     15  C   UNL     1       3.126  -0.763   1.207  0.00  0.00    +0.014 C 
ATOM     16  C   UNL     1       3.121  -0.787  -1.209  0.00  0.00    +0.014 C 
BRANCH  12  17
ATOM     17  N   UNL     1       5.027  -1.681   0.004  0.00  0.00    -0.304 N 
ATOM     18  C   UNL     1       5.960  -1.421   1.082  0.00  0.00    +0.112 C 
ATOM     19  C   UNL     1       5.413  -2.582  -1.064  0.00  0.00    +0.112 C 
ENDBRANCH  12  17
ENDBRANCH   1  11
BRANCH   1  20
ATOM     20  C   UNL     1      -0.287   2.220  -0.022  0.00  0.00    -0.014 C 
ATOM     21  C   UNL     1      -0.382   2.867  -1.236  0.00  0.00    -0.004 C 
ATOM     22  C   UNL     1      -0.378   2.891   1.179  0.00  0.00    -0.004 C 
ATOM     23  C   UNL     1      -0.578   4.248  -1.250  0.00  0.00    -0.000 C 
ATOM     24  C   UNL     1      -0.573   4.272   1.166  0.00  0.00    -0.000 C 
ATOM     25  C   UNL     1      -0.673   4.951  -0.048  0.00  0.00    -0.000 C 
ENDBRANCH   1  20
TORSDOF 5
