REMARK  Name = 445722
REMARK  7 active torsions:
REMARK  status: ('A' for Active; 'I' for Inactive)
REMARK    1  A    between atoms: C_2  and  O_13
REMARK    2  A    between atoms: C_3  and  O_15
REMARK    3  A    between atoms: C_4  and  O_17
REMARK    4  A    between atoms: C_5  and  C_19
REMARK    5  A    between atoms: C_6  and  N_8
REMARK    6  A    between atoms: C_9  and  O_11
REMARK    7  A    between atoms: C_19  and  O_20
REMARK                            x       y       z     vdW  Elec       q    Type
REMARK                         _______ _______ _______ _____ _____    ______ ____
ROOT
ATOM      1  O   UNL     1       0.236   0.838  -0.380  0.00  0.00    -0.333 OA
ATOM      2  C   UNL     1       2.024  -1.323   0.222  0.00  0.00    +0.171 C 
ATOM      3  C   UNL     1       2.527   0.052  -0.218  0.00  0.00    +0.169 C 
ATOM      4  C   UNL     1       0.582  -1.565  -0.228  0.00  0.00    +0.187 C 
ATOM      5  C   UNL     1       1.521   1.142   0.169  0.00  0.00    +0.175 C 
ATOM      6  C   UNL     1      -0.307  -0.375   0.133  0.00  0.00    +0.224 C 
ENDROOT
BRANCH   6   8
ATOM      7  O   UNL     1      -2.808   0.675   1.174  0.00  0.00    -0.226 OA
ATOM      8  N   UNL     1      -1.629  -0.526  -0.424  0.00  0.00    -0.247 N 
ATOM      9  C   UNL     1      -2.767   0.011   0.143  0.00  0.00    +0.403 C 
ATOM     10  H   UNL     1      -1.725  -1.043  -1.256  0.00  0.00    +0.155 HD
BRANCH   9  11
ATOM     11  O   UNL     1      -3.857  -0.307  -0.618  0.00  0.00    -0.431 OA
ATOM     12  C   UNL     1      -5.115   0.189  -0.146  0.00  0.00    +0.257 C 
ENDBRANCH   9  11
ENDBRANCH   6   8
BRANCH   2  13
ATOM     13  O   UNL     1       2.865  -2.336  -0.334  0.00  0.00    -0.379 OA
ATOM     14  H   UNL     1       3.781  -2.187  -0.052  0.00  0.00    +0.211 HD
ENDBRANCH   2  13
BRANCH   3  15
ATOM     15  O   UNL     1       3.783   0.287   0.414  0.00  0.00    -0.379 OA
ATOM     16  H   UNL     1       4.408  -0.409   0.159  0.00  0.00    +0.211 HD
ENDBRANCH   3  15
BRANCH   4  17
ATOM     17  O   UNL     1       0.081  -2.731   0.423  0.00  0.00    -0.378 OA
ATOM     18  H   UNL     1       0.641  -3.491   0.199  0.00  0.00    +0.211 HD
ENDBRANCH   4  17
BRANCH   5  19
ATOM     19  C   UNL     1       1.924   2.514  -0.360  0.00  0.00    +0.169 C 
BRANCH  19  20
ATOM     20  O   UNL     1       0.941   3.455   0.031  0.00  0.00    -0.379 OA
ATOM     21  H   UNL     1       1.185   4.334  -0.300  0.00  0.00    +0.211 HD
ENDBRANCH  19  20
ENDBRANCH   5  19
TORSDOF 7
