REMARK  Name = 439231
REMARK  2 active torsions:
REMARK  status: ('A' for Active; 'I' for Inactive)
REMARK    1  A    between atoms: C_1  and  O_3
REMARK    2  A    between atoms: C_1  and  C_6
REMARK                            x       y       z     vdW  Elec       q    Type
REMARK                         _______ _______ _______ _____ _____    ______ ____
ROOT
ATOM      1  C   UNL     1      -0.534  -0.020  -0.431  0.00  0.00    +0.175 C 
ATOM      2  C   UNL     1      -1.619   0.735   0.313  0.00  0.00    +0.040 C 
ENDROOT
BRANCH   1   3
ATOM      3  O   UNL     1      -0.466  -1.342   0.075  0.00  0.00    -0.377 OA
ATOM      4  H   UNL     1      -1.330  -1.771  -0.026  0.00  0.00    +0.211 HD
ENDBRANCH   1   3
BRANCH   1   6
ATOM      5  O   UNL     1       1.784   0.032   0.290  0.00  0.00    -0.286 OA
ATOM      6  C   UNL     1       0.835   0.595  -0.247  0.00  0.00    +0.236 C 
ENDBRANCH   1   6
TORSDOF 2
