REMARK  Name = 448503
REMARK  4 active torsions:
REMARK  status: ('A' for Active; 'I' for Inactive)
REMARK    1  A    between atoms: N_1  and  C_10
REMARK    2  A    between atoms: C_10  and  C_11
REMARK    3  A    between atoms: C_11  and  C_12
REMARK    4  A    between atoms: C_12  and  O_13
REMARK                            x       y       z     vdW  Elec       q    Type
REMARK                         _______ _______ _______ _____ _____    ______ ____
ROOT
ATOM      1  N   UNL     1       0.598  -0.215   0.221  0.00  0.00    -0.347 N 
ATOM      2  N   UNL     1       2.759  -1.330   0.127  0.00  0.00    -0.372 N 
ATOM      3  N   UNL     1       2.581   1.011  -0.367  0.00  0.00    -0.372 N 
ATOM      4  C   UNL     1       1.976  -0.188  -0.004  0.00  0.00    +0.167 C 
ATOM      5  H   UNL     1       0.176  -1.067   0.477  0.00  0.00    +0.163 HD
ATOM      6  H   UNL     1       2.343  -2.185   0.384  0.00  0.00    +0.159 HD
ATOM      7  H   UNL     1       3.728  -1.284  -0.037  0.00  0.00    +0.159 HD
ATOM      8  H   UNL     1       2.039   1.827  -0.463  0.00  0.00    +0.159 HD
ATOM      9  H   UNL     1       3.552   1.043  -0.528  0.00  0.00    +0.159 HD
ENDROOT
BRANCH   1  10
ATOM     10  C   UNL     1      -0.240   0.974   0.088  0.00  0.00    +0.103 C 
BRANCH  10  11
ATOM     11  C   UNL     1      -1.692   0.690   0.443  0.00  0.00    +0.056 C 
BRANCH  11  12
ATOM     12  C   UNL     1      -2.319  -0.365  -0.459  0.00  0.00    +0.139 C 
BRANCH  12  13
ATOM     13  O   UNL     1      -3.663  -0.578  -0.049  0.00  0.00    -0.382 OA
ATOM     14  H   UNL     1      -4.073  -1.248  -0.617  0.00  0.00    +0.210 HD
ENDBRANCH  12  13
ENDBRANCH  11  12
ENDBRANCH  10  11
ENDBRANCH   1  10
TORSDOF 4
