REMARK  Name = 5289415
REMARK  7 active torsions:
REMARK  status: ('A' for Active; 'I' for Inactive)
REMARK    1  A    between atoms: C_1  and  C_3
REMARK    2  A    between atoms: C_1  and  C_6
REMARK    3  A    between atoms: C_1  and  C_10
REMARK    4  A    between atoms: C_3  and  O_4
REMARK    5  A    between atoms: C_6  and  C_7
REMARK    6  A    between atoms: C_10  and  N_12
REMARK    7  A    between atoms: N_12  and  O_14
REMARK                            x       y       z     vdW  Elec       q    Type
REMARK                         _______ _______ _______ _____ _____    ______ ____
ROOT
ATOM      1  C   UNL     1       0.353   0.393   0.234  0.00  0.00    +0.121 C 
ENDROOT
BRANCH   1   3
ATOM      2  O   UNL     1      -1.268   1.940  -0.738  0.00  0.00    -0.250 OA
ATOM      3  C   UNL     1      -0.471   1.665   0.148  0.00  0.00    +0.315 C 
BRANCH   3   4
ATOM      4  O   UNL     1      -0.188   2.491   1.188  0.00  0.00    -0.480 OA
ATOM      5  H   UNL     1       0.432   2.229   1.839  0.00  0.00    +0.295 HD
ENDBRANCH   3   4
ENDBRANCH   1   3
BRANCH   1   6
ATOM      6  C   UNL     1       1.722   0.553  -0.456  0.00  0.00    +0.013 C 
BRANCH   6   7
ATOM      7  C   UNL     1       2.643  -0.684  -0.371  0.00  0.00    +0.001 C 
ATOM      8  C   UNL     1       2.925  -1.110   1.070  0.00  0.00    +0.000 C 
ATOM      9  C   UNL     1       3.966  -0.390  -1.086  0.00  0.00    +0.000 C 
ENDBRANCH   6   7
ENDBRANCH   1   6
BRANCH   1  10
ATOM     10  C   UNL     1      -0.448  -0.782  -0.343  0.00  0.00    +0.135 C 
BRANCH  10  12
ATOM     11  O   UNL     1      -3.121  -0.716  -1.440  0.00  0.00    -0.263 OA
ATOM     12  N   UNL     1      -1.684  -1.035   0.349  0.00  0.00    -0.164 N 
ATOM     13  C   UNL     1      -2.903  -0.979  -0.263  0.00  0.00    +0.327 C 
BRANCH  12  14
ATOM     14  O   UNL     1      -1.526  -1.346   1.707  0.00  0.00    -0.291 OA
ATOM     15  H   UNL     1      -0.583  -1.331   1.934  0.00  0.00    +0.242 HD
ENDBRANCH  12  14
ENDBRANCH  10  12
ENDBRANCH   1  10
TORSDOF 7
