REMARK  Name = 446719
REMARK  9 active torsions:
REMARK  status: ('A' for Active; 'I' for Inactive)
REMARK    1  A    between atoms: CA_1  and  N_2
REMARK    2  A    between atoms: CA_1  and  C_7
REMARK    3  A    between atoms: CA_1  and  C_10
REMARK    4  A    between atoms: C_7  and  O_8
REMARK    5  A    between atoms: C_10  and  C_11
REMARK    6  A    between atoms: C_11  and  C_12
REMARK    7  A    between atoms: C_12  and  C_13
REMARK    8  A    between atoms: C_13  and  C_15
REMARK    9  A    between atoms: C_15  and  O_16
REMARK                            x       y       z     vdW  Elec       q    Type
REMARK                         _______ _______ _______ _____ _____    ______ ____
ROOT
ATOM      1  CA  UNL     1      -2.580   0.808  -0.267  0.00  0.00    +0.036 C 
ENDROOT
BRANCH   1   2
ATOM      2  N   UNL     1      -2.727   1.565   0.977  0.00  0.00    +0.389 N 
ATOM      3  H1  UNL     1      -2.385   2.516   0.839  0.00  0.00    -0.088 HD
ATOM      4  H2  UNL     1      -2.186   1.113   1.715  0.00  0.00    -0.088 HD
ATOM      5  H3  UNL     1      -3.710   1.592   1.244  0.00  0.00    -0.088 HD
ENDBRANCH   1   2
BRANCH   1   7
ATOM      6  OXT UNL     1      -3.481  -1.053   1.031  0.00  0.00    -0.253 OA
ATOM      7  C   UNL     1      -3.094  -0.603  -0.040  0.00  0.00    +0.293 C 
BRANCH   7   8
ATOM      8  O   UNL     1      -3.079  -1.340  -1.182  0.00  0.00    -0.482 OA
ATOM      9  H   UNL     1      -2.775  -0.958  -1.982  0.00  0.00    +0.295 HD
ENDBRANCH   7   8
ENDBRANCH   1   7
BRANCH   1  10
ATOM     10  C   UNL     1      -1.133   0.822  -0.782  0.00  0.00    -0.011 C 
BRANCH  10  11
ATOM     11  C   UNL     1      -0.097   0.220   0.179  0.00  0.00    -0.001 C 
BRANCH  11  12
ATOM     12  C   UNL     1       1.336   0.300  -0.356  0.00  0.00    +0.012 C 
BRANCH  12  13
ATOM     13  C   UNL     1       2.367  -0.324   0.579  0.00  0.00    +0.109 C 
BRANCH  13  15
ATOM     14  O   UNL     1       4.012   0.371  -1.048  0.00  0.00    -0.250 OA
ATOM     15  C   UNL     1       3.761  -0.142   0.035  0.00  0.00    +0.314 C 
BRANCH  15  16
ATOM     16  O   UNL     1       4.714  -0.623   0.872  0.00  0.00    -0.480 OA
ATOM     17  H   UNL     1       4.467  -1.007   1.691  0.00  0.00    +0.295 HD
ENDBRANCH  15  16
ENDBRANCH  13  15
ENDBRANCH  12  13
ENDBRANCH  11  12
ENDBRANCH  10  11
ENDBRANCH   1  10
TORSDOF 9
