REMARK  Name = 444765
REMARK  5 active torsions:
REMARK  status: ('A' for Active; 'I' for Inactive)
REMARK    1  A    between atoms: C_7  and  C_19
REMARK    2  A    between atoms: C_9  and  N_11
REMARK    3  A    between atoms: C_12  and  C_15
REMARK    4  A    between atoms: C_15  and  O_16
REMARK    5  A    between atoms: C_19  and  O_20
REMARK                            x       y       z     vdW  Elec       q    Type
REMARK                         _______ _______ _______ _____ _____    ______ ____
ROOT
ATOM      1  S   UNL     1      -0.171  -1.667  -0.013  0.00  0.00    -0.074 S 
ATOM      2  O   UNL     1      -4.145  -1.517   0.354  0.00  0.00    -0.348 OA
ATOM      3  C   UNL     1      -1.972   0.165   0.004  0.00  0.00    -0.007 A 
ATOM      4  C   UNL     1      -3.342   0.758   0.028  0.00  0.00    +0.059 C 
ATOM      5  C   UNL     1      -1.806  -1.205  -0.002  0.00  0.00    +0.034 A 
ATOM      6  C   UNL     1      -4.374  -0.302  -0.379  0.00  0.00    +0.147 C 
ATOM      7  C   UNL     1      -0.722   0.847   0.008  0.00  0.00    +0.091 A 
ATOM      8  C   UNL     1      -2.929  -2.186  -0.034  0.00  0.00    +0.175 C 
ATOM      9  C   UNL     1       0.342  -0.031  -0.001  0.00  0.00    +0.087 A 
ENDROOT
BRANCH   9  11
ATOM     10  O   UNL     1       2.595  -2.003  -0.022  0.00  0.00    -0.263 OA
ATOM     11  N   UNL     1       1.693   0.187   0.000  0.00  0.00    -0.270 N 
ATOM     12  C   UNL     1       2.695  -0.787  -0.010  0.00  0.00    +0.326 C 
ATOM     13  H   UNL     1       1.990   1.125   0.009  0.00  0.00    +0.156 HD
BRANCH  12  15
ATOM     14  O   UNL     1       4.296   1.011   0.007  0.00  0.00    -0.240 OA
ATOM     15  C   UNL     1       4.088  -0.186  -0.004  0.00  0.00    +0.393 C 
BRANCH  15  16
ATOM     16  O   UNL     1       5.012  -1.158  -0.015  0.00  0.00    -0.474 OA
ATOM     17  H   UNL     1       4.747  -2.057  -0.023  0.00  0.00    +0.296 HD
ENDBRANCH  15  16
ENDBRANCH  12  15
ENDBRANCH   9  11
BRANCH   7  19
ATOM     18  O   UNL     1      -1.470   3.102   0.034  0.00  0.00    -0.245 OA
ATOM     19  C   UNL     1      -0.548   2.277   0.022  0.00  0.00    +0.339 C 
BRANCH  19  20
ATOM     20  O   UNL     1       0.756   2.697   0.023  0.00  0.00    -0.477 OA
ATOM     21  H   UNL     1       1.451   2.068   0.014  0.00  0.00    +0.295 HD
ENDBRANCH  19  20
ENDBRANCH   7  19
TORSDOF 5
