REMARK  Name = 4474585
REMARK  1 active torsions:
REMARK  status: ('A' for Active; 'I' for Inactive)
REMARK    1  A    between atoms: N_1  and  C_3
REMARK                            x       y       z     vdW  Elec       q    Type
REMARK                         _______ _______ _______ _____ _____    ______ ____
ROOT
ATOM      1  N   UNL     1      -0.656  -0.126   0.000  0.00  0.00    -0.374 NA
ATOM      2  C   UNL     1      -1.692   0.279   0.000  0.00  0.00    +0.129 C 
ENDROOT
BRANCH   1   3
ATOM      3  C   UNL     1       0.673  -0.644   0.000  0.00  0.00    +0.200 C 
ATOM      4  C   UNL     1       1.674   0.491   0.000  0.00  0.00    +0.045 C 
ENDBRANCH   1   3
TORSDOF 1
