REMARK  Name = 347590
REMARK  4 active torsions:
REMARK  status: ('A' for Active; 'I' for Inactive)
REMARK    1  A    between atoms: N_1  and  C_3
REMARK    2  A    between atoms: N_1  and  C_6
REMARK    3  A    between atoms: C_3  and  S_12
REMARK    4  A    between atoms: S_12  and  C_13
REMARK                            x       y       z     vdW  Elec       q    Type
REMARK                         _______ _______ _______ _____ _____    ______ ____
ROOT
ATOM      1  N   UNL     1       0.204   1.607  -0.463  0.00  0.00    -0.191 NA
ENDROOT
BRANCH   1   2
ATOM      2  C   UNL     1      -0.861   0.725  -0.255  0.00  0.00    +0.073 C 
ATOM      3  C   UNL     1      -1.627   0.819   0.907  0.00  0.00    +0.017 C 
ATOM      4  C   UNL     1      -1.156  -0.250  -1.208  0.00  0.00    +0.017 C 
ATOM      5  C   UNL     1      -2.689  -0.061   1.116  0.00  0.00    +0.001 C 
ATOM      6  C   UNL     1      -2.217  -1.131  -0.999  0.00  0.00    +0.001 C 
ATOM      7  C   UNL     1      -2.984  -1.036   0.163  0.00  0.00    +0.000 C 
ENDBRANCH   1   2
BRANCH   1   9
ATOM      8  N   UNL     1       2.567   1.963  -0.116  0.00  0.00    -0.380 N 
ATOM      9  C   UNL     1       1.385   1.272  -0.031  0.00  0.00    +0.150 C 
ATOM     10  H   UNL     1       3.391   1.578   0.262  0.00  0.00    +0.158 HD
ATOM     11  H   UNL     1       2.593   2.844  -0.555  0.00  0.00    +0.158 HD
BRANCH   9  12
ATOM     12  S   UNL     1       1.556  -0.279   0.814  0.00  0.00    -0.081 S 
BRANCH  12  13
ATOM     13  C   UNL     1       2.748  -1.129  -0.244  0.00  0.00    +0.065 C 
ATOM     14  C   UNL     1       3.075  -2.501   0.316  0.00  0.00    +0.013 C 
ENDBRANCH  12  13
ENDBRANCH   9  12
ENDBRANCH   1   9
TORSDOF 4
