REMARK  Name = 5287787
REMARK  3 active torsions:
REMARK  status: ('A' for Active; 'I' for Inactive)
REMARK    1  A    between atoms: C_1  and  C_5
REMARK    2  A    between atoms: C_1  and  C_6
REMARK    3  A    between atoms: C_6  and  N_7
REMARK                            x       y       z     vdW  Elec       q    Type
REMARK                         _______ _______ _______ _____ _____    ______ ____
ROOT
ATOM      1  C   UNL     1       0.239   0.251   0.429  0.00  0.00    +0.082 C 
ATOM      2  C   UNL     1       0.596   1.687   0.056  0.00  0.00    +0.010 C 
ENDROOT
BRANCH   1   5
ATOM      3  O   UNL     1      -1.396  -0.065  -1.251  0.00  0.00    -0.246 OA
ATOM      4  O   UNL     1      -1.988  -0.458   0.919  0.00  0.00    -0.246 OA
ATOM      5  C   UNL     1      -1.191  -0.129  -0.004  0.00  0.00    +0.362 C 
ENDBRANCH   1   5
BRANCH   1   6
ATOM      6  C   UNL     1       1.169  -0.775  -0.230  0.00  0.00    -0.075 C 
BRANCH   6   7
ATOM      7  N   UNL     1       2.571  -0.510   0.081  0.00  0.00    +0.381 N 
ATOM      8  H   UNL     1       3.157  -1.211  -0.373  0.00  0.00    -0.089 HD
ATOM      9  H   UNL     1       2.709  -0.553   1.090  0.00  0.00    -0.089 HD
ATOM     10  H   UNL     1       2.824   0.417  -0.259  0.00  0.00    -0.089 HD
ENDBRANCH   6   7
ENDBRANCH   1   6
TORSDOF 3
