REMARK  Name = 4369374
REMARK  2 active torsions:
REMARK  status: ('A' for Active; 'I' for Inactive)
REMARK    1  A    between atoms: C_5  and  N_13
REMARK    2  A    between atoms: C_6  and  N_14
REMARK                            x       y       z     vdW  Elec       q    Type
REMARK                         _______ _______ _______ _____ _____    ______ ____
ROOT
ATOM      1  O   UNL     1      -1.693   2.374   0.000  0.00  0.00    -0.266 OA
ATOM      2  O   UNL     1      -2.370  -2.181   0.000  0.00  0.00    -0.247 OA
ATOM      3  N   UNL     1      -0.222  -1.362   0.000  0.00  0.00    -0.287 N 
ATOM      4  N   UNL     1      -2.037   0.101   0.000  0.00  0.00    -0.273 N 
ATOM      5  C   UNL     1       0.638  -0.299   0.000  0.00  0.00    +0.223 A 
ATOM      6  C   UNL     1       0.250   0.988   0.000  0.00  0.00    +0.138 A 
ATOM      7  C   UNL     1      -1.235   1.233   0.000  0.00  0.00    +0.277 A 
ATOM      8  C   UNL     1      -1.598  -1.222   0.000  0.00  0.00    +0.328 A 
ATOM      9  H   UNL     1       0.157  -2.271   0.000  0.00  0.00    +0.172 HD
ATOM     10  H   UNL     1      -3.011   0.246  -0.001  0.00  0.00    +0.173 HD
ENDROOT
BRANCH   5  13
ATOM     11  O   UNL     1       2.776   0.474   0.000  0.00  0.00    -0.125 OA
ATOM     12  O   UNL     1       2.428  -1.700   0.000  0.00  0.00    -0.125 OA
ATOM     13  N   UNL     1       2.048  -0.524   0.000  0.00  0.00    +0.075 N 
ENDBRANCH   5  13
BRANCH   6  14
ATOM     14  N   UNL     1       1.016   2.119   0.000  0.00  0.00    -0.351 N 
ATOM     15  H   UNL     1       1.998   2.048   0.000  0.00  0.00    +0.143 HD
ATOM     16  H   UNL     1       0.587   3.004   0.000  0.00  0.00    +0.143 HD
ENDBRANCH   6  14
TORSDOF 2
