REMARK  Name = 6971050
REMARK  4 active torsions:
REMARK  status: ('A' for Active; 'I' for Inactive)
REMARK    1  A    between atoms: CA_1  and  N_2
REMARK    2  A    between atoms: CA_1  and  C_8
REMARK    3  A    between atoms: CA_1  and  CB_9
REMARK    4  A    between atoms: CB_9  and  OG1_11
REMARK                            x       y       z     vdW  Elec       q    Type
REMARK                         _______ _______ _______ _____ _____    ______ ____
ROOT
ATOM      1  CA  THR A   1      -0.015  -0.469  -0.431  0.00  0.00    +0.068 C 
ENDROOT
BRANCH   1   2
ATOM      2  N   THR A   1       0.191  -1.718   0.371  0.00  0.00    +0.390 N 
ATOM      3  H1  THR A   1       1.104  -2.116   0.152  0.00  0.00    -0.088 HD
ATOM      4  H2  THR A   1      -0.538  -2.393   0.143  0.00  0.00    -0.088 HD
ATOM      5  H3  THR A   1       0.148  -1.493   1.365  0.00  0.00    -0.088 HD
ENDBRANCH   1   2
BRANCH   1   8
ATOM      6  O   THR A   1      -1.481   1.418  -0.391  0.00  0.00    -0.248 OA
ATOM      7  OXT THR A   1      -2.260  -0.612   0.297  0.00  0.00    -0.248 OA
ATOM      8  C   THR A   1      -1.382   0.185  -0.145  0.00  0.00    +0.347 C 
ENDBRANCH   1   8
BRANCH   1   9
ATOM      9  CB  THR A   1       1.200   0.454  -0.254  0.00  0.00    +0.101 C 
ATOM     10  CG2 THR A   1       1.359   0.995   1.164  0.00  0.00    +0.030 C 
BRANCH   9  11
ATOM     11  OG1 THR A   1       2.387  -0.253  -0.612  0.00  0.00    -0.386 OA
ATOM     12  HG1 THR A   1       2.296  -0.601  -1.513  0.00  0.00    +0.210 HD
ENDBRANCH   9  11
ENDBRANCH   1   9
TORSDOF 4
