REMARK  Name = 1176
REMARK  0 active torsions:
REMARK  status: ('A' for Active; 'I' for Inactive)
REMARK                            x       y       z     vdW  Elec       q    Type
REMARK                         _______ _______ _______ _____ _____    ______ ____
ROOT
ATOM      1  O   UNL     1      -1.304  -0.001   0.000  0.00  0.00    -0.253 OA
ATOM      2  N   UNL     1       0.690  -1.148   0.000  0.00  0.00    -0.314 N 
ATOM      3  N   UNL     1       0.689   1.149   0.000  0.00  0.00    -0.314 N 
ATOM      4  C   UNL     1      -0.075   0.000   0.000  0.00  0.00    +0.294 C 
ATOM      5  H   UNL     1       0.254  -2.030   0.000  0.00  0.00    +0.146 HD
ATOM      6  H   UNL     1       1.673  -1.085   0.001  0.00  0.00    +0.146 HD
ATOM      7  H   UNL     1       0.251   2.031   0.000  0.00  0.00    +0.146 HD
ATOM      8  H   UNL     1       1.671   1.087   0.001  0.00  0.00    +0.146 HD
ENDROOT
TORSDOF 0
