REMARK  Name = 448978
REMARK  6 active torsions:
REMARK  status: ('A' for Active; 'I' for Inactive)
REMARK    1  A    between atoms: C_1  and  O_7
REMARK    2  A    between atoms: C_2  and  O_14
REMARK    3  A    between atoms: O_7  and  C_8
REMARK    4  A    between atoms: C_8  and  C_11
REMARK    5  A    between atoms: C_11  and  O_12
REMARK    6  A    between atoms: O_14  and  C_17
REMARK                            x       y       z     vdW  Elec       q    Type
REMARK                         _______ _______ _______ _____ _____    ______ ____
ROOT
ATOM      1  C   UNL     1       2.195   0.895   0.189  0.00  0.00    +0.139 C 
ATOM      2  C   UNL     1      -0.498   1.344  -0.386  0.00  0.00    +0.146 C 
ATOM      3  C   UNL     1       1.212   0.487   1.091  0.00  0.00    +0.040 C 
ATOM      4  C   UNL     1       1.832   1.528  -0.999  0.00  0.00    +0.040 C 
ATOM      5  C   UNL     1      -0.135   0.711   0.803  0.00  0.00    +0.041 C 
ATOM      6  C   UNL     1       0.486   1.752  -1.287  0.00  0.00    +0.041 C 
ENDROOT
BRANCH   1   7
ATOM      7  O   UNL     1       3.509   0.677   0.470  0.00  0.00    -0.468 OA
BRANCH   7   8
ATOM      8  C   UNL     1       3.917  -0.678   0.651  0.00  0.00    +0.263 C 
ATOM      9  C   UNL     1       4.494  -0.812   2.050  0.00  0.00    +0.060 C 
BRANCH   8  11
ATOM     10  O   UNL     1       5.383  -0.222  -1.233  0.00  0.00    -0.246 OA
ATOM     11  C   UNL     1       4.952  -1.012  -0.404  0.00  0.00    +0.354 C 
BRANCH  11  12
ATOM     12  O   UNL     1       5.375  -2.299  -0.320  0.00  0.00    -0.478 OA
ATOM     13  H   UNL     1       5.017  -2.869   0.332  0.00  0.00    +0.295 HD
ENDBRANCH  11  12
ENDBRANCH   8  11
ENDBRANCH   7   8
ENDBRANCH   1   7
BRANCH   2  14
ATOM     14  O   UNL     1      -1.811   1.563  -0.667  0.00  0.00    -0.453 OA
BRANCH  14  17
ATOM     15 CL   UNL     1      -4.002   2.143   1.308  0.00  0.00    -0.079 Cl
ATOM     16 CL   UNL     1      -5.521  -2.906   0.208  0.00  0.00    -0.082 Cl
ATOM     17  C   UNL     1      -2.699   0.523  -0.446  0.00  0.00    +0.156 C 
ATOM     18  C   UNL     1      -3.748   0.672   0.443  0.00  0.00    +0.093 C 
ATOM     19  C   UNL     1      -2.498  -0.659  -1.139  0.00  0.00    +0.039 C 
ATOM     20  C   UNL     1      -4.626  -0.392   0.646  0.00  0.00    +0.026 C 
ATOM     21  C   UNL     1      -3.376  -1.724  -0.935  0.00  0.00    +0.015 C 
ATOM     22  C   UNL     1      -4.440  -1.591  -0.043  0.00  0.00    +0.059 C 
ENDBRANCH  14  17
ENDBRANCH   2  14
TORSDOF 6
