REMARK  Name = 448288
REMARK  8 active torsions:
REMARK  status: ('A' for Active; 'I' for Inactive)
REMARK    1  A    between atoms: C_1  and  C_4
REMARK    2  A    between atoms: C_1  and  O_15
REMARK    3  A    between atoms: C_1  and  C_17
REMARK    4  A    between atoms: N_3  and  N_6
REMARK    5  A    between atoms: N_6  and  C_8
REMARK    6  A    between atoms: C_17  and  N_18
REMARK    7  A    between atoms: C_17  and  C_22
REMARK    8  A    between atoms: C_22  and  C_23
REMARK                            x       y       z     vdW  Elec       q    Type
REMARK                         _______ _______ _______ _____ _____    ______ ____
ROOT
ATOM      1  C   UNL     1       1.279  -1.731   0.196  0.00  0.00    +0.168 C 
ENDROOT
BRANCH   1   4
ATOM      2  O   UNL     1      -0.623  -3.201   0.476  0.00  0.00    -0.271 OA
ATOM      3  N   UNL     1      -0.897  -0.932   0.882  0.00  0.00    -0.234 N 
ATOM      4  C   UNL     1      -0.177  -2.056   0.522  0.00  0.00    +0.263 C 
ATOM      5  H   UNL     1      -0.472  -0.044   0.896  0.00  0.00    +0.173 HD
BRANCH   3   6
ATOM      6  N   UNL     1      -2.210  -1.086   1.218  0.00  0.00    -0.263 N 
ATOM      7  H   UNL     1      -2.482  -1.791   1.849  0.00  0.00    +0.170 HD
BRANCH   6   8
ATOM      8  C   UNL     1      -3.168  -0.232   0.659  0.00  0.00    +0.061 C 
ATOM      9  C   UNL     1      -4.468  -0.191   1.177  0.00  0.00    +0.015 C 
ATOM     10  C   UNL     1      -2.837   0.591  -0.424  0.00  0.00    +0.015 C 
ATOM     11  C   UNL     1      -5.085   1.476  -0.460  0.00  0.00    -0.022 C 
ATOM     12  C   UNL     1      -5.423   0.660   0.620  0.00  0.00    -0.003 C 
ATOM     13  C   UNL     1      -3.792   1.442  -0.982  0.00  0.00    -0.003 C 
ATOM     14  C   UNL     1      -6.106   2.386  -1.055  0.00  0.00    +0.031 C 
ENDBRANCH   6   8
ENDBRANCH   3   6
ENDBRANCH   1   4
BRANCH   1  15
ATOM     15  O   UNL     1       1.979  -2.939  -0.060  0.00  0.00    -0.377 OA
ATOM     16  H   UNL     1       2.905  -2.737  -0.267  0.00  0.00    +0.211 HD
ENDBRANCH   1  15
BRANCH   1  17
ATOM     17  C   UNL     1       1.420  -0.772  -1.004  0.00  0.00    -0.029 C 
BRANCH  17  18
ATOM     18  N   UNL     1       0.761  -1.347  -2.186  0.00  0.00    +0.384 N 
ATOM     19  H   UNL     1       0.859  -0.708  -2.975  0.00  0.00    -0.089 HD
ATOM     20  H   UNL     1      -0.228  -1.492  -1.986  0.00  0.00    -0.089 HD
ATOM     21  H   UNL     1       1.196  -2.241  -2.416  0.00  0.00    -0.089 HD
ENDBRANCH  17  18
BRANCH  17  22
ATOM     22  C   UNL     1       2.884  -0.452  -1.367  0.00  0.00    -0.019 C 
BRANCH  22  23
ATOM     23  C   UNL     1       3.648   0.243  -0.242  0.00  0.00    -0.002 C 
ATOM     24  C   UNL     1       2.948   1.546   0.165  0.00  0.00    -0.000 C 
ATOM     25  C   UNL     1       5.101   0.510  -0.658  0.00  0.00    -0.000 C 
ATOM     26  C   UNL     1       3.723   2.287   1.253  0.00  0.00    -0.000 C 
ATOM     27  C   UNL     1       5.872   1.253   0.431  0.00  0.00    -0.000 C 
ATOM     28  C   UNL     1       5.169   2.543   0.839  0.00  0.00    -0.000 C 
ENDBRANCH  22  23
ENDBRANCH  17  22
ENDBRANCH   1  17
TORSDOF 8
