REMARK  Name = 11
REMARK  1 active torsions:
REMARK  status: ('A' for Active; 'I' for Inactive)
REMARK    1  A    between atoms: C_2  and  C_4
REMARK                            x       y       z     vdW  Elec       q    Type
REMARK                         _______ _______ _______ _____ _____    ______ ____
ROOT
ATOM      1 CL   UNL     1       1.646  -0.711   0.138  0.00  0.00    -0.112 Cl
ATOM      2  C   UNL     1       0.684   0.711  -0.331  0.00  0.00    +0.112 C 
ENDROOT
BRANCH   2   4
ATOM      3 CL   UNL     1      -1.646  -0.711  -0.138  0.00  0.00    -0.112 Cl
ATOM      4  C   UNL     1      -0.684   0.711   0.331  0.00  0.00    +0.112 C 
ENDBRANCH   2   4
TORSDOF 1
