REMARK  Name = 447066
REMARK  8 active torsions:
REMARK  status: ('A' for Active; 'I' for Inactive)
REMARK    1  A    between atoms: C_1  and  C_3
REMARK    2  A    between atoms: C_1  and  C_13
REMARK    3  A    between atoms: C_1  and  N_16
REMARK    4  A    between atoms: C_13  and  O_14
REMARK    5  A    between atoms: N_16  and  O_18
REMARK    6  A    between atoms: O_18  and  C_19
REMARK    7  A    between atoms: C_19  and  C_20
REMARK    8  A    between atoms: C_20  and  S_21
REMARK                            x       y       z     vdW  Elec       q    Type
REMARK                         _______ _______ _______ _____ _____    ______ ____
ROOT
ATOM      1  C   UNL     1      -0.754   1.377  -0.470  0.00  0.00    +0.202 C 
ENDROOT
BRANCH   1   3
ATOM      2  N   UNL     1       1.433  -1.128  -1.979  0.00  0.00    -0.312 N 
ATOM      3  C   UNL     1       0.254   0.357  -0.825  0.00  0.00    +0.021 C 
ATOM      4  C   UNL     1       1.254  -0.180   0.033  0.00  0.00    +0.013 C 
ATOM      5  C   UNL     1       1.980  -1.109  -0.715  0.00  0.00    +0.048 C 
ATOM      6  C   UNL     1       0.389  -0.245  -2.055  0.00  0.00    +0.059 C 
ATOM      7  C   UNL     1       1.613   0.036   1.378  0.00  0.00    +0.001 C 
ATOM      8  C   UNL     1       3.051  -1.837  -0.183  0.00  0.00    +0.015 C 
ATOM      9  C   UNL     1       2.682  -0.685   1.924  0.00  0.00    +0.000 C 
ATOM     10  C   UNL     1       3.388  -1.606   1.153  0.00  0.00    +0.001 C 
ATOM     11  H   UNL     1       1.747  -1.694  -2.720  0.00  0.00    +0.152 HD
ENDBRANCH   1   3
BRANCH   1  13
ATOM     12  O   UNL     1      -0.323   3.208   1.087  0.00  0.00    -0.248 OA
ATOM     13  C   UNL     1      -0.165   2.717  -0.024  0.00  0.00    +0.335 C 
BRANCH  13  14
ATOM     14  O   UNL     1       0.536   3.349  -1.004  0.00  0.00    -0.479 OA
ATOM     15  H   UNL     1       0.637   2.944  -1.843  0.00  0.00    +0.295 HD
ENDBRANCH  13  14
ENDBRANCH   1  13
BRANCH   1  16
ATOM     16  N   UNL     1      -1.623   0.898   0.620  0.00  0.00    -0.176 NA
ATOM     17  H   UNL     1      -1.070   0.482   1.369  0.00  0.00    +0.156 HD
BRANCH  16  18
ATOM     18  O   UNL     1      -2.462  -0.101  -0.018  0.00  0.00    -0.284 OA
BRANCH  18  19
ATOM     19  C   UNL     1      -3.446  -0.490   0.930  0.00  0.00    +0.178 C 
BRANCH  19  20
ATOM     20  C   UNL     1      -4.366  -1.540   0.327  0.00  0.00    +0.088 C 
BRANCH  20  21
ATOM     21  S   UNL     1      -3.440  -3.022  -0.179  0.00  0.00    -0.165 S 
ATOM     22  H   UNL     1      -4.298  -3.932  -0.712  0.00  0.00    +0.102 HD
ENDBRANCH  20  21
ENDBRANCH  19  20
ENDBRANCH  18  19
ENDBRANCH  16  18
ENDBRANCH   1  16
TORSDOF 8
