REMARK  Name = 16143
REMARK  7 active torsions:
REMARK  status: ('A' for Active; 'I' for Inactive)
REMARK    1  A    between atoms: C_1  and  C_9
REMARK    2  A    between atoms: C_6  and  O_7
REMARK    3  A    between atoms: C_9  and  C_10
REMARK    4  A    between atoms: C_10  and  C_11
REMARK    5  A    between atoms: C_11  and  C_12
REMARK    6  A    between atoms: C_12  and  C_13
REMARK    7  A    between atoms: C_13  and  C_14
REMARK                            x       y       z     vdW  Elec       q    Type
REMARK                         _______ _______ _______ _____ _____    ______ ____
ROOT
ATOM      1  C   UNL     1      -1.714   0.003   0.590  0.00  0.00    -0.022 C 
ATOM      2  C   UNL     1      -2.352   1.210   0.344  0.00  0.00    -0.001 C 
ATOM      3  C   UNL     1      -2.335  -1.206   0.318  0.00  0.00    -0.001 C 
ATOM      4  C   UNL     1      -3.642   1.206  -0.185  0.00  0.00    +0.036 C 
ATOM      5  C   UNL     1      -3.625  -1.209  -0.212  0.00  0.00    +0.036 C 
ATOM      6  C   UNL     1      -4.279  -0.003  -0.463  0.00  0.00    +0.134 C 
ENDROOT
BRANCH   6   7
ATOM      7  O   UNL     1      -5.538  -0.006  -0.980  0.00  0.00    -0.506 OA
ATOM      8  H   UNL     1      -5.977   0.805  -1.148  0.00  0.00    +0.292 HD
ENDBRANCH   6   7
BRANCH   1   9
ATOM      9  C   UNL     1      -0.318   0.007   1.161  0.00  0.00    +0.026 C 
BRANCH   9  10
ATOM     10  C   UNL     1       0.787   0.028   0.099  0.00  0.00    +0.005 C 
BRANCH  10  11
ATOM     11  C   UNL     1       2.195  -0.046   0.698  0.00  0.00    +0.000 C 
BRANCH  11  12
ATOM     12  C   UNL     1       3.265   0.008  -0.394  0.00  0.00    +0.000 C 
BRANCH  12  13
ATOM     13  C   UNL     1       4.672  -0.032   0.204  0.00  0.00    +0.000 C 
BRANCH  13  14
ATOM     14  C   UNL     1       5.742   0.056  -0.884  0.00  0.00    +0.000 C 
ATOM     15  C   UNL     1       7.142  -0.016  -0.296  0.00  0.00    +0.000 C 
ENDBRANCH  13  14
ENDBRANCH  12  13
ENDBRANCH  11  12
ENDBRANCH  10  11
ENDBRANCH   9  10
ENDBRANCH   1   9
TORSDOF 7
