6994316
  -OEChem-10051720223D

 22 21  0     1  0  0  0  0  0999 V2000
    2.3458    0.0632    0.0218 S   0  0  0  0  0  0  0  0  0  0  0  0
    2.4830    1.2017    0.9137 O   0  0  0  0  0  0  0  0  0  0  0  0
    2.8459   -1.2448    0.4087 O   0  0  0  0  0  0  0  0  0  0  0  0
   -3.3901    0.3846   -0.7469 O   0  5  0  0  0  0  0  0  0  0  0  0
   -1.8746    1.6939    0.3450 O   0  0  0  0  0  0  0  0  0  0  0  0
   -1.9047   -1.8857   -0.3254 N   0  3  0  0  0  0  0  0  0  0  0  0
   -0.1890   -0.5291    0.8051 C   0  0  0  0  0  0  0  0  0  0  0  0
    0.6392   -0.1024   -0.4026 C   0  0  0  0  0  0  0  0  0  0  0  0
   -1.6893   -0.6710    0.5223 C   0  0  1  0  0  0  0  0  0  0  0  0
    3.1120    0.4956   -1.5232 C   0  0  0  0  0  0  0  0  0  0  0  0
   -2.3781    0.5940   -0.0184 C   0  0  0  0  0  0  0  0  0  0  0  0
    0.1990   -1.4750    1.2050 H   0  0  0  0  0  0  0  0  0  0  0  0
   -0.0508    0.2070    1.6079 H   0  0  0  0  0  0  0  0  0  0  0  0
    0.3156    0.8629   -0.8004 H   0  0  0  0  0  0  0  0  0  0  0  0
    0.5801   -0.8500   -1.1994 H   0  0  0  0  0  0  0  0  0  0  0  0
   -2.1912   -0.9095    1.4683 H   0  0  0  0  0  0  0  0  0  0  0  0
   -2.9081   -2.0843   -0.4363 H   0  0  0  0  0  0  0  0  0  0  0  0
   -1.4732   -2.7220    0.0904 H   0  0  0  0  0  0  0  0  0  0  0  0
   -1.5120   -1.7672   -1.2684 H   0  0  0  0  0  0  0  0  0  0  0  0
    4.1827    0.6201   -1.3489 H   0  0  0  0  0  0  0  0  0  0  0  0
    2.9405   -0.3100   -2.2393 H   0  0  0  0  0  0  0  0  0  0  0  0
    2.6795    1.4318   -1.8809 H   0  0  0  0  0  0  0  0  0  0  0  0
  1  2  2  0  0  0  0
  1  3  2  0  0  0  0
  1  8  1  0  0  0  0
  1 10  1  0  0  0  0
  4 11  1  0  0  0  0
  5 11  2  0  0  0  0
  6  9  1  0  0  0  0
  6 17  1  0  0  0  0
  6 18  1  0  0  0  0
  6 19  1  0  0  0  0
  7  8  1  0  0  0  0
  7  9  1  0  0  0  0
  7 12  1  0  0  0  0
  7 13  1  0  0  0  0
  8 14  1  0  0  0  0
  8 15  1  0  0  0  0
  9 11  1  0  0  0  0
  9 16  1  0  0  0  0
 10 20  1  0  0  0  0
 10 21  1  0  0  0  0
 10 22  1  0  0  0  0
M  CHG  2   4  -1   6   1
M  END
> <DATABASE_ID>
DB03790

> <DATABASE_NAME>
drugbank

> <ORIGINAL_SOURCE>
PUBCHEM

> <ORIGINAL_SOURCE_URL>
https://pubchem.ncbi.nlm.nih.gov/rest/pug/compound/inchikey/UCUNFLYVYCGDHP-BYPYZUCNSA-N/SDF?record_type=3d

> <SMILES>
CS(=O)(=O)CC[C@H](N)C(O)=O

> <INCHI_IDENTIFIER>
InChI=1S/C5H11NO4S/c1-11(9,10)3-2-4(6)5(7)8/h4H,2-3,6H2,1H3,(H,7,8)/t4-/m0/s1

> <INCHI_KEY>
UCUNFLYVYCGDHP-BYPYZUCNSA-N

> <FORMULA>
C5H11NO4S

> <MOLECULAR_WEIGHT>
181.21

> <EXACT_MASS>
181.040878535

> <JCHEM_ACCEPTOR_COUNT>
5

> <JCHEM_AVERAGE_POLARIZABILITY>
16.8842642782229

> <JCHEM_BIOAVAILABILITY>
1

> <JCHEM_DONOR_COUNT>
2

> <JCHEM_FORMAL_CHARGE>
0

> <JCHEM_GHOSE_FILTER>
0

> <JCHEM_IUPAC>
(2S)-2-amino-4-methanesulfonylbutanoic acid

> <ALOGPS_LOGP>
-3.17

> <JCHEM_LOGP>
-4.458130728269783

> <ALOGPS_LOGS>
-0.62

> <JCHEM_MDDR_LIKE_RULE>
0

> <JCHEM_NUMBER_OF_RINGS>
0

> <JCHEM_PHYSIOLOGICAL_CHARGE>
0

> <JCHEM_PKA_STRONGEST_ACIDIC>
1.5450527697838594

> <JCHEM_PKA_STRONGEST_BASIC>
8.689360816923253

> <JCHEM_POLAR_SURFACE_AREA>
97.46000000000001

> <JCHEM_REFRACTIVITY>
39.09510000000001

> <JCHEM_ROTATABLE_BOND_COUNT>
4

> <JCHEM_RULE_OF_FIVE>
1

> <ALOGPS_SOLUBILITY>
4.39e+01 g/l

> <JCHEM_TRADITIONAL_IUPAC>
(2S)-2-amino-4-methanesulfonylbutanoic acid

> <JCHEM_VEBER_RULE>
0

> <DRUGBANK_ID>
DB03790

> <SECONDARY_ACCESSION_NUMBERS>
EXPT02437

> <DRUG_GROUPS>
experimental

> <GENERIC_NAME>
S-Dioxymethionine

$$$$
