REMARK  Name = 446386
REMARK  9 active torsions:
REMARK  status: ('A' for Active; 'I' for Inactive)
REMARK    1  A    between atoms: C_5  and  O_19
REMARK    2  A    between atoms: C_6  and  C_12
REMARK    3  A    between atoms: C_12  and  C_15
REMARK    4  A    between atoms: O_19  and  C_20
REMARK    5  A    between atoms: C_20  and  C_21
REMARK    6  A    between atoms: C_21  and  C_22
REMARK    7  A    between atoms: C_22  and  N_23
REMARK    8  A    between atoms: N_23  and  C_26
REMARK    9  A    between atoms: C_26  and  C_28
REMARK                            x       y       z     vdW  Elec       q    Type
REMARK                         _______ _______ _______ _____ _____    ______ ____
ROOT
ATOM      1  O   UNL     1      -3.885  -0.747  -0.500  0.00  0.00    -0.450 OA
ATOM      2  C   UNL     1      -1.824  -1.397   0.156  0.00  0.00    +0.068 A 
ATOM      3  C   UNL     1      -1.976  -0.013   0.437  0.00  0.00    +0.022 A 
ATOM      4  C   UNL     1      -3.025  -1.800  -0.418  0.00  0.00    +0.148 A 
ATOM      5  C   UNL     1      -0.805  -2.351   0.324  0.00  0.00    +0.141 C 
ATOM      6  C   UNL     1      -3.241   0.330   0.020  0.00  0.00    +0.183 A 
ATOM      7  C   UNL     1      -3.290  -3.101  -0.843  0.00  0.00    +0.038 C 
ATOM      8  C   UNL     1      -1.043  -3.668  -0.094  0.00  0.00    +0.037 C 
ATOM      9  C   UNL     1      -0.978   0.883   1.053  0.00  0.00    +0.035 C 
ATOM     10  C   UNL     1      -2.264  -4.034  -0.666  0.00  0.00    +0.006 C 
ENDROOT
BRANCH   6  12
ATOM     11  O   UNL     1      -3.380   2.685  -0.031  0.00  0.00    -0.280 OA
ATOM     12  C   UNL     1      -3.943   1.569   0.047  0.00  0.00    +0.261 C 
BRANCH  12  15
ATOM     13  N   UNL     1      -6.244   2.443  -0.334  0.00  0.00    -0.266 N 
ATOM     14  N   UNL     1      -5.982   0.556   0.808  0.00  0.00    -0.224 NA
ATOM     15  C   UNL     1      -5.424   1.524   0.175  0.00  0.00    +0.178 C 
ATOM     16  C   UNL     1      -7.502   2.032   0.004  0.00  0.00    +0.088 C 
ATOM     17  C   UNL     1      -5.917   3.631  -1.086  0.00  0.00    +0.119 C 
ATOM     18  C   UNL     1      -7.315   0.866   0.708  0.00  0.00    +0.117 C 
ENDBRANCH  12  15
ENDBRANCH   6  12
BRANCH   5  19
ATOM     19  O   UNL     1       0.403  -2.029   0.881  0.00  0.00    -0.475 OA
BRANCH  19  20
ATOM     20  C   UNL     1       1.556  -2.233   0.073  0.00  0.00    +0.203 C 
BRANCH  20  21
ATOM     21  C   UNL     1       2.610  -1.200   0.449  0.00  0.00    +0.024 C 
BRANCH  21  22
ATOM     22  C   UNL     1       3.883  -1.374  -0.373  0.00  0.00    -0.077 C 
BRANCH  22  23
ATOM     23  N   UNL     1       4.880  -0.386   0.023  0.00  0.00    +0.387 N 
ATOM     24  H   UNL     1       5.078  -0.492   1.018  0.00  0.00    -0.084 HD
ATOM     25  H   UNL     1       4.510   0.545  -0.169  0.00  0.00    -0.084 HD
BRANCH  23  26
ATOM     26  C   UNL     1       6.113  -0.562  -0.731  0.00  0.00    -0.053 C 
BRANCH  26  28
ATOM     27  N   UNL     1       8.145   2.611  -0.709  0.00  0.00    -0.243 NA
ATOM     28  C   UNL     1       7.156   0.453  -0.345  0.00  0.00    -0.025 C 
ATOM     29  C   UNL     1       8.048   0.184   0.675  0.00  0.00    -0.003 C 
ATOM     30  C   UNL     1       7.233   1.658  -1.004  0.00  0.00    +0.092 C 
ATOM     31  C   UNL     1       9.001   1.141   1.008  0.00  0.00    +0.020 C 
ATOM     32  C   UNL     1       9.008   2.327   0.293  0.00  0.00    +0.099 C 
ENDBRANCH  26  28
ENDBRANCH  23  26
ENDBRANCH  22  23
ENDBRANCH  21  22
ENDBRANCH  20  21
ENDBRANCH  19  20
ENDBRANCH   5  19
TORSDOF 9
