REMARK  Name = 3253681
REMARK  7 active torsions:
REMARK  status: ('A' for Active; 'I' for Inactive)
REMARK    1  A    between atoms: C_3  and  C_13
REMARK    2  A    between atoms: C_4  and  C_12
REMARK    3  A    between atoms: C_6  and  O_9
REMARK    4  A    between atoms: C_13  and  O_14
REMARK    5  A    between atoms: O_14  and  P_15
REMARK    6  A    between atoms: P_15  and  O_17
REMARK    7  A    between atoms: P_15  and  O_19
REMARK                            x       y       z     vdW  Elec       q    Type
REMARK                         _______ _______ _______ _____ _____    ______ ____
ROOT
ATOM      1  O   UNL     1       2.659   2.781   0.104  0.00  0.00    -0.163 OA
ATOM      2  N   UNL     1       2.105   1.632   0.104  0.00  0.00    -0.130 N 
ATOM      3  C   UNL     1       0.124   0.282   0.395  0.00  0.00    +0.035 C 
ATOM      4  C   UNL     1       0.860  -0.863   0.111  0.00  0.00    +0.077 C 
ATOM      5  C   UNL     1       2.826   0.487  -0.177  0.00  0.00    +0.114 C 
ATOM      6  C   UNL     1       2.217  -0.763  -0.176  0.00  0.00    +0.152 C 
ATOM      7  C   UNL     1       0.757   1.521   0.388  0.00  0.00    +0.119 C 
ATOM      8  C   UNL     1       4.278   0.644  -0.479  0.00  0.00    +0.057 C 
ENDROOT
BRANCH   6   9
ATOM      9  O   UNL     1       2.950  -1.877  -0.457  0.00  0.00    -0.504 OA
ATOM     10  H   UNL     1       2.540  -2.720  -0.456  0.00  0.00    +0.292 HD
ENDBRANCH   6   9
BRANCH   4  12
ATOM     11  O   UNL     1       0.756  -3.233   0.395  0.00  0.00    -0.283 OA
ATOM     12  C   UNL     1       0.212  -2.171   0.114  0.00  0.00    +0.237 C 
ENDBRANCH   4  12
BRANCH   3  13
ATOM     13  C   UNL     1      -1.333   0.218   0.709  0.00  0.00    +0.182 C 
BRANCH  13  14
ATOM     14  O   UNL     1      -2.133   0.333  -0.463  0.00  0.00    -0.268 OA
BRANCH  14  15
ATOM     15  P   UNL     1      -3.740   0.283  -0.301  0.00  0.00    +0.473 P 
ATOM     16  O   UNL     1      -4.513   0.410  -1.581  0.00  0.00    -0.227 OA
BRANCH  15  17
ATOM     17  O   UNL     1      -4.051   1.416   0.809  0.00  0.00    -0.303 OA
ATOM     18  H   UNL     1      -3.509   1.254   1.597  0.00  0.00    +0.222 HD
ENDBRANCH  15  17
BRANCH  15  19
ATOM     19  O   UNL     1      -3.973  -1.101   0.503  0.00  0.00    -0.303 OA
ATOM     20  H   UNL     1      -3.438  -1.098   1.313  0.00  0.00    +0.222 HD
ENDBRANCH  15  19
ENDBRANCH  14  15
ENDBRANCH  13  14
ENDBRANCH   3  13
TORSDOF 7
