REMARK  Name = 676454
REMARK  3 active torsions:
REMARK  status: ('A' for Active; 'I' for Inactive)
REMARK    1  A    between atoms: N_1  and  C_3
REMARK    2  A    between atoms: N_1  and  C_10
REMARK    3  A    between atoms: C_10  and  N_11
REMARK                            x       y       z     vdW  Elec       q    Type
REMARK                         _______ _______ _______ _____ _____    ______ ____
ROOT
ATOM      1  N   UNL     1       1.131   0.708  -0.117  0.00  0.00    -0.296 N 
ATOM      2  H   UNL     1       1.293   1.654  -0.338  0.00  0.00    +0.154 HD
ENDROOT
BRANCH   1   3
ATOM      3  C   UNL     1      -0.218   0.353  -0.087  0.00  0.00    +0.050 C 
ATOM      4  C   UNL     1      -1.183   1.304   0.243  0.00  0.00    +0.015 C 
ATOM      5  C   UNL     1      -0.600  -0.955  -0.387  0.00  0.00    +0.015 C 
ATOM      6  C   UNL     1      -2.531   0.947   0.273  0.00  0.00    +0.001 C 
ATOM      7  C   UNL     1      -1.948  -1.311  -0.356  0.00  0.00    +0.001 C 
ATOM      8  C   UNL     1      -2.914  -0.360  -0.026  0.00  0.00    +0.000 C 
ENDBRANCH   1   3
BRANCH   1  10
ATOM      9  S   UNL     1       3.725   0.399  -0.640  0.00  0.00    -0.019 S 
ATOM     10  C   UNL     1       2.284  -0.024   0.108  0.00  0.00    +0.132 C 
BRANCH  10  11
ATOM     11  N   UNL     1       2.254  -1.062   0.989  0.00  0.00    -0.340 N 
ATOM     12  H   UNL     1       3.068  -1.589   1.156  0.00  0.00    +0.144 HD
ATOM     13  H   UNL     1       1.418  -1.284   1.458  0.00  0.00    +0.144 HD
ENDBRANCH  10  11
ENDBRANCH   1  10
TORSDOF 3
