REMARK  Name = 8007
REMARK  3 active torsions:
REMARK  status: ('A' for Active; 'I' for Inactive)
REMARK    1  A    between atoms: N_1  and  C_5
REMARK    2  A    between atoms: C_5  and  C_6
REMARK    3  A    between atoms: C_6  and  C_7
REMARK                            x       y       z     vdW  Elec       q    Type
REMARK                         _______ _______ _______ _____ _____    ______ ____
ROOT
ATOM      1  N   UNL     1      -2.464  -0.338  -0.003  0.00  0.00    +0.380 N 
ATOM      2  H   UNL     1      -3.299   0.248   0.008  0.00  0.00    -0.089 HD
ATOM      3  H   UNL     1      -2.462  -0.942   0.819  0.00  0.00    -0.089 HD
ATOM      4  H   UNL     1      -2.463  -0.912  -0.847  0.00  0.00    -0.089 HD
ENDROOT
BRANCH   1   5
ATOM      5  C   UNL     1      -1.276   0.507   0.011  0.00  0.00    -0.086 C 
BRANCH   5   6
ATOM      6  C   UNL     1      -0.013  -0.352  -0.005  0.00  0.00    -0.024 C 
BRANCH   6   7
ATOM      7  C   UNL     1       1.246   0.516  -0.011  0.00  0.00    -0.002 C 
ATOM      8  C   UNL     1       2.508  -0.332   0.008  0.00  0.00    -0.000 C 
ENDBRANCH   6   7
ENDBRANCH   5   6
ENDBRANCH   1   5
TORSDOF 3
