REMARK  Name = 8778
REMARK  12 active torsions:
REMARK  status: ('A' for Active; 'I' for Inactive)
REMARK    1  A    between atoms: C_1  and  C_2
REMARK    2  A    between atoms: C_1  and  C_10
REMARK    3  A    between atoms: C_2  and  C_3
REMARK    4  A    between atoms: C_3  and  C_4
REMARK    5  A    between atoms: C_4  and  C_5
REMARK    6  A    between atoms: C_5  and  C_6
REMARK    7  A    between atoms: C_6  and  C_7
REMARK    8  A    between atoms: C_7  and  C_8
REMARK    9  A    between atoms: C_10  and  C_11
REMARK   10  A    between atoms: C_11  and  C_12
REMARK   11  A    between atoms: C_12  and  O_13
REMARK   12  A    between atoms: O_13  and  S_14
REMARK                            x       y       z     vdW  Elec       q    Type
REMARK                         _______ _______ _______ _____ _____    ______ ____
ROOT
ATOM      1  C   UNL     1       0.380   0.452  -0.015  0.00  0.00    +0.000 C 
ENDROOT
BRANCH   1   2
ATOM      2  C   UNL     1      -0.906  -0.380  -0.045  0.00  0.00    +0.000 C 
BRANCH   2   3
ATOM      3  C   UNL     1      -2.178   0.469  -0.005  0.00  0.00    +0.000 C 
BRANCH   3   4
ATOM      4  C   UNL     1      -3.465  -0.363  -0.022  0.00  0.00    +0.000 C 
BRANCH   4   5
ATOM      5  C   UNL     1      -4.776   0.429  -0.074  0.00  0.00    +0.000 C 
BRANCH   5   6
ATOM      6  C   UNL     1      -6.024  -0.455  -0.029  0.00  0.00    +0.000 C 
BRANCH   6   7
ATOM      7  C   UNL     1      -7.332   0.342   0.008  0.00  0.00    +0.000 C 
BRANCH   7   8
ATOM      8  C   UNL     1      -8.581  -0.538   0.081  0.00  0.00    +0.000 C 
ATOM      9  C   UNL     1      -9.851   0.298   0.039  0.00  0.00    +0.000 C 
ENDBRANCH   7   8
ENDBRANCH   6   7
ENDBRANCH   5   6
ENDBRANCH   4   5
ENDBRANCH   3   4
ENDBRANCH   2   3
ENDBRANCH   1   2
BRANCH   1  10
ATOM     10  C   UNL     1       1.653  -0.398  -0.030  0.00  0.00    +0.003 C 
BRANCH  10  11
ATOM     11  C   UNL     1       2.906   0.483   0.029  0.00  0.00    +0.035 C 
BRANCH  11  12
ATOM     12  C   UNL     1       4.189  -0.339  -0.011  0.00  0.00    +0.177 C 
BRANCH  12  13
ATOM     13  O   UNL     1       5.318   0.523   0.027  0.00  0.00    -0.200 OA
BRANCH  13  14
ATOM     14  S   UNL     1       6.825  -0.110  -0.004  0.00  0.00    +0.239 S 
ATOM     15  O   UNL     1       7.789   1.186   0.229  0.00  0.00    -0.116 OA
ATOM     16  O   UNL     1       6.963  -0.971   1.155  0.00  0.00    -0.022 OA
ATOM     17  O   UNL     1       7.090  -0.629  -1.333  0.00  0.00    -0.116 OA
ENDBRANCH  13  14
ENDBRANCH  12  13
ENDBRANCH  11  12
ENDBRANCH  10  11
ENDBRANCH   1  10
TORSDOF 12
