REMARK  Name = 46936619
REMARK  9 active torsions:
REMARK  status: ('A' for Active; 'I' for Inactive)
REMARK    1  A    between atoms: C_1  and  N_3
REMARK    2  A    between atoms: C_1  and  C_12
REMARK    3  A    between atoms: C_4  and  C_6
REMARK    4  A    between atoms: C_6  and  C_7
REMARK    5  A    between atoms: C_7  and  N_8
REMARK    6  A    between atoms: C_12  and  CA_13
REMARK    7  A    between atoms: CA_13  and  N_14
REMARK    8  A    between atoms: CA_13  and  C_19
REMARK    9  A    between atoms: C_19  and  O_20
REMARK                            x       y       z     vdW  Elec       q    Type
REMARK                         _______ _______ _______ _____ _____    ______ ____
ROOT
ATOM      1  C   UNL     1       0.399  -0.739  -1.012  0.00  0.00    +0.088 C 
ENDROOT
BRANCH   1   3
ATOM      2  O   UNL     1      -1.498   1.183  -0.055  0.00  0.00    -0.275 OA
ATOM      3  N   UNL     1      -0.995  -0.974  -0.748  0.00  0.00    -0.304 N 
ATOM      4  C   UNL     1      -1.841   0.026  -0.283  0.00  0.00    +0.220 C 
ATOM      5  H   UNL     1      -1.362  -1.874  -0.902  0.00  0.00    +0.149 HD
BRANCH   4   6
ATOM      6  C   UNL     1      -3.259  -0.479  -0.086  0.00  0.00    +0.061 C 
BRANCH   6   7
ATOM      7  C   UNL     1      -4.196   0.611   0.424  0.00  0.00    -0.077 C 
BRANCH   7   8
ATOM      8  N   UNL     1      -5.540   0.077   0.612  0.00  0.00    +0.381 N 
ATOM      9  H   UNL     1      -6.154   0.817   0.953  0.00  0.00    -0.089 HD
ATOM     10  H   UNL     1      -5.512  -0.682   1.291  0.00  0.00    -0.089 HD
ATOM     11  H   UNL     1      -5.893  -0.275  -0.278  0.00  0.00    -0.089 HD
ENDBRANCH   7   8
ENDBRANCH   6   7
ENDBRANCH   4   6
ENDBRANCH   1   3
BRANCH   1  12
ATOM     12  C   UNL     1       1.256  -1.004   0.224  0.00  0.00    +0.010 C 
BRANCH  12  13
ATOM     13  CA  UNL     1       2.746  -0.745  -0.019  0.00  0.00    +0.037 C 
BRANCH  13  14
ATOM     14  N   UNL     1       3.533  -1.383   1.039  0.00  0.00    +0.389 N 
ATOM     15  H1  UNL     1       3.352  -2.387   1.040  0.00  0.00    -0.088 HD
ATOM     16  H2  UNL     1       3.271  -0.989   1.942  0.00  0.00    -0.088 HD
ATOM     17  H3  UNL     1       4.526  -1.217   0.871  0.00  0.00    -0.088 HD
ENDBRANCH  13  14
BRANCH  13  19
ATOM     18  OXT UNL     1       3.322   1.365   1.057  0.00  0.00    -0.253 OA
ATOM     19  C   UNL     1       3.064   0.738   0.036  0.00  0.00    +0.293 C 
BRANCH  19  20
ATOM     20  O   UNL     1       3.007   1.323  -1.189  0.00  0.00    -0.482 OA
ATOM     21  H   UNL     1       2.807   0.808  -1.945  0.00  0.00    +0.295 HD
ENDBRANCH  19  20
ENDBRANCH  13  19
ENDBRANCH  12  13
ENDBRANCH   1  12
TORSDOF 9
