REMARK  Name = 445564
REMARK  6 active torsions:
REMARK  status: ('A' for Active; 'I' for Inactive)
REMARK    1  A    between atoms: C_2  and  S_7
REMARK    2  A    between atoms: C_3  and  O_9
REMARK    3  A    between atoms: C_4  and  C_15
REMARK    4  A    between atoms: C_5  and  O_11
REMARK    5  A    between atoms: C_6  and  O_13
REMARK    6  A    between atoms: C_15  and  O_16
REMARK                            x       y       z     vdW  Elec       q    Type
REMARK                         _______ _______ _______ _____ _____    ______ ____
ROOT
ATOM      1  O   UNL     1       0.623   1.202  -0.247  0.00  0.00    -0.328 OA
ATOM      2  C   UNL     1       0.403  -1.218  -0.254  0.00  0.00    +0.103 C 
ATOM      3  C   UNL     1      -1.065  -1.083   0.178  0.00  0.00    +0.154 C 
ATOM      4  C   UNL     1       1.228  -0.010   0.225  0.00  0.00    +0.159 C 
ATOM      5  C   UNL     1      -1.618   0.299  -0.178  0.00  0.00    +0.195 C 
ATOM      6  C   UNL     1      -0.682   1.413   0.282  0.00  0.00    +0.262 C 
ENDROOT
BRANCH   2   7
ATOM      7  S   UNL     1       1.084  -2.795   0.386  0.00  0.00    -0.164 S 
ATOM      8  H   UNL     1       0.326  -3.831  -0.061  0.00  0.00    +0.102 HD
ENDBRANCH   2   7
BRANCH   3   9
ATOM      9  O   UNL     1      -1.849  -2.068  -0.498  0.00  0.00    -0.381 OA
ATOM     10  H   UNL     1      -1.512  -2.952  -0.283  0.00  0.00    +0.210 HD
ENDBRANCH   3   9
BRANCH   5  11
ATOM     11  O   UNL     1      -2.896   0.466   0.437  0.00  0.00    -0.378 OA
ATOM     12  H   UNL     1      -3.491  -0.242   0.144  0.00  0.00    +0.211 HD
ENDBRANCH   5  11
BRANCH   6  13
ATOM     13  O   UNL     1      -1.203   2.652  -0.197  0.00  0.00    -0.358 OA
ATOM     14  H   UNL     1      -0.623   3.377   0.084  0.00  0.00    +0.213 HD
ENDBRANCH   6  13
BRANCH   4  15
ATOM     15  C   UNL     1       2.658  -0.005  -0.313  0.00  0.00    +0.168 C 
BRANCH  15  16
ATOM     16  O   UNL     1       3.317   1.147   0.179  0.00  0.00    -0.379 OA
ATOM     17  H   UNL     1       4.228   1.165  -0.154  0.00  0.00    +0.211 HD
ENDBRANCH  15  16
ENDBRANCH   4  15
TORSDOF 6
