REMARK  Name = 445246
REMARK  6 active torsions:
REMARK  status: ('A' for Active; 'I' for Inactive)
REMARK    1  A    between atoms: C_2  and  O_12
REMARK    2  A    between atoms: C_3  and  N_8
REMARK    3  A    between atoms: C_4  and  O_14
REMARK    4  A    between atoms: C_5  and  C_18
REMARK    5  A    between atoms: C_6  and  O_16
REMARK    6  A    between atoms: C_18  and  O_19
REMARK                            x       y       z     vdW  Elec       q    Type
REMARK                         _______ _______ _______ _____ _____    ______ ____
ROOT
ATOM      1  O   UNL     1      -1.464  -1.197  -0.181  0.00  0.00    -0.327 OA
ATOM      2  C   UNL     1       0.162   1.167   0.086  0.00  0.00    +0.162 C 
ATOM      3  C   UNL     1       0.767  -0.219  -0.161  0.00  0.00    +0.158 C 
ATOM      4  C   UNL     1      -1.267   1.205  -0.463  0.00  0.00    +0.169 C 
ATOM      5  C   UNL     1      -2.096   0.051   0.116  0.00  0.00    +0.176 C 
ATOM      6  C   UNL     1      -0.155  -1.321   0.381  0.00  0.00    +0.253 C 
ENDROOT
BRANCH   3   8
ATOM      7  O   UNL     1       3.284   0.494  -1.423  0.00  0.00    -0.275 OA
ATOM      8  N   UNL     1       2.093  -0.315   0.407  0.00  0.00    -0.299 N 
ATOM      9  C   UNL     1       3.239   0.052  -0.278  0.00  0.00    +0.223 C 
ATOM     10  C   UNL     1       4.482  -0.124   0.553  0.00  0.00    +0.095 C 
ATOM     11  H   UNL     1       2.185  -0.657   1.325  0.00  0.00    +0.150 HD
ENDBRANCH   3   8
BRANCH   2  12
ATOM     12  O   UNL     1       0.132   1.418   1.494  0.00  0.00    -0.380 OA
ATOM     13  H   UNL     1       1.036   1.395   1.846  0.00  0.00    +0.211 HD
ENDBRANCH   2  12
BRANCH   4  14
ATOM     14  O   UNL     1      -1.877   2.451  -0.150  0.00  0.00    -0.379 OA
ATOM     15  H   UNL     1      -1.346   3.173  -0.520  0.00  0.00    +0.211 HD
ENDBRANCH   4  14
BRANCH   6  16
ATOM     16  O   UNL     1       0.396  -2.586   0.014  0.00  0.00    -0.359 OA
ATOM     17  H   UNL     1      -0.174  -3.296   0.348  0.00  0.00    +0.213 HD
ENDBRANCH   6  16
BRANCH   5  18
ATOM     18  C   UNL     1      -3.498   0.008  -0.482  0.00  0.00    +0.169 C 
BRANCH  18  19
ATOM     19  O   UNL     1      -4.197  -1.083   0.088  0.00  0.00    -0.379 OA
ATOM     20  H   UNL     1      -5.092  -1.124  -0.283  0.00  0.00    +0.211 HD
ENDBRANCH  18  19
ENDBRANCH   5  18
TORSDOF 6
