REMARK  Name = 445463
REMARK  13 active torsions:
REMARK  status: ('A' for Active; 'I' for Inactive)
REMARK    1  A    between atoms: C_2  and  O_7
REMARK    2  A    between atoms: C_3  and  O_13
REMARK    3  A    between atoms: C_4  and  O_9
REMARK    4  A    between atoms: C_5  and  C_22
REMARK    5  A    between atoms: C_6  and  O_11
REMARK    6  A    between atoms: O_13  and  C_14
REMARK    7  A    between atoms: C_14  and  C_15
REMARK    8  A    between atoms: C_15  and  C_16
REMARK    9  A    between atoms: C_16  and  C_17
REMARK   10  A    between atoms: C_17  and  C_18
REMARK   11  A    between atoms: C_18  and  C_19
REMARK   12  A    between atoms: C_19  and  C_20
REMARK   13  A    between atoms: C_22  and  O_23
REMARK                            x       y       z     vdW  Elec       q    Type
REMARK                         _______ _______ _______ _____ _____    ______ ____
ROOT
ATOM      1  O   UNL     1      -3.967   1.166   0.320  0.00  0.00    -0.326 OA
ATOM      2  C   UNL     1      -2.312  -1.103  -0.280  0.00  0.00    +0.172 C 
ATOM      3  C   UNL     1      -1.726   0.256   0.104  0.00  0.00    +0.200 C 
ATOM      4  C   UNL     1      -3.750  -1.246   0.216  0.00  0.00    +0.169 C 
ATOM      5  C   UNL     1      -4.584  -0.023  -0.175  0.00  0.00    +0.176 C 
ATOM      6  C   UNL     1      -2.682   1.395  -0.253  0.00  0.00    +0.263 C 
ENDROOT
BRANCH   2   7
ATOM      7  O   UNL     1      -1.533  -2.142   0.315  0.00  0.00    -0.379 OA
ATOM      8  H   UNL     1      -0.614  -2.070   0.014  0.00  0.00    +0.211 HD
ENDBRANCH   2   7
BRANCH   4   9
ATOM      9  O   UNL     1      -4.332  -2.415  -0.354  0.00  0.00    -0.379 OA
ATOM     10  H   UNL     1      -3.805  -3.191  -0.108  0.00  0.00    +0.211 HD
ENDBRANCH   4   9
BRANCH   6  11
ATOM     11  O   UNL     1      -2.133   2.607   0.263  0.00  0.00    -0.358 OA
ATOM     12  H   UNL     1      -2.723   3.346   0.048  0.00  0.00    +0.213 HD
ENDBRANCH   6  11
BRANCH   3  13
ATOM     13  O   UNL     1      -0.502   0.462  -0.602  0.00  0.00    -0.349 OA
BRANCH  13  14
ATOM     14  C   UNL     1       0.577  -0.226   0.014  0.00  0.00    +0.142 C 
BRANCH  14  15
ATOM     15  C   UNL     1       1.885   0.412  -0.430  0.00  0.00    +0.032 C 
BRANCH  15  16
ATOM     16  C   UNL     1       3.094  -0.291   0.185  0.00  0.00    +0.003 C 
BRANCH  16  17
ATOM     17  C   UNL     1       4.402   0.384  -0.235  0.00  0.00    +0.000 C 
BRANCH  17  18
ATOM     18  C   UNL     1       5.649  -0.296   0.336  0.00  0.00    +0.000 C 
BRANCH  18  19
ATOM     19  C   UNL     1       6.959   0.334  -0.143  0.00  0.00    +0.000 C 
BRANCH  19  20
ATOM     20  C   UNL     1       8.170  -0.428   0.398  0.00  0.00    +0.000 C 
ATOM     21  C   UNL     1       9.474   0.169  -0.104  0.00  0.00    +0.000 C 
ENDBRANCH  19  20
ENDBRANCH  18  19
ENDBRANCH  17  18
ENDBRANCH  16  17
ENDBRANCH  15  16
ENDBRANCH  14  15
ENDBRANCH  13  14
ENDBRANCH   3  13
BRANCH   5  22
ATOM     22  C   UNL     1      -5.992  -0.089   0.409  0.00  0.00    +0.169 C 
BRANCH  22  23
ATOM     23  O   UNL     1      -6.698   1.074   0.017  0.00  0.00    -0.379 OA
ATOM     24  H   UNL     1      -7.596   1.045   0.382  0.00  0.00    +0.211 HD
ENDBRANCH  22  23
ENDBRANCH   5  22
TORSDOF 13
