REMARK  Name = 22298966
REMARK  6 active torsions:
REMARK  status: ('A' for Active; 'I' for Inactive)
REMARK    1  A    between atoms: C_2  and  O_17
REMARK    2  A    between atoms: C_3  and  O_19
REMARK    3  A    between atoms: C_4  and  O_21
REMARK    4  A    between atoms: C_5  and  C_23
REMARK    5  A    between atoms: C_6  and  C_9
REMARK    6  A    between atoms: C_23  and  O_24
REMARK                            x       y       z     vdW  Elec       q    Type
REMARK                         _______ _______ _______ _____ _____    ______ ____
ROOT
ATOM      1  O   UNL     1       1.660   0.979   0.033  0.00  0.00    -0.343 OA
ATOM      2  C   UNL     1       3.226  -1.434  -0.044  0.00  0.00    +0.169 C 
ATOM      3  C   UNL     1       1.696  -1.466   0.005  0.00  0.00    +0.174 C 
ATOM      4  C   UNL     1       3.736  -0.104  -0.599  0.00  0.00    +0.169 C 
ATOM      5  C   UNL     1       3.082   1.075   0.126  0.00  0.00    +0.174 C 
ATOM      6  C   UNL     1       1.143  -0.195   0.664  0.00  0.00    +0.202 C 
ENDROOT
BRANCH   6   9
ATOM      7  S   UNL     1      -1.299  -0.002   1.990  0.00  0.00    -0.055 S 
ATOM      8  N   UNL     1      -1.033  -0.110  -0.573  0.00  0.00    -0.401 NA
ATOM      9  C   UNL     1      -0.369  -0.110   0.558  0.00  0.00    +0.168 C 
ATOM     10  C   UNL     1      -2.393  -0.018  -0.313  0.00  0.00    +0.119 C 
ATOM     11  C   UNL     1      -2.736   0.052   1.040  0.00  0.00    +0.057 C 
ATOM     12  C   UNL     1      -3.425   0.011  -1.276  0.00  0.00    +0.081 C 
ATOM     13  C   UNL     1      -4.072   0.148   1.462  0.00  0.00    +0.008 C 
ATOM     14  C   UNL     1      -4.757   0.107  -0.863  0.00  0.00    -0.037 C 
ATOM     15  C   UNL     1      -5.074   0.175   0.489  0.00  0.00    -0.007 C 
ATOM     16  C   UNL     1      -5.845   0.138  -1.884  0.00  0.00    +0.027 C 
ENDBRANCH   6   9
BRANCH   2  17
ATOM     17  O   UNL     1       3.696  -2.478  -0.899  0.00  0.00    -0.379 OA
ATOM     18  H   UNL     1       3.384  -3.334  -0.565  0.00  0.00    +0.211 HD
ENDBRANCH   2  17
BRANCH   3  19
ATOM     19  O   UNL     1       1.279  -2.596   0.771  0.00  0.00    -0.379 OA
ATOM     20  H   UNL     1       1.622  -3.407   0.365  0.00  0.00    +0.211 HD
ENDBRANCH   3  19
BRANCH   4  21
ATOM     21  O   UNL     1       5.149  -0.034  -0.429  0.00  0.00    -0.379 OA
ATOM     22  H   UNL     1       5.567  -0.780  -0.887  0.00  0.00    +0.211 HD
ENDBRANCH   4  21
BRANCH   5  23
ATOM     23  C   UNL     1       3.492   2.411  -0.485  0.00  0.00    +0.169 C 
BRANCH  23  24
ATOM     24  O   UNL     1       2.843   3.450   0.226  0.00  0.00    -0.379 OA
ATOM     25  H   UNL     1       3.095   4.307  -0.152  0.00  0.00    +0.211 HD
ENDBRANCH  23  24
ENDBRANCH   5  23
TORSDOF 6
