REMARK  Name = 17754076
REMARK  6 active torsions:
REMARK  status: ('A' for Active; 'I' for Inactive)
REMARK    1  A    between atoms: N_1  and  C_15
REMARK    2  A    between atoms: C_3  and  C_9
REMARK    3  A    between atoms: C_4  and  O_7
REMARK    4  A    between atoms: C_9  and  N_11
REMARK    5  A    between atoms: C_15  and  C_17
REMARK    6  A    between atoms: C_17  and  O_18
REMARK                            x       y       z     vdW  Elec       q    Type
REMARK                         _______ _______ _______ _____ _____    ______ ____
ROOT
ATOM      1  N   UNL     1       0.085   0.346   0.410  0.00  0.00    -0.251 N 
ATOM      2  N   UNL     1      -1.896  -0.368  -0.294  0.00  0.00    -0.398 NA
ATOM      3  C   UNL     1      -0.677  -0.727   0.041  0.00  0.00    +0.141 C 
ATOM      4  C   UNL     1      -0.698   1.460   0.304  0.00  0.00    +0.241 C 
ATOM      5  C   UNL     1      -1.915   0.995  -0.133  0.00  0.00    +0.135 C 
ATOM      6  C   UNL     1      -3.138   1.762  -0.419  0.00  0.00    +0.066 C 
ENDROOT
BRANCH   4   7
ATOM      7  O   UNL     1      -0.251   2.673   0.593  0.00  0.00    -0.362 OA
ATOM      8  H   UNL     1       0.633   2.790   0.883  0.00  0.00    +0.213 HD
ENDBRANCH   4   7
BRANCH   3   9
ATOM      9  C   UNL     1      -0.134  -2.142   0.036  0.00  0.00    +0.003 C 
ATOM     10  C   UNL     1      -0.786  -2.999  -1.051  0.00  0.00    -0.015 C 
BRANCH   9  11
ATOM     11  N   UNL     1      -0.309  -2.790   1.339  0.00  0.00    +0.387 N 
ATOM     12  H   UNL     1       0.126  -2.220   2.064  0.00  0.00    -0.089 HD
ATOM     13  H   UNL     1       0.129  -3.711   1.323  0.00  0.00    -0.089 HD
ATOM     14  H   UNL     1      -1.305  -2.891   1.537  0.00  0.00    -0.089 HD
ENDBRANCH   9  11
ENDBRANCH   3   9
BRANCH   1  15
ATOM     15  C   UNL     1       1.466   0.311   0.837  0.00  0.00    +0.205 C 
BRANCH  15  17
ATOM     16  O   UNL     1       2.127   0.599  -1.491  0.00  0.00    -0.248 OA
ATOM     17  C   UNL     1       2.424   0.461  -0.314  0.00  0.00    +0.334 C 
BRANCH  17  18
ATOM     18  O   UNL     1       3.702   0.419   0.141  0.00  0.00    -0.479 OA
ATOM     19  H   UNL     1       3.871   0.311   1.056  0.00  0.00    +0.295 HD
ENDBRANCH  17  18
ENDBRANCH  15  17
ENDBRANCH   1  15
TORSDOF 6
