REMARK  Name = 444200
REMARK  4 active torsions:
REMARK  status: ('A' for Active; 'I' for Inactive)
REMARK    1  A    between atoms: C_2  and  O_8
REMARK    2  A    between atoms: C_3  and  O_10
REMARK    3  A    between atoms: C_4  and  O_12
REMARK    4  A    between atoms: C_6  and  O_14
REMARK                            x       y       z     vdW  Elec       q    Type
REMARK                         _______ _______ _______ _____ _____    ______ ____
ROOT
ATOM      1  O   UNL     1      -0.891  -1.209  -0.599  0.00  0.00    -0.329 OA
ATOM      2  C   UNL     1       0.703   0.895   0.548  0.00  0.00    +0.171 C 
ATOM      3  C   UNL     1      -0.816   1.020   0.402  0.00  0.00    +0.167 C 
ATOM      4  C   UNL     1       1.257  -0.070  -0.501  0.00  0.00    +0.196 C 
ATOM      5  C   UNL     1      -1.467  -0.369   0.414  0.00  0.00    +0.147 C 
ATOM      6  C   UNL     1       0.517  -1.409  -0.446  0.00  0.00    +0.262 C 
ATOM      7  C   UNL     1      -2.968  -0.310   0.152  0.00  0.00    +0.035 C 
ENDROOT
BRANCH   2   8
ATOM      8  O   UNL     1       1.316   2.171   0.382  0.00  0.00    -0.379 OA
ATOM      9  H   UNL     1       0.967   2.786   1.045  0.00  0.00    +0.211 HD
ENDBRANCH   2   8
BRANCH   3  10
ATOM     10  O   UNL     1      -1.126   1.665  -0.836  0.00  0.00    -0.379 OA
ATOM     11  H   UNL     1      -0.718   2.545  -0.853  0.00  0.00    +0.211 HD
ENDBRANCH   3  10
BRANCH   4  12
ATOM     12  O   UNL     1       2.647  -0.291  -0.284  0.00  0.00    -0.378 OA
ATOM     13  H   UNL     1       3.118   0.556  -0.318  0.00  0.00    +0.211 HD
ENDBRANCH   4  12
BRANCH   6  14
ATOM     14  O   UNL     1       0.828  -2.093   0.768  0.00  0.00    -0.358 OA
ATOM     15  H   UNL     1       0.354  -2.939   0.792  0.00  0.00    +0.213 HD
ENDBRANCH   6  14
TORSDOF 4
