REMARK  Name = 445459
REMARK  7 active torsions:
REMARK  status: ('A' for Active; 'I' for Inactive)
REMARK    1  A    between atoms: C_1  and  C_7
REMARK    2  A    between atoms: C_1  and  N_13
REMARK    3  A    between atoms: C_1  and  C_27
REMARK    4  A    between atoms: C_4  and  C_9
REMARK    5  A    between atoms: C_9  and  O_10
REMARK    6  A    between atoms: C_14  and  C_18
REMARK    7  A    between atoms: C_27  and  C_28
REMARK                            x       y       z     vdW  Elec       q    Type
REMARK                         _______ _______ _______ _____ _____    ______ ____
ROOT
ATOM      1  C   UNL     1      -1.340  -0.300   0.466  0.00  0.00    +0.153 C 
ENDROOT
BRANCH   1   7
ATOM      2  O   UNL     1      -1.196   1.553   1.969  0.00  0.00    -0.273 OA
ATOM      3  N   UNL     1      -2.993   1.458   0.543  0.00  0.00    -0.277 N 
ATOM      4  C   UNL     1      -4.560   2.355  -0.421  0.00  0.00    +0.138 C 
ATOM      5  C   UNL     1      -3.795   2.618   0.882  0.00  0.00    +0.106 C 
ATOM      6  C   UNL     1      -3.888   0.978  -0.491  0.00  0.00    +0.106 C 
ATOM      7  C   UNL     1      -1.824   0.990   1.074  0.00  0.00    +0.244 C 
BRANCH   4   9
ATOM      8  O   UNL     1      -6.789   1.716   0.493  0.00  0.00    -0.250 OA
ATOM      9  C   UNL     1      -6.118   2.355  -0.315  0.00  0.00    +0.317 C 
BRANCH   9  10
ATOM     10  O   UNL     1      -6.694   3.172  -1.239  0.00  0.00    -0.480 OA
ATOM     11  H   UNL     1      -6.158   3.648  -1.843  0.00  0.00    +0.295 HD
ENDBRANCH   9  10
ENDBRANCH   4   9
ENDBRANCH   1   7
BRANCH   1  13
ATOM     12  O   UNL     1       0.198   0.962  -1.532  0.00  0.00    -0.269 OA
ATOM     13  N   UNL     1       0.100  -0.168   0.465  0.00  0.00    -0.294 N 
ATOM     14  C   UNL     1       0.825   0.474  -0.561  0.00  0.00    +0.260 C 
ATOM     15  H   UNL     1       0.602  -0.548   1.222  0.00  0.00    +0.150 HD
BRANCH  14  18
ATOM     16 CL   UNL     1       8.288   0.358   1.195  0.00  0.00    -0.082 Cl
ATOM     17  N   UNL     1       3.075   1.143  -1.322  0.00  0.00    -0.309 N 
ATOM     18  C   UNL     1       2.244   0.552  -0.408  0.00  0.00    +0.102 C 
ATOM     19  C   UNL     1       3.019   0.077   0.625  0.00  0.00    +0.020 C 
ATOM     20  C   UNL     1       4.375   0.391   0.328  0.00  0.00    +0.016 C 
ATOM     21  C   UNL     1       4.382   1.059  -0.898  0.00  0.00    +0.048 C 
ATOM     22  C   UNL     1       5.600   0.170   0.987  0.00  0.00    +0.013 C 
ATOM     23  C   UNL     1       5.558   1.519  -1.501  0.00  0.00    +0.015 C 
ATOM     24  C   UNL     1       6.785   0.624   0.396  0.00  0.00    +0.058 C 
ATOM     25  C   UNL     1       6.762   1.288  -0.829  0.00  0.00    +0.013 C 
ATOM     26  H   UNL     1       2.780   1.566  -2.161  0.00  0.00    +0.152 HD
ENDBRANCH  14  18
ENDBRANCH   1  13
BRANCH   1  27
ATOM     27  C   UNL     1      -1.825  -1.496   1.282  0.00  0.00    +0.055 C 
BRANCH  27  28
ATOM     28  C   UNL     1      -1.759  -2.791   0.509  0.00  0.00    -0.020 C 
ATOM     29  C   UNL     1      -2.853  -3.192  -0.241  0.00  0.00    -0.004 C 
ATOM     30  C   UNL     1      -0.604  -3.556   0.563  0.00  0.00    -0.004 C 
ATOM     31  C   UNL     1      -2.792  -4.388  -0.956  0.00  0.00    -0.000 C 
ATOM     32  C   UNL     1      -0.543  -4.753  -0.152  0.00  0.00    -0.000 C 
ATOM     33  C   UNL     1      -1.637  -5.168  -0.911  0.00  0.00    -0.000 C 
ENDBRANCH  27  28
ENDBRANCH   1  27
TORSDOF 7
