REMARK  Name = 243
REMARK  2 active torsions:
REMARK  status: ('A' for Active; 'I' for Inactive)
REMARK    1  A    between atoms: C_1  and  C_8
REMARK    2  A    between atoms: C_8  and  O_9
REMARK                            x       y       z     vdW  Elec       q    Type
REMARK                         _______ _______ _______ _____ _____    ______ ____
ROOT
ATOM      1  C   UNL     1       0.307   0.034   0.000  0.00  0.00    +0.075 C 
ATOM      2  C   UNL     1      -0.414   1.228   0.000  0.00  0.00    +0.006 C 
ATOM      3  C   UNL     1      -0.366  -1.188   0.000  0.00  0.00    +0.006 C 
ATOM      4  C   UNL     1      -1.809   1.200   0.000  0.00  0.00    +0.000 C 
ATOM      5  C   UNL     1      -1.761  -1.215   0.000  0.00  0.00    +0.000 C 
ATOM      6  C   UNL     1      -2.482  -0.021   0.000  0.00  0.00    +0.000 C 
ENDROOT
BRANCH   1   8
ATOM      7  O   UNL     1       2.457   1.084  -0.001  0.00  0.00    -0.245 OA
ATOM      8  C   UNL     1       1.761   0.063   0.000  0.00  0.00    +0.338 C 
BRANCH   8   9
ATOM      9  O   UNL     1       2.307  -1.184   0.001  0.00  0.00    -0.477 OA
ATOM     10  H   UNL     1       1.751  -1.939   0.001  0.00  0.00    +0.295 HD
ENDBRANCH   8   9
ENDBRANCH   1   8
TORSDOF 2
