REMARK  Name = 444863
REMARK  4 active torsions:
REMARK  status: ('A' for Active; 'I' for Inactive)
REMARK    1  A    between atoms: C_2  and  O_8
REMARK    2  A    between atoms: C_3  and  O_10
REMARK    3  A    between atoms: C_4  and  O_12
REMARK    4  A    between atoms: C_6  and  O_14
REMARK                            x       y       z     vdW  Elec       q    Type
REMARK                         _______ _______ _______ _____ _____    ______ ____
ROOT
ATOM      1  O   UNL     1      -0.663  -1.384   0.109  0.00  0.00    -0.329 OA
ATOM      2  C   UNL     1       0.447   1.195  -0.477  0.00  0.00    +0.171 C 
ATOM      3  C   UNL     1      -1.042   0.994  -0.190  0.00  0.00    +0.167 C 
ATOM      4  C   UNL     1       1.283   0.086   0.163  0.00  0.00    +0.196 C 
ATOM      5  C   UNL     1      -1.462  -0.423  -0.592  0.00  0.00    +0.147 C 
ATOM      6  C   UNL     1       0.725  -1.292  -0.205  0.00  0.00    +0.262 C 
ATOM      7  C   UNL     1      -2.921  -0.713  -0.257  0.00  0.00    +0.035 C 
ENDROOT
BRANCH   2   8
ATOM      8  O   UNL     1       0.845   2.469   0.022  0.00  0.00    -0.379 OA
ATOM      9  H   UNL     1       0.307   3.161  -0.392  0.00  0.00    +0.211 HD
ENDBRANCH   2   8
BRANCH   3  10
ATOM     10  O   UNL     1      -1.290   1.173   1.206  0.00  0.00    -0.379 OA
ATOM     11  H   UNL     1      -1.026   2.069   1.469  0.00  0.00    +0.211 HD
ENDBRANCH   3  10
BRANCH   4  12
ATOM     12  O   UNL     1       2.625   0.166  -0.317  0.00  0.00    -0.378 OA
ATOM     13  H   UNL     1       2.997   1.033  -0.094  0.00  0.00    +0.211 HD
ENDBRANCH   4  12
BRANCH   6  14
ATOM     14  O   UNL     1       1.453  -2.271   0.538  0.00  0.00    -0.358 OA
ATOM     15  H   UNL     1       1.117  -3.155   0.322  0.00  0.00    +0.213 HD
ENDBRANCH   6  14
TORSDOF 4
