REMARK  Name = 446394
REMARK  6 active torsions:
REMARK  status: ('A' for Active; 'I' for Inactive)
REMARK    1  A    between atoms: C_2  and  O_7
REMARK    2  A    between atoms: C_3  and  O_13
REMARK    3  A    between atoms: C_4  and  O_9
REMARK    4  A    between atoms: C_5  and  O_11
REMARK    5  A    between atoms: O_13  and  C_16
REMARK    6  A    between atoms: C_18  and  O_22
REMARK                            x       y       z     vdW  Elec       q    Type
REMARK                         _______ _______ _______ _____ _____    ______ ____
ROOT
ATOM      1  O   UNL     1       1.377   1.494  -0.222  0.00  0.00    -0.326 OA
ATOM      2  C   UNL     1       1.754  -0.900  -0.369  0.00  0.00    +0.196 C 
ATOM      3  C   UNL     1       0.874   0.222   0.183  0.00  0.00    +0.266 C 
ATOM      4  C   UNL     1       3.222  -0.700   0.007  0.00  0.00    +0.172 C 
ATOM      5  C   UNL     1       3.675   0.727  -0.297  0.00  0.00    +0.169 C 
ATOM      6  C   UNL     1       2.689   1.736   0.273  0.00  0.00    +0.176 C 
ENDROOT
BRANCH   2   7
ATOM      7  O   UNL     1       1.319  -2.150   0.167  0.00  0.00    -0.378 OA
ATOM      8  H   UNL     1       0.388  -2.294  -0.063  0.00  0.00    +0.211 HD
ENDBRANCH   2   7
BRANCH   4   9
ATOM      9  O   UNL     1       4.005  -1.621  -0.753  0.00  0.00    -0.379 OA
ATOM     10  H   UNL     1       3.717  -2.527  -0.560  0.00  0.00    +0.211 HD
ENDBRANCH   4   9
BRANCH   5  11
ATOM     11  O   UNL     1       4.952   0.973   0.281  0.00  0.00    -0.379 OA
ATOM     12  H   UNL     1       5.595   0.337  -0.072  0.00  0.00    +0.211 HD
ENDBRANCH   5  11
BRANCH   3  13
ATOM     13  O   UNL     1      -0.444   0.037  -0.329  0.00  0.00    -0.328 OA
BRANCH  13  16
ATOM     14  O   UNL     1      -4.500   0.232  -1.493  0.00  0.00    -0.272 OA
ATOM     15  N   UNL     1      -3.557  -1.263  -0.047  0.00  0.00    -0.302 N 
ATOM     16  C   UNL     1      -1.427   0.533   0.578  0.00  0.00    +0.155 C 
ATOM     17  C   UNL     1      -1.824  -0.561   1.563  0.00  0.00    +0.054 C 
ATOM     18  C   UNL     1      -2.626   1.024  -0.228  0.00  0.00    +0.214 C 
ATOM     19  C   UNL     1      -2.485  -1.707   0.820  0.00  0.00    +0.092 C 
ATOM     20  C   UNL     1      -3.624  -0.036  -0.667  0.00  0.00    +0.252 C 
ATOM     21  H   UNL     1      -4.299  -1.890  -0.205  0.00  0.00    +0.150 HD
BRANCH  18  22
ATOM     22  O   UNL     1      -3.381   1.959   0.534  0.00  0.00    -0.374 OA
ATOM     23  H   UNL     1      -2.798   2.668   0.847  0.00  0.00    +0.211 HD
ENDBRANCH  18  22
ENDBRANCH  13  16
ENDBRANCH   3  13
TORSDOF 6
