REMARK  Name = 3505109
REMARK  3 active torsions:
REMARK  status: ('A' for Active; 'I' for Inactive)
REMARK    1  A    between atoms: C_1  and  N_9
REMARK    2  A    between atoms: C_3  and  O_10
REMARK    3  A    between atoms: C_4  and  O_12
REMARK                            x       y       z     vdW  Elec       q    Type
REMARK                         _______ _______ _______ _____ _____    ______ ____
ROOT
ATOM      1  C   UNL     1       0.913  -0.088  -0.001  0.00  0.00    +0.146 C 
ATOM      2  C   UNL     1       0.051   1.009  -0.001  0.00  0.00    +0.064 C 
ATOM      3  C   UNL     1      -1.329   0.811  -0.001  0.00  0.00    +0.169 C 
ATOM      4  C   UNL     1      -1.848  -0.483   0.000  0.00  0.00    +0.168 C 
ATOM      5  C   UNL     1       0.394  -1.383  -0.001  0.00  0.00    +0.027 C 
ATOM      6  C   UNL     1      -0.987  -1.580   0.000  0.00  0.00    +0.041 C 
ENDROOT
BRANCH   1   9
ATOM      7  O   UNL     1       3.076  -0.888   0.002  0.00  0.00    -0.126 OA
ATOM      8  O   UNL     1       2.766   1.285   0.000  0.00  0.00    -0.126 OA
ATOM      9  N   UNL     1       2.319   0.113   0.000  0.00  0.00    +0.058 N 
ENDBRANCH   1   9
BRANCH   3  10
ATOM     10  O   UNL     1      -2.160   1.891   0.001  0.00  0.00    -0.503 OA
ATOM     11  H   UNL     1      -1.803   2.757   0.001  0.00  0.00    +0.292 HD
ENDBRANCH   3  10
BRANCH   4  12
ATOM     12  O   UNL     1      -3.195  -0.688   0.001  0.00  0.00    -0.503 OA
ATOM     13  H   UNL     1      -3.780   0.043   0.001  0.00  0.00    +0.292 HD
ENDBRANCH   4  12
TORSDOF 3
