REMARK  Name = 448942
REMARK  8 active torsions:
REMARK  status: ('A' for Active; 'I' for Inactive)
REMARK    1  A    between atoms: C_2  and  C_20
REMARK    2  A    between atoms: C_3  and  C_6
REMARK    3  A    between atoms: C_7  and  C_13
REMARK    4  A    between atoms: N_19  and  C_22
REMARK    5  A    between atoms: C_22  and  C_23
REMARK    6  A    between atoms: C_22  and  C_29
REMARK    7  A    between atoms: C_29  and  C_31
REMARK    8  A    between atoms: C_31  and  O_32
REMARK                            x       y       z     vdW  Elec       q    Type
REMARK                         _______ _______ _______ _____ _____    ______ ____
ROOT
ATOM      1  S   UNL     1       1.015  -2.307  -2.509  0.00  0.00    -0.082 S 
ATOM      2  C   UNL     1       1.419  -1.342  -1.178  0.00  0.00    +0.083 C 
ATOM      3  C   UNL     1      -0.853  -1.116  -1.207  0.00  0.00    +0.007 C 
ATOM      4  C   UNL     1       0.367  -0.760  -0.562  0.00  0.00    +0.012 C 
ATOM      5  C   UNL     1      -0.645  -1.952  -2.281  0.00  0.00    +0.036 C 
ENDROOT
BRANCH   3   6
ATOM      6  C   UNL     1      -2.180  -0.696  -0.845  0.00  0.00    +0.001 C 
ATOM      7  C   UNL     1      -4.753   0.116  -0.143  0.00  0.00    +0.000 C 
ATOM      8  C   UNL     1      -2.377   0.544  -0.241  0.00  0.00    +0.000 C 
ATOM      9  C   UNL     1      -3.267  -1.532  -1.099  0.00  0.00    +0.000 C 
ATOM     10  C   UNL     1      -3.664   0.951   0.111  0.00  0.00    +0.000 C 
ATOM     11  C   UNL     1      -4.554  -1.125  -0.747  0.00  0.00    +0.000 C 
BRANCH   7  13
ATOM     12  N   UNL     1      -8.665   1.352   0.933  0.00  0.00    -0.242 NA
ATOM     13  C   UNL     1      -6.087   0.537   0.223  0.00  0.00    +0.003 C 
ATOM     14  C   UNL     1      -6.415   1.888   0.229  0.00  0.00    +0.021 C 
ATOM     15  C   UNL     1      -7.047  -0.407   0.572  0.00  0.00    +0.021 C 
ATOM     16  C   UNL     1      -7.706   2.241   0.588  0.00  0.00    +0.099 C 
ATOM     17  C   UNL     1      -8.309   0.048   0.916  0.00  0.00    +0.099 C 
ENDBRANCH   7  13
ENDBRANCH   3   6
BRANCH   2  20
ATOM     18  O   UNL     1       3.724  -1.824  -1.436  0.00  0.00    -0.270 OA
ATOM     19  N   UNL     1       3.120  -0.423   0.281  0.00  0.00    -0.298 N 
ATOM     20  C   UNL     1       2.839  -1.227  -0.820  0.00  0.00    +0.252 C 
ATOM     21  H   UNL     1       2.378   0.033   0.740  0.00  0.00    +0.150 HD
BRANCH  19  22
ATOM     22  C   UNL     1       4.468  -0.237   0.773  0.00  0.00    +0.105 C 
BRANCH  22  23
ATOM     23  C   UNL     1       5.135   0.914   0.045  0.00  0.00    -0.004 C 
ATOM     24  C   UNL     1       4.368   1.996  -0.346  0.00  0.00    -0.003 C 
ATOM     25  C   UNL     1       6.492   0.853  -0.210  0.00  0.00    -0.003 C 
ATOM     26  C   UNL     1       4.981   3.055  -1.016  0.00  0.00    -0.000 C 
ATOM     27  C   UNL     1       7.105   1.911  -0.880  0.00  0.00    -0.000 C 
ATOM     28  C   UNL     1       6.349   3.012  -1.284  0.00  0.00    -0.000 C 
ENDBRANCH  22  23
BRANCH  22  29
ATOM     29  C   UNL     1       4.458  -0.075   2.303  0.00  0.00    +0.133 C 
BRANCH  29  31
ATOM     30  O   UNL     1       3.716  -2.375   2.630  0.00  0.00    -0.250 OA
ATOM     31  C   UNL     1       3.774  -1.218   3.023  0.00  0.00    +0.316 C 
BRANCH  31  32
ATOM     32  O   UNL     1       3.191  -0.800   4.178  0.00  0.00    -0.480 OA
ATOM     33  H   UNL     1       3.262   0.096   4.440  0.00  0.00    +0.295 HD
ENDBRANCH  31  32
ENDBRANCH  29  31
ENDBRANCH  22  29
ENDBRANCH  19  22
ENDBRANCH   2  20
TORSDOF 8
