REMARK  Name = 439398
REMARK  8 active torsions:
REMARK  status: ('A' for Active; 'I' for Inactive)
REMARK    1  A    between atoms: C_1  and  N_2
REMARK    2  A    between atoms: C_1  and  C_6
REMARK    3  A    between atoms: C_1  and  C_14
REMARK    4  A    between atoms: C_6  and  C_9
REMARK    5  A    between atoms: C_14  and  O_15
REMARK    6  A    between atoms: O_15  and  P_16
REMARK    7  A    between atoms: P_16  and  O_18
REMARK    8  A    between atoms: P_16  and  O_20
REMARK                            x       y       z     vdW  Elec       q    Type
REMARK                         _______ _______ _______ _____ _____    ______ ____
ROOT
ATOM      1  C   UNL     1       0.086  -2.021   0.304  0.00  0.00    -0.029 C 
ENDROOT
BRANCH   1   2
ATOM      2  N   UNL     1      -0.614  -3.185  -0.252  0.00  0.00    +0.384 N 
ATOM      3  H   UNL     1       0.070  -3.859  -0.598  0.00  0.00    -0.089 HD
ATOM      4  H   UNL     1      -1.215  -2.886  -1.020  0.00  0.00    -0.089 HD
ATOM      5  H   UNL     1      -1.182  -3.620   0.475  0.00  0.00    -0.089 HD
ENDBRANCH   1   2
BRANCH   1   6
ATOM      6  C   UNL     1       1.020  -1.450  -0.780  0.00  0.00    +0.023 C 
BRANCH   6   9
ATOM      7  N   UNL     1       2.165   0.737  -1.109  0.00  0.00    -0.319 N 
ATOM      8  N   UNL     1       3.045   1.182   0.881  0.00  0.00    -0.315 N 
ATOM      9  C   UNL     1       1.842  -0.280  -0.291  0.00  0.00    +0.035 C 
ATOM     10  C   UNL     1       2.374  -0.015   0.918  0.00  0.00    +0.069 C 
ATOM     11  C   UNL     1       2.899   1.608  -0.354  0.00  0.00    +0.182 C 
ATOM     12  H   UNL     1       1.921   0.834  -2.058  0.00  0.00    +0.148 HD
ATOM     13  H   UNL     1       3.528   1.623   1.616  0.00  0.00    +0.148 HD
ENDBRANCH   6   9
ENDBRANCH   1   6
BRANCH   1  14
ATOM     14  C   UNL     1      -0.961  -1.022   0.818  0.00  0.00    +0.132 C 
BRANCH  14  15
ATOM     15  O   UNL     1      -1.812  -0.567  -0.225  0.00  0.00    -0.276 OA
BRANCH  15  16
ATOM     16  P   UNL     1      -2.433   0.922  -0.114  0.00  0.00    +0.473 P 
ATOM     17  O   UNL     1      -3.321   1.327  -1.254  0.00  0.00    -0.228 OA
BRANCH  16  18
ATOM     18  O   UNL     1      -1.139   1.863   0.123  0.00  0.00    -0.303 OA
ATOM     19  H   UNL     1      -0.628   1.526   0.876  0.00  0.00    +0.222 HD
ENDBRANCH  16  18
BRANCH  16  20
ATOM     20  O   UNL     1      -3.150   0.903   1.336  0.00  0.00    -0.303 OA
ATOM     21  H   UNL     1      -2.507   0.631   2.010  0.00  0.00    +0.222 HD
ENDBRANCH  16  20
ENDBRANCH  15  16
ENDBRANCH  14  15
ENDBRANCH   1  14
TORSDOF 8
