REMARK  Name = 656948
REMARK  8 active torsions:
REMARK  status: ('A' for Active; 'I' for Inactive)
REMARK    1  A    between atoms: N_1  and  C_3
REMARK    2  A    between atoms: N_1  and  C_18
REMARK    3  A    between atoms: C_6  and  C_10
REMARK    4  A    between atoms: C_10  and  O_11
REMARK    5  A    between atoms: O_11  and  P_12
REMARK    6  A    between atoms: P_12  and  O_14
REMARK    7  A    between atoms: P_12  and  O_16
REMARK    8  A    between atoms: C_18  and  C_25
REMARK                            x       y       z     vdW  Elec       q    Type
REMARK                         _______ _______ _______ _____ _____    ______ ____
ROOT
ATOM      1  N   UNL     1       0.283   0.346  -0.134  0.00  0.00    -0.327 N 
ATOM      2  H   UNL     1       0.664  -0.117  -0.915  0.00  0.00    +0.147 HD
ENDROOT
BRANCH   1   3
ATOM      3  C   UNL     1      -1.091   0.335   0.026  0.00  0.00    +0.045 C 
ATOM      4  C   UNL     1      -1.698   0.979   1.122  0.00  0.00    +0.015 C 
ATOM      5  C   UNL     1      -1.923  -0.321  -0.902  0.00  0.00    +0.015 C 
ATOM      6  C   UNL     1      -3.889   0.312   0.352  0.00  0.00    +0.076 C 
ATOM      7  C   UNL     1      -3.083   0.968   1.283  0.00  0.00    +0.008 C 
ATOM      8  C   UNL     1      -3.309  -0.332  -0.740  0.00  0.00    +0.008 C 
BRANCH   6  10
ATOM      9  O   UNL     1      -5.944   0.841   1.450  0.00  0.00    -0.245 OA
ATOM     10  C   UNL     1      -5.333   0.301   0.520  0.00  0.00    +0.348 C 
BRANCH  10  11
ATOM     11  O   UNL     1      -5.957  -0.385  -0.479  0.00  0.00    -0.368 OA
BRANCH  11  12
ATOM     12  P   UNL     1      -7.553  -0.605  -0.620  0.00  0.00    +0.530 P 
ATOM     13  O   UNL     1      -8.356   0.659  -0.734  0.00  0.00    -0.216 OA
BRANCH  12  14
ATOM     14  O   UNL     1      -7.921  -1.548   0.640  0.00  0.00    -0.293 OA
ATOM     15  H   UNL     1      -7.355  -2.336   0.631  0.00  0.00    +0.223 HD
ENDBRANCH  12  14
BRANCH  12  16
ATOM     16  O   UNL     1      -7.671  -1.606  -1.884  0.00  0.00    -0.293 OA
ATOM     17  H   UNL     1      -7.124  -2.391  -1.726  0.00  0.00    +0.223 HD
ENDBRANCH  12  16
ENDBRANCH  11  12
ENDBRANCH  10  11
ENDBRANCH   6  10
ENDBRANCH   1   3
BRANCH   1  18
ATOM     18  C   UNL     1       1.191   1.002   0.784  0.00  0.00    +0.145 C 
BRANCH  18  25
ATOM     19  O   UNL     1       4.863  -2.229   1.449  0.00  0.00    -0.206 OA
ATOM     20  N   UNL     1       3.309  -0.179   0.730  0.00  0.00    -0.391 NA
ATOM     21  N   UNL     1       6.473   0.537  -0.947  0.00  0.00    -0.259 N 
ATOM     22  N   UNL     1       4.415   1.776  -0.954  0.00  0.00    -0.246 NA
ATOM     23  N   UNL     1       6.698  -1.496   0.274  0.00  0.00    -0.300 NA
ATOM     24  N   UNL     1       8.466  -0.601  -0.980  0.00  0.00    -0.320 N 
ATOM     25  C   UNL     1       2.599   0.887   0.316  0.00  0.00    +0.132 C 
ATOM     26  C   UNL     1       4.579  -0.240   0.280  0.00  0.00    +0.255 C 
ATOM     27  C   UNL     1       5.144   0.714  -0.550  0.00  0.00    +0.173 C 
ATOM     28  C   UNL     1       3.143   1.847  -0.510  0.00  0.00    +0.183 C 
ATOM     29  C   UNL     1       5.390  -1.399   0.715  0.00  0.00    +0.240 C 
ATOM     30  C   UNL     1       7.177  -0.563  -0.509  0.00  0.00    +0.249 C 
ATOM     31  H   UNL     1       6.904   1.197  -1.537  0.00  0.00    +0.157 HD
ATOM     32  H   UNL     1       8.797   0.117  -1.567  0.00  0.00    +0.146 HD
ATOM     33  H   UNL     1       9.060  -1.345  -0.729  0.00  0.00    +0.146 HD
ENDBRANCH  18  25
ENDBRANCH   1  18
TORSDOF 8
