REMARK  Name = 5287429
REMARK  13 active torsions:
REMARK  status: ('A' for Active; 'I' for Inactive)
REMARK    1  A    between atoms: C_1  and  C_20
REMARK    2  A    between atoms: C_2  and  C_9
REMARK    3  A    between atoms: N_8  and  C_11
REMARK    4  A    between atoms: C_11  and  C_13
REMARK    5  A    between atoms: C_11  and  C_15
REMARK    6  A    between atoms: C_15  and  C_17
REMARK    7  A    between atoms: C_17  and  O_18
REMARK    8  A    between atoms: C_20  and  N_21
REMARK    9  A    between atoms: N_21  and  S_23
REMARK   10  A    between atoms: S_23  and  C_26
REMARK   11  A    between atoms: C_29  and  C_35
REMARK   12  A    between atoms: C_31  and  O_32
REMARK   13  A    between atoms: C_35  and  O_36
REMARK                            x       y       z     vdW  Elec       q    Type
REMARK                         _______ _______ _______ _____ _____    ______ ____
ROOT
ATOM      1  C   UNL     1       0.056   0.206   0.306  0.00  0.00    -0.005 C 
ATOM      2  C   UNL     1      -2.630  -0.478   0.625  0.00  0.00    +0.053 C 
ATOM      3  C   UNL     1      -0.288  -1.033   0.846  0.00  0.00    -0.003 C 
ATOM      4  C   UNL     1      -0.942   1.103  -0.074  0.00  0.00    -0.003 C 
ATOM      5  C   UNL     1      -1.631  -1.375   1.005  0.00  0.00    +0.004 C 
ATOM      6  C   UNL     1      -2.285   0.761   0.086  0.00  0.00    +0.004 C 
ENDROOT
BRANCH   2   9
ATOM      7  O   UNL     1      -4.377  -1.626   1.687  0.00  0.00    -0.270 OA
ATOM      8  N   UNL     1      -4.952  -0.234  -0.078  0.00  0.00    -0.296 N 
ATOM      9  C   UNL     1      -4.060  -0.843   0.795  0.00  0.00    +0.246 C 
ATOM     10  H   UNL     1      -4.600   0.380  -0.761  0.00  0.00    +0.150 HD
BRANCH   8  11
ATOM     11  C   UNL     1      -6.372  -0.467  -0.022  0.00  0.00    +0.141 C 
BRANCH  11  13
ATOM     12  O   UNL     1      -6.062  -1.951  -1.903  0.00  0.00    -0.294 OA
ATOM     13  C   UNL     1      -6.657  -1.708  -0.853  0.00  0.00    +0.169 C 
ATOM     14  C   UNL     1      -7.754  -2.614  -0.356  0.00  0.00    +0.074 C 
ENDBRANCH  11  13
BRANCH  11  15
ATOM     15  C   UNL     1      -7.172   0.719  -0.546  0.00  0.00    +0.136 C 
BRANCH  15  17
ATOM     16  O   UNL     1      -6.809   1.733   1.617  0.00  0.00    -0.250 OA
ATOM     17  C   UNL     1      -7.318   1.791   0.505  0.00  0.00    +0.316 C 
BRANCH  17  18
ATOM     18  O   UNL     1      -8.089   2.827   0.089  0.00  0.00    -0.480 OA
ATOM     19  H   UNL     1      -8.455   2.821  -0.774  0.00  0.00    +0.295 HD
ENDBRANCH  17  18
ENDBRANCH  15  17
ENDBRANCH  11  15
ENDBRANCH   8  11
ENDBRANCH   2   9
BRANCH   1  20
ATOM     20  C   UNL     1       1.492   0.571   0.135  0.00  0.00    +0.118 C 
BRANCH  20  21
ATOM     21  N   UNL     1       2.031   0.168  -1.187  0.00  0.00    -0.175 NA
ATOM     22  H   UNL     1       2.340  -0.800  -1.097  0.00  0.00    +0.149 HD
BRANCH  21  23
ATOM     23  S   UNL     1       3.320   1.033  -1.873  0.00  0.00    +0.061 S 
ATOM     24  O   UNL     1       2.979   2.442  -1.931  0.00  0.00    -0.153 OA
ATOM     25  O   UNL     1       3.765   0.340  -3.067  0.00  0.00    -0.153 OA
BRANCH  23  26
ATOM     26  C   UNL     1       4.586   0.829  -0.656  0.00  0.00    +0.122 C 
ATOM     27  C   UNL     1       5.462  -0.254  -0.736  0.00  0.00    +0.029 C 
ATOM     28  C   UNL     1       4.709   1.751   0.383  0.00  0.00    +0.023 C 
ATOM     29  C   UNL     1       6.462  -0.414   0.223  0.00  0.00    +0.110 C 
ATOM     30  C   UNL     1       5.709   1.591   1.342  0.00  0.00    +0.038 C 
ATOM     31  C   UNL     1       6.585   0.508   1.262  0.00  0.00    +0.140 C 
BRANCH  31  32
ATOM     32  O   UNL     1       7.556   0.370   2.209  0.00  0.00    -0.505 OA
ATOM     33  H   UNL     1       8.151  -0.353   2.167  0.00  0.00    +0.292 HD
ENDBRANCH  31  32
BRANCH  29  35
ATOM     34  O   UNL     1       8.538  -1.567   0.510  0.00  0.00    -0.245 OA
ATOM     35  C   UNL     1       7.367  -1.550   0.121  0.00  0.00    +0.341 C 
BRANCH  35  36
ATOM     36  O   UNL     1       6.780  -2.630  -0.463  0.00  0.00    -0.477 OA
ATOM     37  H   UNL     1       5.888  -2.582  -0.747  0.00  0.00    +0.295 HD
ENDBRANCH  35  36
ENDBRANCH  29  35
ENDBRANCH  23  26
ENDBRANCH  21  23
ENDBRANCH  20  21
ENDBRANCH   1  20
TORSDOF 13
