REMARK  Name = 5288371
REMARK  11 active torsions:
REMARK  status: ('A' for Active; 'I' for Inactive)
REMARK    1  A    between atoms: N_1  and  C_4
REMARK    2  A    between atoms: N_1  and  C_15
REMARK    3  A    between atoms: C_4  and  C_5
REMARK    4  A    between atoms: C_5  and  C_6
REMARK    5  A    between atoms: C_6  and  C_7
REMARK    6  A    between atoms: C_7  and  C_8
REMARK    7  A    between atoms: C_8  and  C_9
REMARK    8  A    between atoms: C_9  and  C_10
REMARK    9  A    between atoms: C_10  and  N_11
REMARK   10  A    between atoms: C_15  and  N_16
REMARK   11  A    between atoms: C_15  and  N_20
REMARK                            x       y       z     vdW  Elec       q    Type
REMARK                         _______ _______ _______ _____ _____    ______ ____
ROOT
ATOM      1  N   UNL     1       3.336  -0.589  -0.066  0.00  0.00    +0.362 N 
ATOM      2  H   UNL     1       3.305  -0.764  -1.070  0.00  0.00    -0.090 HD
ATOM      3  H   UNL     1       3.315  -1.457   0.470  0.00  0.00    -0.090 HD
ENDROOT
BRANCH   1   4
ATOM      4  C   UNL     1       2.160   0.188   0.308  0.00  0.00    -0.087 C 
BRANCH   4   5
ATOM      5  C   UNL     1       0.843  -0.520  -0.018  0.00  0.00    -0.024 C 
BRANCH   5   6
ATOM      6  C   UNL     1      -0.397   0.314   0.315  0.00  0.00    -0.002 C 
BRANCH   6   7
ATOM      7  C   UNL     1      -1.679  -0.410  -0.101  0.00  0.00    -0.000 C 
BRANCH   7   8
ATOM      8  C   UNL     1      -2.922   0.407   0.258  0.00  0.00    -0.002 C 
BRANCH   8   9
ATOM      9  C   UNL     1      -4.203  -0.307  -0.186  0.00  0.00    -0.024 C 
BRANCH   9  10
ATOM     10  C   UNL     1      -5.479   0.473   0.135  0.00  0.00    -0.086 C 
BRANCH  10  11
ATOM     11  N   UNL     1      -6.681  -0.228  -0.300  0.00  0.00    +0.380 N 
ATOM     12  H   UNL     1      -7.503   0.328  -0.065  0.00  0.00    -0.089 HD
ATOM     13  H   UNL     1      -6.737  -1.132   0.169  0.00  0.00    -0.089 HD
ATOM     14  H   UNL     1      -6.645  -0.371  -1.310  0.00  0.00    -0.089 HD
ENDBRANCH  10  11
ENDBRANCH   9  10
ENDBRANCH   8   9
ENDBRANCH   7   8
ENDBRANCH   6   7
ENDBRANCH   5   6
ENDBRANCH   4   5
ENDBRANCH   1   4
BRANCH   1  15
ATOM     15  C   UNL     1       4.591   0.095   0.251  0.00  0.00    -0.215 C 
BRANCH  15  16
ATOM     16  N   UNL     1       5.707  -0.773  -0.112  0.00  0.00    +0.359 N 
ATOM     17  H   UNL     1       5.630  -1.656   0.393  0.00  0.00    -0.095 HD
ATOM     18  H   UNL     1       6.587  -0.317   0.133  0.00  0.00    -0.095 HD
ATOM     19  H   UNL     1       5.686  -0.953  -1.116  0.00  0.00    -0.095 HD
ENDBRANCH  15  16
BRANCH  15  20
ATOM     20  N   UNL     1       4.724   1.349  -0.483  0.00  0.00    +0.359 N 
ATOM     21  H   UNL     1       3.951   1.969  -0.241  0.00  0.00    -0.095 HD
ATOM     22  H   UNL     1       4.706   1.160  -1.485  0.00  0.00    -0.095 HD
ATOM     23  H   UNL     1       5.607   1.796  -0.237  0.00  0.00    -0.095 HD
ENDBRANCH  15  20
ENDBRANCH   1  15
TORSDOF 11
