REMARK  Name = 446662
REMARK  8 active torsions:
REMARK  status: ('A' for Active; 'I' for Inactive)
REMARK    1  A    between atoms: C_3  and  C_13
REMARK    2  A    between atoms: C_4  and  C_22
REMARK    3  A    between atoms: C_13  and  P_14
REMARK    4  A    between atoms: P_14  and  O_16
REMARK    5  A    between atoms: P_14  and  O_18
REMARK    6  A    between atoms: C_22  and  P_23
REMARK    7  A    between atoms: P_23  and  O_25
REMARK    8  A    between atoms: P_23  and  O_27
REMARK                            x       y       z     vdW  Elec       q    Type
REMARK                         _______ _______ _______ _____ _____    ______ ____
ROOT
ATOM      1  C   UNL     1       0.005  -0.547  -0.309  0.00  0.00    -0.000 C 
ATOM      2  C   UNL     1      -0.001  -1.821   0.307  0.00  0.00    -0.000 C 
ATOM      3  C   UNL     1      -2.428  -0.548  -0.307  0.00  0.00    +0.049 C 
ATOM      4  C   UNL     1       2.437  -0.567  -0.300  0.00  0.00    +0.049 C 
ATOM      5  C   UNL     1      -1.218   0.076  -0.609  0.00  0.00    +0.002 C 
ATOM      6  C   UNL     1       1.232   0.067  -0.605  0.00  0.00    +0.002 C 
ATOM      7  C   UNL     1      -1.229  -2.435   0.604  0.00  0.00    -0.000 C 
ATOM      8  C   UNL     1       1.221  -2.444   0.608  0.00  0.00    -0.000 C 
ATOM      9  C   UNL     1      -2.434  -1.802   0.298  0.00  0.00    +0.002 C 
ATOM     10  C   UNL     1       2.432  -1.820   0.305  0.00  0.00    +0.002 C 
ENDROOT
BRANCH   3  13
ATOM     11  F   UNL     1      -3.664   0.947  -1.716  0.00  0.00    -0.187 F 
ATOM     12  F   UNL     1      -4.765  -0.712  -0.837  0.00  0.00    -0.187 F 
ATOM     13  C   UNL     1      -3.716   0.128  -0.634  0.00  0.00    +0.372 C 
BRANCH  13  14
ATOM     14  P   UNL     1      -4.415   1.239   0.555  0.00  0.00    +0.401 P 
ATOM     15  O   UNL     1      -3.546   2.409   0.907  0.00  0.00    -0.252 OA
BRANCH  14  16
ATOM     16  O   UNL     1      -5.856   1.629  -0.067  0.00  0.00    -0.320 OA
ATOM     17  H   UNL     1      -6.311   2.243   0.531  0.00  0.00    +0.220 HD
ENDBRANCH  14  16
BRANCH  14  18
ATOM     18  O   UNL     1      -4.801   0.282   1.800  0.00  0.00    -0.320 OA
ATOM     19  H   UNL     1      -5.196   0.815   2.508  0.00  0.00    +0.220 HD
ENDBRANCH  14  18
ENDBRANCH  13  14
ENDBRANCH   3  13
BRANCH   4  22
ATOM     20  F   UNL     1       4.752  -0.755  -0.895  0.00  0.00    -0.187 F 
ATOM     21  F   UNL     1       3.679   0.979  -1.655  0.00  0.00    -0.187 F 
ATOM     22  C   UNL     1       3.732   0.099  -0.621  0.00  0.00    +0.372 C 
BRANCH  22  23
ATOM     23  P   UNL     1       4.500   1.102   0.619  0.00  0.00    +0.401 P 
ATOM     24  O   UNL     1       4.845   0.378   1.887  0.00  0.00    -0.252 OA
BRANCH  23  25
ATOM     25  O   UNL     1       5.760   1.776  -0.139  0.00  0.00    -0.320 OA
ATOM     26  H   UNL     1       6.241   2.348   0.479  0.00  0.00    +0.220 HD
ENDBRANCH  23  25
BRANCH  23  27
ATOM     27  O   UNL     1       3.479   2.342   0.803  0.00  0.00    -0.320 OA
ATOM     28  H   UNL     1       3.826   2.950   1.475  0.00  0.00    +0.220 HD
ENDBRANCH  23  27
ENDBRANCH  22  23
ENDBRANCH   4  22
TORSDOF 8
