REMARK  Name = 2734707
REMARK  2 active torsions:
REMARK  status: ('A' for Active; 'I' for Inactive)
REMARK    1  A    between atoms: C_3  and  C_7
REMARK    2  A    between atoms: C_7  and  O_8
REMARK                            x       y       z     vdW  Elec       q    Type
REMARK                         _______ _______ _______ _____ _____    ______ ____
ROOT
ATOM      1  O   UNL     1      -0.763   1.001  -0.637  0.00  0.00    -0.345 OA
ATOM      2  C   UNL     1      -0.704  -1.325  -0.154  0.00  0.00    +0.044 C 
ATOM      3  C   UNL     1       0.069  -0.158  -0.738  0.00  0.00    +0.213 C 
ATOM      4  C   UNL     1      -1.652  -0.644   0.803  0.00  0.00    +0.035 C 
ATOM      5  C   UNL     1      -1.954   0.648   0.079  0.00  0.00    +0.143 C 
ENDROOT
BRANCH   3   7
ATOM      6  O   UNL     1       1.476   1.197   0.635  0.00  0.00    -0.248 OA
ATOM      7  C   UNL     1       1.315   0.146   0.033  0.00  0.00    +0.341 C 
BRANCH   7   8
ATOM      8  O   UNL     1       2.214  -0.865  -0.020  0.00  0.00    -0.479 OA
ATOM      9  H   UNL     1       2.017  -1.643  -0.504  0.00  0.00    +0.295 HD
ENDBRANCH   7   8
ENDBRANCH   3   7
TORSDOF 2
