REMARK  Name = 23657869
REMARK  2 active torsions:
REMARK  status: ('A' for Active; 'I' for Inactive)
REMARK    1  A    between atoms: CA_1  and  N_4
REMARK    2  A    between atoms: CA_1  and  C_10
REMARK                            x       y       z     vdW  Elec       q    Type
REMARK                         _______ _______ _______ _____ _____    ______ ____
ROOT
ATOM      1  CA  UNL     1      -0.243  -0.255  -0.002  0.00  0.00    +0.102 C 
ATOM      2  C   UNL     1      -1.246   0.637  -0.002  0.00  0.00    -0.007 C 
ATOM      3  C   UNL     1      -2.716   0.352  -0.002  0.00  0.00    +0.032 C 
ENDROOT
BRANCH   1   4
ATOM      4  N   UNL     1      -0.548  -1.641   0.006  0.00  0.00    -0.411 NA
ATOM      5  H1  UNL     1      -1.487  -1.938   0.004  0.00  0.00    +0.121 HD
ATOM      6  H2  UNL     1       0.178  -2.305   0.013  0.00  0.00    +0.121 HD
ATOM      7  H3  UNL     1      -0.081  -1.726   0.868  0.00  0.00    +0.121 HD
ENDBRANCH   1   4
BRANCH   1  10
ATOM      8  O   UNL     1       1.439   1.448   0.004  0.00  0.00    -0.239 OA
ATOM      9  OXT UNL     1       2.080  -0.742  -0.006  0.00  0.00    -0.239 OA
ATOM     10  C   UNL     1       1.234   0.200   0.002  0.00  0.00    +0.399 C 
ENDBRANCH   1  10
TORSDOF 2
