REMARK  Name = 5289510
REMARK  2 active torsions:
REMARK  status: ('A' for Active; 'I' for Inactive)
REMARK    1  A    between atoms: C_3  and  C_6
REMARK    2  A    between atoms: C_6  and  C_8
REMARK                            x       y       z     vdW  Elec       q    Type
REMARK                         _______ _______ _______ _____ _____    ______ ____
ROOT
ATOM      1  S   UNL     1       1.236  -0.256  -1.426  0.00  0.00    -0.070 S 
ATOM      2  N   UNL     1       0.759   0.310   1.051  0.00  0.00    -0.241 NA
ATOM      3  C   UNL     1       0.248   0.211  -0.130  0.00  0.00    +0.088 C 
ATOM      4  C   UNL     1       2.539  -0.352  -0.316  0.00  0.00    +0.057 C 
ATOM      5  C   UNL     1       2.097  -0.019   0.947  0.00  0.00    +0.106 C 
ENDROOT
BRANCH   3   6
ATOM      6  C   UNL     1      -1.219   0.496  -0.421  0.00  0.00    +0.047 C 
ATOM      7  C   UNL     1      -1.562   1.961  -0.128  0.00  0.00    +0.007 C 
BRANCH   6   8
ATOM      8  C   UNL     1      -2.176  -0.437   0.348  0.00  0.00    +0.006 C 
ATOM      9  C   UNL     1      -1.922  -1.914   0.075  0.00  0.00    +0.000 C 
ENDBRANCH   6   8
ENDBRANCH   3   6
TORSDOF 2
