REMARK  Name = 439351
REMARK  5 active torsions:
REMARK  status: ('A' for Active; 'I' for Inactive)
REMARK    1  A    between atoms: C_2  and  O_8
REMARK    2  A    between atoms: C_2  and  C_15
REMARK    3  A    between atoms: C_4  and  O_10
REMARK    4  A    between atoms: C_6  and  O_12
REMARK    5  A    between atoms: C_15  and  O_16
REMARK                            x       y       z     vdW  Elec       q    Type
REMARK                         _______ _______ _______ _____ _____    ______ ____
ROOT
ATOM      1  O   UNL     1      -1.726   2.301  -0.056  0.00  0.00    -0.293 OA
ATOM      2  C   UNL     1       0.997   0.047  -0.243  0.00  0.00    +0.186 C 
ATOM      3  C   UNL     1       0.271  -1.274   0.015  0.00  0.00    +0.070 C 
ATOM      4  C   UNL     1      -1.219  -1.186  -0.324  0.00  0.00    +0.147 C 
ATOM      5  C   UNL     1       0.342   1.220   0.482  0.00  0.00    +0.105 C 
ATOM      6  C   UNL     1      -1.900  -0.054   0.437  0.00  0.00    +0.195 C 
ATOM      7  C   UNL     1      -1.151   1.250   0.228  0.00  0.00    +0.183 C 
ENDROOT
BRANCH   2   8
ATOM      8  O   UNL     1       1.038   0.333  -1.637  0.00  0.00    -0.376 OA
ATOM      9  H   UNL     1       0.134   0.418  -1.976  0.00  0.00    +0.211 HD
ENDBRANCH   2   8
BRANCH   4  10
ATOM     10  O   UNL     1      -1.846  -2.415   0.044  0.00  0.00    -0.381 OA
ATOM     11  H   UNL     1      -1.424  -3.148  -0.431  0.00  0.00    +0.210 HD
ENDBRANCH   4  10
BRANCH   6  12
ATOM     12  O   UNL     1      -3.228   0.088  -0.042  0.00  0.00    -0.375 OA
ATOM     13  H   UNL     1      -3.709  -0.744   0.090  0.00  0.00    +0.211 HD
ENDBRANCH   6  12
BRANCH   2  15
ATOM     14  O   UNL     1       3.408   0.017  -0.580  0.00  0.00    -0.248 OA
ATOM     15  C   UNL     1       2.437  -0.062   0.169  0.00  0.00    +0.339 C 
BRANCH  15  16
ATOM     16  O   UNL     1       2.578  -0.265   1.508  0.00  0.00    -0.479 OA
ATOM     17  H   UNL     1       1.820  -0.322   2.056  0.00  0.00    +0.295 HD
ENDBRANCH  15  16
ENDBRANCH   2  15
TORSDOF 5
