REMARK  Name = 448841
REMARK  3 active torsions:
REMARK  status: ('A' for Active; 'I' for Inactive)
REMARK    1  A    between atoms: C_1  and  C_17
REMARK    2  A    between atoms: C_9  and  C_13
REMARK    3  A    between atoms: C_18  and  C_20
REMARK                            x       y       z     vdW  Elec       q    Type
REMARK                         _______ _______ _______ _____ _____    ______ ____
ROOT
ATOM      1  C   UNL     1       0.427  -1.039  -0.331  0.00  0.00    -0.022 C 
ATOM      2  C   UNL     1      -0.186   0.206  -0.194  0.00  0.00    -0.004 C 
ATOM      3  C   UNL     1      -0.347  -2.195  -0.386  0.00  0.00    -0.004 C 
ATOM      4  C   UNL     1      -1.584   0.312  -0.110  0.00  0.00    -0.000 C 
ATOM      5  C   UNL     1      -1.738  -2.108  -0.304  0.00  0.00    -0.000 C 
ATOM      6  C   UNL     1      -2.372  -0.863  -0.166  0.00  0.00    +0.000 C 
ATOM      7  C   UNL     1      -2.218   1.557   0.029  0.00  0.00    +0.000 C 
ATOM      8  C   UNL     1      -3.769  -0.758  -0.082  0.00  0.00    +0.003 C 
ATOM      9  C   UNL     1      -4.383   0.488   0.055  0.00  0.00    +0.031 C 
ATOM     10  C   UNL     1      -3.608   1.643   0.110  0.00  0.00    +0.003 C 
ENDROOT
BRANCH   9  13
ATOM     11  N   UNL     1      -6.473   1.810   0.277  0.00  0.00    -0.343 N 
ATOM     12  N   UNL     1      -6.565  -0.518   0.092  0.00  0.00    -0.285 NA
ATOM     13  C   UNL     1      -5.831   0.580   0.140  0.00  0.00    +0.117 C 
ATOM     14  H   UNL     1      -7.455   1.849   0.333  0.00  0.00    +0.144 HD
ATOM     15  H   UNL     1      -5.944   2.639   0.318  0.00  0.00    +0.144 HD
ATOM     16  H   UNL     1      -7.546  -0.457   0.149  0.00  0.00    +0.188 HD
ENDBRANCH   9  13
BRANCH   1  17
ATOM     17  C   UNL     1       1.911  -1.133  -0.418  0.00  0.00    +0.027 C 
ATOM     18  C   UNL     1       2.747  -0.551   0.679  0.00  0.00    +0.027 C 
ATOM     19  C   UNL     1       2.642  -2.040   0.523  0.00  0.00    +0.009 C 
BRANCH  18  20
ATOM     20  C   UNL     1       4.022   0.128   0.338  0.00  0.00    -0.022 C 
ATOM     21  C   UNL     1       4.014   1.444  -0.134  0.00  0.00    -0.004 C 
ATOM     22  C   UNL     1       5.239  -0.544   0.485  0.00  0.00    -0.004 C 
ATOM     23  C   UNL     1       5.212   2.082  -0.457  0.00  0.00    -0.000 C 
ATOM     24  C   UNL     1       6.437   0.093   0.162  0.00  0.00    -0.000 C 
ATOM     25  C   UNL     1       6.423   1.406  -0.309  0.00  0.00    -0.000 C 
ENDBRANCH  18  20
ENDBRANCH   1  17
TORSDOF 3
