REMARK  Name = 12587
REMARK  4 active torsions:
REMARK  status: ('A' for Active; 'I' for Inactive)
REMARK    1  A    between atoms: C_1  and  C_3
REMARK    2  A    between atoms: C_1  and  C_6
REMARK    3  A    between atoms: C_3  and  O_4
REMARK    4  A    between atoms: C_6  and  C_7
REMARK                            x       y       z     vdW  Elec       q    Type
REMARK                         _______ _______ _______ _____ _____    ______ ____
ROOT
ATOM      1  C   UNL     1       0.418  -0.422  -0.076  0.00  0.00    +0.109 C 
ENDROOT
BRANCH   1   3
ATOM      2  O   UNL     1       2.289   1.117   0.174  0.00  0.00    -0.250 OA
ATOM      3  C   UNL     1       1.874  -0.020  -0.002  0.00  0.00    +0.314 C 
BRANCH   3   4
ATOM      4  O   UNL     1       2.693  -1.092  -0.164  0.00  0.00    -0.480 OA
ATOM      5  H   UNL     1       2.328  -1.945  -0.296  0.00  0.00    +0.295 HD
ENDBRANCH   3   4
ENDBRANCH   1   3
BRANCH   1   6
ATOM      6  C   UNL     1      -0.514   0.782   0.079  0.00  0.00    +0.012 C 
BRANCH   6   7
ATOM      7  C   UNL     1      -2.006   0.404   0.085  0.00  0.00    +0.001 C 
ATOM      8  C   UNL     1      -2.349  -0.603   1.184  0.00  0.00    +0.000 C 
ATOM      9  C   UNL     1      -2.404  -0.165  -1.279  0.00  0.00    +0.000 C 
ENDBRANCH   6   7
ENDBRANCH   1   6
TORSDOF 4
