REMARK  Name = 49867722
REMARK  7 active torsions:
REMARK  status: ('A' for Active; 'I' for Inactive)
REMARK    1  A    between atoms: N_1  and  C_6
REMARK    2  A    between atoms: C_5  and  C_15
REMARK    3  A    between atoms: C_6  and  C_8
REMARK    4  A    between atoms: C_6  and  C_11
REMARK    5  A    between atoms: C_8  and  O_9
REMARK    6  A    between atoms: C_11  and  C_12
REMARK    7  A    between atoms: C_15  and  N_16
REMARK                            x       y       z     vdW  Elec       q    Type
REMARK                         _______ _______ _______ _____ _____    ______ ____
ROOT
ATOM      1  N   UNL     1      -0.300   0.193   0.044  0.00  0.00    -0.154 NA
ATOM      2  N   UNL     1      -0.742   0.311  -1.219  0.00  0.00    -0.063 NA
ATOM      3  N   UNL     1      -1.997  -0.126  -1.240  0.00  0.00    -0.156 NA
ATOM      4  C   UNL     1      -1.257  -0.320   0.864  0.00  0.00    +0.136 C 
ATOM      5  C   UNL     1      -2.327  -0.516   0.028  0.00  0.00    +0.053 C 
ENDROOT
BRANCH   1   6
ATOM      6  C   UNL     1       1.111   0.615   0.416  0.00  0.00    +0.178 C 
BRANCH   6   8
ATOM      7  O   UNL     1       0.451   2.859  -0.283  0.00  0.00    -0.249 OA
ATOM      8  C   UNL     1       1.300   2.107   0.177  0.00  0.00    +0.330 C 
BRANCH   8   9
ATOM      9  O   UNL     1       2.548   2.527   0.514  0.00  0.00    -0.479 OA
ATOM     10  H   UNL     1       3.169   1.918   0.864  0.00  0.00    +0.295 HD
ENDBRANCH   8   9
ENDBRANCH   6   8
BRANCH   6  11
ATOM     11  C   UNL     1       2.155  -0.231  -0.348  0.00  0.00    +0.029 C 
BRANCH  11  12
ATOM     12  C   UNL     1       2.059  -1.755  -0.109  0.00  0.00    +0.002 C 
ATOM     13  C   UNL     1       3.110  -2.475  -0.960  0.00  0.00    +0.000 C 
ATOM     14  C   UNL     1       2.247  -2.132   1.361  0.00  0.00    +0.000 C 
ENDBRANCH  11  12
ENDBRANCH   6  11
ENDBRANCH   1   6
BRANCH   5  15
ATOM     15  C   UNL     1      -3.660  -1.050   0.338  0.00  0.00    -0.040 C 
BRANCH  15  16
ATOM     16  N   UNL     1      -4.698  -0.009   0.416  0.00  0.00    +0.384 N 
ATOM     17  H   UNL     1      -5.597  -0.440   0.633  0.00  0.00    -0.089 HD
ATOM     18  H   UNL     1      -4.762   0.477  -0.479  0.00  0.00    -0.089 HD
ATOM     19  H   UNL     1      -4.456   0.659   1.148  0.00  0.00    -0.089 HD
ENDBRANCH  15  16
ENDBRANCH   5  15
TORSDOF 7
