REMARK  Name = 441480
REMARK  4 active torsions:
REMARK  status: ('A' for Active; 'I' for Inactive)
REMARK    1  A    between atoms: C_2  and  O_8
REMARK    2  A    between atoms: C_3  and  O_10
REMARK    3  A    between atoms: C_4  and  O_12
REMARK    4  A    between atoms: C_6  and  O_14
REMARK                            x       y       z     vdW  Elec       q    Type
REMARK                         _______ _______ _______ _____ _____    ______ ____
ROOT
ATOM      1  O   UNL     1      -0.564  -1.486  -0.598  0.00  0.00    -0.329 OA
ATOM      2  C   UNL     1       0.538   1.064   0.189  0.00  0.00    +0.171 C 
ATOM      3  C   UNL     1      -0.948   0.880  -0.125  0.00  0.00    +0.167 C 
ATOM      4  C   UNL     1       1.370  -0.016  -0.498  0.00  0.00    +0.196 C 
ATOM      5  C   UNL     1      -1.393  -0.568   0.123  0.00  0.00    +0.147 C 
ATOM      6  C   UNL     1       0.815  -1.415  -0.227  0.00  0.00    +0.262 C 
ATOM      7  C   UNL     1      -2.829  -0.812  -0.332  0.00  0.00    +0.035 C 
ENDROOT
BRANCH   2   8
ATOM      8  O   UNL     1       0.944   2.346  -0.296  0.00  0.00    -0.379 OA
ATOM      9  H   UNL     1       0.418   3.037   0.137  0.00  0.00    +0.211 HD
ENDBRANCH   2   8
BRANCH   3  10
ATOM     10  O   UNL     1      -1.688   1.774   0.703  0.00  0.00    -0.379 OA
ATOM     11  H   UNL     1      -1.398   2.685   0.536  0.00  0.00    +0.211 HD
ENDBRANCH   3  10
BRANCH   4  12
ATOM     12  O   UNL     1       2.719   0.074  -0.055  0.00  0.00    -0.378 OA
ATOM     13  H   UNL     1       3.059   0.965  -0.232  0.00  0.00    +0.211 HD
ENDBRANCH   4  12
BRANCH   6  14
ATOM     14  O   UNL     1       1.035  -1.841   1.117  0.00  0.00    -0.358 OA
ATOM     15  H   UNL     1       0.667  -2.730   1.239  0.00  0.00    +0.213 HD
ENDBRANCH   6  14
TORSDOF 4
