REMARK  Name = 46936680
REMARK  10 active torsions:
REMARK  status: ('A' for Active; 'I' for Inactive)
REMARK    1  A    between atoms: C_3  and  CA_12
REMARK    2  A    between atoms: C_4  and  C_25
REMARK    3  A    between atoms: CA_6  and  C_9
REMARK    4  A    between atoms: C_9  and  O_10
REMARK    5  A    between atoms: CA_12  and  N_14
REMARK    6  A    between atoms: CA_12  and  C_24
REMARK    7  A    between atoms: C_15  and  C_17
REMARK    8  A    between atoms: C_17  and  C_19
REMARK    9  A    between atoms: C_25  and  C_27
REMARK   10  A    between atoms: C_27  and  O_28
REMARK                            x       y       z     vdW  Elec       q    Type
REMARK                         _______ _______ _______ _____ _____    ______ ____
ROOT
ATOM      1  S   UNL     1      -0.592  -0.658  -2.104  0.00  0.00    -0.115 S 
ATOM      2  N   UNL     1      -0.327  -1.776   0.337  0.00  0.00    -0.319 N 
ATOM      3  C   UNL     1      -1.162  -1.844  -0.846  0.00  0.00    +0.144 C 
ATOM      4  C   UNL     1       1.783  -1.309  -0.756  0.00  0.00    -0.003 C 
ATOM      5  C   UNL     1       1.158  -1.139  -2.130  0.00  0.00    +0.083 C 
ATOM      6  CA  UNL     1       1.039  -1.583   0.339  0.00  0.00    +0.115 C 
ATOM      7  H   UNL     1      -0.771  -1.875   1.210  0.00  0.00    +0.148 HD
ENDROOT
BRANCH   6   9
ATOM      8  OXT UNL     1       2.654  -1.065   2.005  0.00  0.00    -0.244 OA
ATOM      9  C   UNL     1       1.664  -1.681   1.670  0.00  0.00    +0.351 C 
BRANCH   9  10
ATOM     10  O   UNL     1       0.965  -2.549   2.426  0.00  0.00    -0.476 OA
ATOM     11  H   UNL     1       0.210  -2.976   2.072  0.00  0.00    +0.295 HD
ENDBRANCH   9  10
ENDBRANCH   6   9
BRANCH   3  12
ATOM     12  CA  UNL     1      -2.606  -1.532  -0.476  0.00  0.00    +0.165 C 
BRANCH  12  14
ATOM     13  O   UNL     1      -4.218   0.648  -1.441  0.00  0.00    -0.275 OA
ATOM     14  N   UNL     1      -2.722  -0.225   0.106  0.00  0.00    -0.297 N 
ATOM     15  C   UNL     1      -3.530   0.774  -0.431  0.00  0.00    +0.228 C 
ATOM     16  H   UNL     1      -2.208  -0.025   0.921  0.00  0.00    +0.150 HD
BRANCH  15  17
ATOM     17  C   UNL     1      -3.469   2.050   0.387  0.00  0.00    +0.118 C 
BRANCH  17  19
ATOM     18  S   UNL     1      -1.334   2.908   1.949  0.00  0.00    -0.090 S 
ATOM     19  C   UNL     1      -2.094   2.662   0.434  0.00  0.00    +0.016 C 
ATOM     20  C   UNL     1      -1.305   3.081  -0.614  0.00  0.00    +0.003 C 
ATOM     21  C   UNL     1      -0.060   3.611  -0.168  0.00  0.00    +0.007 C 
ATOM     22  C   UNL     1       0.055   3.577   1.204  0.00  0.00    +0.035 C 
ENDBRANCH  17  19
ENDBRANCH  15  17
ENDBRANCH  12  14
BRANCH  12  24
ATOM     23  O   UNL     1      -3.271  -3.722   0.294  0.00  0.00    -0.286 OA
ATOM     24  C   UNL     1      -3.152  -2.521   0.524  0.00  0.00    +0.229 C 
ENDBRANCH  12  24
ENDBRANCH   3  12
BRANCH   4  25
ATOM     25  C   UNL     1       3.285  -1.166  -0.786  0.00  0.00    +0.134 C 
BRANCH  25  27
ATOM     26  O   UNL     1       2.922   1.203  -0.333  0.00  0.00    -0.250 OA
ATOM     27  C   UNL     1       3.680   0.266  -0.543  0.00  0.00    +0.321 C 
BRANCH  27  28
ATOM     28  O   UNL     1       5.043   0.343  -0.617  0.00  0.00    -0.444 OA
ATOM     29  C   UNL     1       5.598   1.648  -0.428  0.00  0.00    +0.256 C 
ENDBRANCH  27  28
ENDBRANCH  25  27
ENDBRANCH   4  25
TORSDOF 10
