REMARK  Name = 69672
REMARK  0 active torsions:
REMARK  status: ('A' for Active; 'I' for Inactive)
REMARK                            x       y       z     vdW  Elec       q    Type
REMARK                         _______ _______ _______ _____ _____    ______ ____
ROOT
ATOM      1  I   UNL     1      -3.151   0.784  -0.001  0.00  0.00    -0.036 I 
ATOM      2  O   UNL     1      -1.347  -1.914   0.001  0.00  0.00    -0.269 OA
ATOM      3  O   UNL     1       2.909  -0.146  -0.001  0.00  0.00    -0.252 OA
ATOM      4  N   UNL     1       0.780  -1.035   0.000  0.00  0.00    -0.235 N 
ATOM      5  N   UNL     1       1.104   1.279   0.001  0.00  0.00    -0.266 N 
ATOM      6  C   UNL     1      -0.607  -0.934   0.000  0.00  0.00    +0.259 C 
ATOM      7  C   UNL     1       1.690   0.024   0.000  0.00  0.00    +0.310 C 
ATOM      8  C   UNL     1      -1.129   0.466   0.000  0.00  0.00    +0.098 C 
ATOM      9  C   UNL     1      -0.250   1.476   0.000  0.00  0.00    +0.076 C 
ATOM     10  H   UNL     1       1.159  -1.944   0.000  0.00  0.00    +0.159 HD
ATOM     11  H   UNL     1       1.691   2.070   0.001  0.00  0.00    +0.156 HD
ENDROOT
TORSDOF 0
