REMARK  Name = 446948
REMARK  3 active torsions:
REMARK  status: ('A' for Active; 'I' for Inactive)
REMARK    1  A    between atoms: C_1  and  C_9
REMARK    2  A    between atoms: C_2  and  O_15
REMARK    3  A    between atoms: C_4  and  O_17
REMARK                            x       y       z     vdW  Elec       q    Type
REMARK                         _______ _______ _______ _____ _____    ______ ____
ROOT
ATOM      1  C   UNL     1      -0.488  -0.001  -0.358  0.00  0.00    +0.038 C 
ATOM      2  C   UNL     1      -1.364   0.000   0.728  0.00  0.00    +0.167 C 
ATOM      3  C   UNL     1      -0.991  -0.002  -1.659  0.00  0.00    +0.003 C 
ATOM      4  C   UNL     1      -2.742   0.000   0.513  0.00  0.00    +0.167 C 
ATOM      5  C   UNL     1      -2.369  -0.002  -1.874  0.00  0.00    +0.003 C 
ATOM      6  C   UNL     1      -3.245  -0.001  -0.788  0.00  0.00    +0.040 C 
ENDROOT
BRANCH   1   9
ATOM      7 CL   UNL     1       0.846   2.740  -0.174  0.00  0.00    -0.082 Cl
ATOM      8 CL   UNL     1       0.848  -2.741  -0.171  0.00  0.00    -0.082 Cl
ATOM      9  C   UNL     1       0.947   0.000  -0.158  0.00  0.00    +0.024 C 
ATOM     10  C   UNL     1       1.643   1.208  -0.061  0.00  0.00    +0.059 C 
ATOM     11  C   UNL     1       1.644  -1.208  -0.060  0.00  0.00    +0.059 C 
ATOM     12  C   UNL     1       3.025   1.208   0.131  0.00  0.00    +0.011 C 
ATOM     13  C   UNL     1       3.026  -1.207   0.132  0.00  0.00    +0.011 C 
ATOM     14  C   UNL     1       3.716   0.001   0.228  0.00  0.00    +0.002 C 
ENDBRANCH   1   9
BRANCH   2  15
ATOM     15  O   UNL     1      -0.886   0.001   2.007  0.00  0.00    -0.503 OA
ATOM     16  H   UNL     1       0.038   0.001   2.162  0.00  0.00    +0.292 HD
ENDBRANCH   2  15
BRANCH   4  17
ATOM     17  O   UNL     1      -3.609   0.001   1.564  0.00  0.00    -0.503 OA
ATOM     18  H   UNL     1      -3.281   0.002   2.442  0.00  0.00    +0.292 HD
ENDBRANCH   4  17
TORSDOF 3
