REMARK  Name = 100016
REMARK  5 active torsions:
REMARK  status: ('A' for Active; 'I' for Inactive)
REMARK    1  A    between atoms: C2*_2  and  O2*_13
REMARK    2  A    between atoms: C3*_3  and  O3*_15
REMARK    3  A    between atoms: C1*_4  and  N_7
REMARK    4  A    between atoms: C4*_5  and  C5*_17
REMARK    5  A    between atoms: C5*_17  and  O5*_18
REMARK                            x       y       z     vdW  Elec       q    Type
REMARK                         _______ _______ _______ _____ _____    ______ ____
ROOT
ATOM      1  O4* UNL     1      -1.112  -0.490   1.016  0.00  0.00    -0.332 OA
ATOM      2  C2* UNL     1      -0.979   1.058  -0.773  0.00  0.00    +0.187 C 
ATOM      3  C3* UNL     1      -2.438   0.833  -0.434  0.00  0.00    +0.171 C 
ATOM      4  C1* UNL     1      -0.283   0.553   0.479  0.00  0.00    +0.232 C 
ATOM      5  C4* UNL     1      -2.387  -0.478   0.338  0.00  0.00    +0.175 C 
ENDROOT
BRANCH   4   7
ATOM      6  O   UNL     1       2.134   1.993   0.664  0.00  0.00    -0.206 OA
ATOM      7  N   UNL     1       1.020   0.019   0.205  0.00  0.00    -0.206 N 
ATOM      8  N   UNL     1       3.423   0.228   0.039  0.00  0.00    -0.162 NA
ATOM      9  C   UNL     1       1.126  -1.312  -0.185  0.00  0.00    +0.133 C 
ATOM     10  C   UNL     1       2.197   0.811   0.320  0.00  0.00    +0.218 C 
ATOM     11  C   UNL     1       2.292  -1.894  -0.461  0.00  0.00    +0.018 C 
ATOM     12  C   UNL     1       3.457  -1.013  -0.319  0.00  0.00    +0.109 C 
ENDBRANCH   4   7
BRANCH   2  13
ATOM     13  O2* UNL     1      -0.694   2.415  -1.044  0.00  0.00    -0.378 OA
ATOM     14  H2* UNL     1      -1.160   2.688  -1.850  0.00  0.00    +0.211 HD
ENDBRANCH   2  13
BRANCH   3  15
ATOM     15  O3* UNL     1      -2.901   1.850   0.455  0.00  0.00    -0.379 OA
ATOM     16  H3* UNL     1      -2.941   2.697  -0.015  0.00  0.00    +0.211 HD
ENDBRANCH   3  15
BRANCH   5  17
ATOM     17  C5* UNL     1      -2.460  -1.707  -0.558  0.00  0.00    +0.169 C 
BRANCH  17  18
ATOM     18  O5* UNL     1      -2.395  -2.865   0.256  0.00  0.00    -0.379 OA
ATOM     19  H5* UNL     1      -2.441  -3.656  -0.304  0.00  0.00    +0.211 HD
ENDBRANCH  17  18
ENDBRANCH   5  17
TORSDOF 5
