REMARK  Name = 92824
REMARK  6 active torsions:
REMARK  status: ('A' for Active; 'I' for Inactive)
REMARK    1  A    between atoms: C_1  and  O_2
REMARK    2  A    between atoms: C_1  and  C_5
REMARK    3  A    between atoms: C_1  and  C_8
REMARK    4  A    between atoms: C_5  and  O_6
REMARK    5  A    between atoms: C_8  and  C_10
REMARK    6  A    between atoms: C_10  and  O_11
REMARK                            x       y       z     vdW  Elec       q    Type
REMARK                         _______ _______ _______ _____ _____    ______ ____
ROOT
ATOM      1  C   UNL     1       0.502   0.312  -0.367  0.00  0.00    +0.221 C 
ENDROOT
BRANCH   1   2
ATOM      2  O   UNL     1       0.337   1.613   0.184  0.00  0.00    -0.374 OA
ATOM      3  H   UNL     1      -0.556   1.936  -0.013  0.00  0.00    +0.211 HD
ENDBRANCH   1   2
BRANCH   1   5
ATOM      4  O   UNL     1       2.713   0.459   0.634  0.00  0.00    -0.248 OA
ATOM      5  C   UNL     1       1.904  -0.163  -0.042  0.00  0.00    +0.342 C 
BRANCH   5   6
ATOM      6  O   UNL     1       2.168  -1.384  -0.574  0.00  0.00    -0.479 OA
ATOM      7  H   UNL     1       1.517  -1.823  -1.085  0.00  0.00    +0.295 HD
ENDBRANCH   5   6
ENDBRANCH   1   5
BRANCH   1   8
ATOM      8  C   UNL     1      -0.547  -0.609   0.254  0.00  0.00    +0.150 C 
BRANCH   8  10
ATOM      9  O   UNL     1      -2.272   0.860  -0.658  0.00  0.00    -0.250 OA
ATOM     10  C   UNL     1      -1.954  -0.126  -0.009  0.00  0.00    +0.317 C 
BRANCH  10  11
ATOM     11  O   UNL     1      -2.850  -0.961   0.578  0.00  0.00    -0.480 OA
ATOM     12  H   UNL     1      -2.549  -1.703   1.064  0.00  0.00    +0.295 HD
ENDBRANCH  10  11
ENDBRANCH   8  10
ENDBRANCH   1   8
TORSDOF 6
