REMARK  Name = 8758
REMARK  9 active torsions:
REMARK  status: ('A' for Active; 'I' for Inactive)
REMARK    1  A    between atoms: N_1  and  C_3
REMARK    2  A    between atoms: N_1  and  C_8
REMARK    3  A    between atoms: N_1  and  C_13
REMARK    4  A    between atoms: C_3  and  C_5
REMARK    5  A    between atoms: C_5  and  O_6
REMARK    6  A    between atoms: C_8  and  C_10
REMARK    7  A    between atoms: C_10  and  O_11
REMARK    8  A    between atoms: C_13  and  C_15
REMARK    9  A    between atoms: C_15  and  O_16
REMARK                            x       y       z     vdW  Elec       q    Type
REMARK                         _______ _______ _______ _____ _____    ______ ____
ROOT
ATOM      1  N   UNL     1      -0.007   0.006   0.011  0.00  0.00    +0.409 N 
ATOM      2  H   UNL     1      -0.018  -0.007   1.031  0.00  0.00    -0.077 HD
ENDROOT
BRANCH   1   3
ATOM      3  C   UNL     1      -1.321  -0.419  -0.471  0.00  0.00    +0.036 C 
BRANCH   3   5
ATOM      4  O   UNL     1      -2.563   0.683   1.276  0.00  0.00    -0.253 OA
ATOM      5  C   UNL     1      -2.361   0.516   0.080  0.00  0.00    +0.293 C 
BRANCH   5   6
ATOM      6  O   UNL     1      -3.087   1.131  -0.889  0.00  0.00    -0.482 OA
ATOM      7  H   UNL     1      -2.894   0.970  -1.792  0.00  0.00    +0.295 HD
ENDBRANCH   5   6
ENDBRANCH   3   5
ENDBRANCH   1   3
BRANCH   1   8
ATOM      8  C   UNL     1       0.282   1.370  -0.431  0.00  0.00    +0.036 C 
BRANCH   8  10
ATOM      9  O   UNL     1       1.929   1.808   1.274  0.00  0.00    -0.253 OA
ATOM     10  C   UNL     1       1.638   1.765   0.085  0.00  0.00    +0.293 C 
BRANCH  10  11
ATOM     11  O   UNL     1       2.501   2.111  -0.904  0.00  0.00    -0.482 OA
ATOM     12  H   UNL     1       2.231   2.061  -1.800  0.00  0.00    +0.295 HD
ENDBRANCH  10  11
ENDBRANCH   8  10
ENDBRANCH   1   8
BRANCH   1  13
ATOM     13  C   UNL     1       1.030  -0.913  -0.455  0.00  0.00    +0.036 C 
BRANCH  13  15
ATOM     14  O   UNL     1       0.651  -2.560   1.264  0.00  0.00    -0.253 OA
ATOM     15  C   UNL     1       0.726  -2.288   0.072  0.00  0.00    +0.293 C 
BRANCH  15  16
ATOM     16  O   UNL     1       0.583  -3.212  -0.911  0.00  0.00    -0.482 OA
ATOM     17  H   UNL     1       0.649  -2.954  -1.810  0.00  0.00    +0.295 HD
ENDBRANCH  15  16
ENDBRANCH  13  15
ENDBRANCH   1  13
TORSDOF 9
