REMARK  Name = 6994316
REMARK  5 active torsions:
REMARK  status: ('A' for Active; 'I' for Inactive)
REMARK    1  A    between atoms: CA_1  and  N_2
REMARK    2  A    between atoms: CA_1  and  C_8
REMARK    3  A    between atoms: CA_1  and  C_9
REMARK    4  A    between atoms: C_9  and  C_10
REMARK    5  A    between atoms: C_10  and  S_11
REMARK                            x       y       z     vdW  Elec       q    Type
REMARK                         _______ _______ _______ _____ _____    ______ ____
ROOT
ATOM      1  CA  UNL     1      -1.689  -0.671   0.522  0.00  0.00    +0.042 C 
ENDROOT
BRANCH   1   2
ATOM      2  N   UNL     1      -1.905  -1.886  -0.325  0.00  0.00    +0.389 N 
ATOM      3  H1  UNL     1      -1.422  -2.681   0.092  0.00  0.00    -0.088 HD
ATOM      4  H2  UNL     1      -1.536  -1.717  -1.261  0.00  0.00    -0.088 HD
ATOM      5  H3  UNL     1      -2.903  -2.086  -0.384  0.00  0.00    -0.088 HD
ENDBRANCH   1   2
BRANCH   1   8
ATOM      6  O   UNL     1      -3.390   0.385  -0.747  0.00  0.00    -0.248 OA
ATOM      7  OXT UNL     1      -1.875   1.694   0.345  0.00  0.00    -0.248 OA
ATOM      8  C   UNL     1      -2.378   0.594  -0.018  0.00  0.00    +0.345 C 
ENDBRANCH   1   8
BRANCH   1   9
ATOM      9  C   UNL     1      -0.189  -0.529   0.805  0.00  0.00    +0.014 C 
BRANCH   9  10
ATOM     10  C   UNL     1       0.639  -0.102  -0.403  0.00  0.00    +0.149 C 
BRANCH  10  11
ATOM     11  S   UNL     1       2.346   0.063   0.022  0.00  0.00    -0.008 S 
ATOM     12  O   UNL     1       2.483   1.202   0.914  0.00  0.00    -0.173 OA
ATOM     13  O   UNL     1       2.846  -1.245   0.409  0.00  0.00    -0.173 OA
ATOM     14  C   UNL     1       3.112   0.496  -1.523  0.00  0.00    +0.176 C 
ENDBRANCH  10  11
ENDBRANCH   9  10
ENDBRANCH   1   9
TORSDOF 5
