REMARK  Name = 69590
REMARK  1 active torsions:
REMARK  status: ('A' for Active; 'I' for Inactive)
REMARK    1  A    between atoms: C_3  and  C_8
REMARK                            x       y       z     vdW  Elec       q    Type
REMARK                         _______ _______ _______ _____ _____    ______ ____
ROOT
ATOM      1  N   UNL     1       1.773  -1.021   0.367  0.00  0.00    -0.315 N 
ATOM      2  N   UNL     1       3.198   0.583  -0.207  0.00  0.00    -0.314 N 
ATOM      3  C   UNL     1       1.009   0.043  -0.014  0.00  0.00    +0.060 C 
ATOM      4  C   UNL     1       1.907   1.020  -0.364  0.00  0.00    +0.074 C 
ATOM      5  C   UNL     1       3.082  -0.650   0.235  0.00  0.00    +0.182 C 
ATOM      6  H   UNL     1       1.443  -1.894   0.680  0.00  0.00    +0.148 HD
ATOM      7  H   UNL     1       4.028   1.081  -0.386  0.00  0.00    +0.148 HD
ENDROOT
BRANCH   3   8
ATOM      8  C   UNL     1      -0.434   0.024  -0.009  0.00  0.00    +0.014 C 
ATOM      9  C   UNL     1      -1.147   1.203   0.209  0.00  0.00    +0.001 C 
ATOM     10  C   UNL     1      -1.115  -1.175  -0.221  0.00  0.00    +0.001 C 
ATOM     11  C   UNL     1      -2.542   1.183   0.215  0.00  0.00    +0.000 C 
ATOM     12  C   UNL     1      -2.510  -1.194  -0.215  0.00  0.00    +0.000 C 
ATOM     13  C   UNL     1      -3.223  -0.015   0.003  0.00  0.00    +0.000 C 
ENDBRANCH   3   8
TORSDOF 1
