REMARK  Name = 446658
REMARK  6 active torsions:
REMARK  status: ('A' for Active; 'I' for Inactive)
REMARK    1  A    between atoms: N_5  and  C_9
REMARK    2  A    between atoms: C_6  and  C_16
REMARK    3  A    between atoms: C_17  and  O_20
REMARK    4  A    between atoms: C_18  and  O_22
REMARK    5  A    between atoms: C_19  and  C_24
REMARK    6  A    between atoms: C_24  and  O_25
REMARK                            x       y       z     vdW  Elec       q    Type
REMARK                         _______ _______ _______ _____ _____    ______ ____
ROOT
ATOM      1  N   UNL     1       0.508   2.226   0.556  0.00  0.00    -0.251 N 
ATOM      2  N   UNL     1       1.849   2.198   0.427  0.00  0.00    -0.185 NA
ATOM      3  N   UNL     1       0.841  -1.174  -0.074  0.00  0.00    -0.254 NA
ATOM      4  N   UNL     1       3.259  -1.004  -0.270  0.00  0.00    -0.234 NA
ATOM      5  C   UNL     1      -0.098   1.018   0.400  0.00  0.00    +0.157 C 
ATOM      6  C   UNL     1       0.924   0.153   0.152  0.00  0.00    +0.095 C 
ATOM      7  C   UNL     1       2.146   0.910   0.172  0.00  0.00    +0.120 C 
ATOM      8  C   UNL     1       3.390   0.314  -0.049  0.00  0.00    +0.158 C 
ATOM      9  C   UNL     1       2.087  -1.672  -0.278  0.00  0.00    +0.202 C 
ATOM     10  C   UNL     1       4.469  -1.794  -0.521  0.00  0.00    +0.093 C 
ATOM     11  H   UNL     1       0.008   3.052   0.748  0.00  0.00    +0.169 HD
ENDROOT
BRANCH   5  13
ATOM     12  O   UNL     1      -1.875  -0.463   1.053  0.00  0.00    -0.349 OA
ATOM     13  C   UNL     1      -1.593   0.842   0.508  0.00  0.00    +0.169 C 
ATOM     14  C   UNL     1      -2.314   0.901  -0.831  0.00  0.00    +0.169 C 
ATOM     15  C   UNL     1      -3.542   0.051  -0.568  0.00  0.00    +0.169 C 
ATOM     16  C   UNL     1      -2.996  -1.041   0.346  0.00  0.00    +0.174 C 
BRANCH  14  17
ATOM     17  O   UNL     1      -2.631   2.228  -1.200  0.00  0.00    -0.379 OA
ATOM     18  H   UNL     1      -1.813   2.725  -1.355  0.00  0.00    +0.211 HD
ENDBRANCH  14  17
BRANCH  15  19
ATOM     19  O   UNL     1      -4.537   0.798   0.132  0.00  0.00    -0.379 OA
ATOM     20  H   UNL     1      -4.886   1.494  -0.447  0.00  0.00    +0.211 HD
ENDBRANCH  15  19
BRANCH  16  21
ATOM     21  C   UNL     1      -2.501  -2.261  -0.419  0.00  0.00    +0.169 C 
BRANCH  21  22
ATOM     22  O   UNL     1      -2.006  -3.209   0.510  0.00  0.00    -0.379 OA
ATOM     23  H   UNL     1      -1.688  -3.992   0.035  0.00  0.00    +0.211 HD
ENDBRANCH  21  22
ENDBRANCH  16  21
ENDBRANCH   5  13
BRANCH   8  24
ATOM     24  N   UNL     1       4.622   0.978  -0.048  0.00  0.00    -0.305 NA
ATOM     25  H   UNL     1       5.452   0.476  -0.214  0.00  0.00    +0.120 HD
ATOM     26  H   UNL     1       4.658   1.948   0.119  0.00  0.00    +0.120 HD
ENDBRANCH   8  24
TORSDOF 6
