REMARK  Name = 439509
REMARK  4 active torsions:
REMARK  status: ('A' for Active; 'I' for Inactive)
REMARK    1  A    between atoms: C_2  and  O_7
REMARK    2  A    between atoms: C_3  and  O_9
REMARK    3  A    between atoms: C_4  and  O_11
REMARK    4  A    between atoms: C_5  and  O_13
REMARK                            x       y       z     vdW  Elec       q    Type
REMARK                         _______ _______ _______ _____ _____    ______ ____
ROOT
ATOM      1  O   UNL     1       0.689  -1.640   0.265  0.00  0.00    -0.326 OA
ATOM      2  C   UNL     1      -0.749   0.811  -0.181  0.00  0.00    +0.172 C 
ATOM      3  C   UNL     1       0.737   0.787   0.178  0.00  0.00    +0.196 C 
ATOM      4  C   UNL     1      -1.439  -0.479   0.259  0.00  0.00    +0.169 C 
ATOM      5  C   UNL     1       1.400  -0.520  -0.260  0.00  0.00    +0.262 C 
ATOM      6  C   UNL     1      -0.652  -1.695  -0.209  0.00  0.00    +0.176 C 
ENDROOT
BRANCH   2   7
ATOM      7  O   UNL     1      -1.349   1.923   0.484  0.00  0.00    -0.379 OA
ATOM      8  H   UNL     1      -0.911   2.742   0.204  0.00  0.00    +0.211 HD
ENDBRANCH   2   7
BRANCH   3   9
ATOM      9  O   UNL     1       1.374   1.884  -0.475  0.00  0.00    -0.378 OA
ATOM     10  H   UNL     1       0.955   2.714  -0.199  0.00  0.00    +0.211 HD
ENDBRANCH   3   9
BRANCH   4  11
ATOM     11  O   UNL     1      -2.748  -0.552  -0.296  0.00  0.00    -0.379 OA
ATOM     12  H   UNL     1      -3.264   0.217  -0.008  0.00  0.00    +0.211 HD
ENDBRANCH   4  11
BRANCH   5  13
ATOM     13  O   UNL     1       2.738  -0.519   0.236  0.00  0.00    -0.358 OA
ATOM     14  H   UNL     1       3.181  -1.340  -0.030  0.00  0.00    +0.213 HD
ENDBRANCH   5  13
TORSDOF 4
