REMARK  Name = 5288237
REMARK  7 active torsions:
REMARK  status: ('A' for Active; 'I' for Inactive)
REMARK    1  A    between atoms: O_1  and  P_2
REMARK    2  A    between atoms: O_1  and  C_8
REMARK    3  A    between atoms: P_2  and  O_4
REMARK    4  A    between atoms: P_2  and  O_6
REMARK    5  A    between atoms: C_8  and  C_10
REMARK    6  A    between atoms: C_8  and  C_12
REMARK    7  A    between atoms: C_12  and  O_13
REMARK                            x       y       z     vdW  Elec       q    Type
REMARK                         _______ _______ _______ _____ _____    ______ ____
ROOT
ATOM      1  O   UNL     1      -0.358  -0.896   0.013  0.00  0.00    -0.261 OA
ENDROOT
BRANCH   1   2
ATOM      2  P   UNL     1      -1.715  -0.018  -0.045  0.00  0.00    +0.474 P 
ATOM      3  O   UNL     1      -1.589   1.299  -0.753  0.00  0.00    -0.227 OA
BRANCH   2   4
ATOM      4  O   UNL     1      -2.184   0.069   1.500  0.00  0.00    -0.303 OA
ATOM      5  H   UNL     1      -2.237  -0.825   1.872  0.00  0.00    +0.222 HD
ENDBRANCH   2   4
BRANCH   2   6
ATOM      6  O   UNL     1      -2.778  -1.046  -0.700  0.00  0.00    -0.303 OA
ATOM      7  H   UNL     1      -2.795  -1.866  -0.183  0.00  0.00    +0.222 HD
ENDBRANCH   2   6
ENDBRANCH   1   2
BRANCH   1   8
ATOM      8  C   UNL     1       0.779  -0.339   0.657  0.00  0.00    +0.259 C 
BRANCH   8  10
ATOM      9  F   UNL     1       2.127  -1.661  -0.721  0.00  0.00    -0.231 F 
ATOM     10  C   UNL     1       1.901  -1.358   0.588  0.00  0.00    +0.235 C 
ENDBRANCH   8  10
BRANCH   8  12
ATOM     11  O   UNL     1       1.004   1.137  -1.260  0.00  0.00    -0.247 OA
ATOM     12  C   UNL     1       1.152   0.940  -0.061  0.00  0.00    +0.345 C 
BRANCH  12  13
ATOM     13  O   UNL     1       1.661   1.874   0.783  0.00  0.00    -0.478 OA
ATOM     14  H   UNL     1       1.756   1.679   1.695  0.00  0.00    +0.295 HD
ENDBRANCH  12  13
ENDBRANCH   8  12
ENDBRANCH   1   8
TORSDOF 7
