REMARK  Name = 108714
REMARK  0 active torsions:
REMARK  status: ('A' for Active; 'I' for Inactive)
REMARK                            x       y       z     vdW  Elec       q    Type
REMARK                         _______ _______ _______ _____ _____    ______ ____
ROOT
ATOM      1  O   UNL     1       3.519   0.469   0.001  0.00  0.00    -0.246 OA
ATOM      2  O   UNL     1      -1.345   2.654  -0.001  0.00  0.00    -0.265 OA
ATOM      3  O   UNL     1      -3.168  -1.625   0.000  0.00  0.00    -0.247 OA
ATOM      4  N   UNL     1       1.542  -0.880   0.000  0.00  0.00    -0.264 N 
ATOM      5  N   UNL     1       1.317   1.365   0.000  0.00  0.00    -0.300 N 
ATOM      6  N   UNL     1      -0.871  -1.384   0.000  0.00  0.00    -0.292 N 
ATOM      7  N   UNL     1      -2.275   0.516   0.001  0.00  0.00    -0.273 N 
ATOM      8  C   UNL     1       0.205  -0.552   0.000  0.00  0.00    +0.149 A 
ATOM      9  C   UNL     1       0.086   0.777   0.000  0.00  0.00    +0.150 A 
ATOM     10  C   UNL     1       2.305   0.332   0.000  0.00  0.00    +0.330 A 
ATOM     11  C   UNL     1      -1.220   1.435   0.000  0.00  0.00    +0.280 A 
ATOM     12  C   UNL     1       2.082  -2.216  -0.001  0.00  0.00    +0.137 C 
ATOM     13  C   UNL     1      -2.178  -0.892   0.000  0.00  0.00    +0.328 A 
ATOM     14  H   UNL     1       1.494   2.333   0.000  0.00  0.00    +0.171 HD
ATOM     15  H   UNL     1      -0.725  -2.358  -0.001  0.00  0.00    +0.172 HD
ATOM     16  H   UNL     1      -3.185   0.892   0.001  0.00  0.00    +0.173 HD
ENDROOT
TORSDOF 0
