REMARK  Name = 446286
REMARK  4 active torsions:
REMARK  status: ('A' for Active; 'I' for Inactive)
REMARK    1  A    between atoms: C_9  and  C_17
REMARK    2  A    between atoms: C_11  and  C_22
REMARK    3  A    between atoms: C_25  and  O_28
REMARK    4  A    between atoms: C_27  and  O_30
REMARK                            x       y       z     vdW  Elec       q    Type
REMARK                         _______ _______ _______ _____ _____    ______ ____
ROOT
ATOM      1  O   UNL     1      -1.531   1.765   1.155  0.00  0.00    -0.270 OA
ATOM      2  N   UNL     1      -1.065  -0.246   0.005  0.00  0.00    -0.255 N 
ATOM      3  C   UNL     1      -0.835  -2.703  -0.271  0.00  0.00    +0.027 C 
ATOM      4  C   UNL     1       0.581  -2.555  -0.793  0.00  0.00    +0.029 C 
ATOM      5  C   UNL     1      -1.633  -1.458  -0.617  0.00  0.00    +0.099 C 
ATOM      6  C   UNL     1       1.178  -1.232  -0.390  0.00  0.00    -0.008 C 
ATOM      7  C   UNL     1       0.378  -0.129  -0.012  0.00  0.00    +0.050 C 
ATOM      8  C   UNL     1       2.579  -1.110  -0.435  0.00  0.00    -0.002 C 
ATOM      9  C   UNL     1       3.200   0.088  -0.102  0.00  0.00    +0.016 C 
ATOM     10  C   UNL     1       1.032   1.076   0.300  0.00  0.00    +0.015 C 
ATOM     11  C   UNL     1      -1.891   0.724   0.609  0.00  0.00    +0.253 C 
ATOM     12  C   UNL     1       2.426   1.181   0.262  0.00  0.00    +0.003 C 
ENDROOT
BRANCH   9  17
ATOM     13  S   UNL     1       6.901  -0.575   1.220  0.00  0.00    -0.051 S 
ATOM     14  O   UNL     1       8.694   1.049   0.284  0.00  0.00    -0.261 OA
ATOM     15  N   UNL     1       5.216   1.347  -0.415  0.00  0.00    -0.182 NA
ATOM     16  N   UNL     1       6.557   1.523  -0.394  0.00  0.00    -0.198 N 
ATOM     17  C   UNL     1       4.695   0.195  -0.119  0.00  0.00    +0.086 C 
ATOM     18  C   UNL     1       5.515  -1.049   0.165  0.00  0.00    +0.098 C 
ATOM     19  C   UNL     1       6.000  -1.710  -1.122  0.00  0.00    +0.019 C 
ATOM     20  C   UNL     1       7.496   0.780   0.287  0.00  0.00    +0.292 C 
ATOM     21  H   UNL     1       6.903   2.273  -0.929  0.00  0.00    +0.178 HD
ENDBRANCH   9  17
BRANCH  11  22
ATOM     22  C   UNL     1      -3.348   0.484   0.613  0.00  0.00    +0.057 C 
ATOM     23  C   UNL     1      -4.127   0.950  -0.442  0.00  0.00    +0.045 C 
ATOM     24  C   UNL     1      -3.932  -0.204   1.672  0.00  0.00    +0.008 C 
ATOM     25  C   UNL     1      -5.504   0.725  -0.438  0.00  0.00    +0.173 C 
ATOM     26  C   UNL     1      -5.309  -0.429   1.677  0.00  0.00    +0.040 C 
ATOM     27  C   UNL     1      -6.094   0.036   0.622  0.00  0.00    +0.172 C 
BRANCH  25  28
ATOM     28  O   UNL     1      -6.261   1.183  -1.473  0.00  0.00    -0.468 OA
ATOM     29  C   UNL     1      -5.581   1.878  -2.516  0.00  0.00    +0.253 C 
ENDBRANCH  25  28
BRANCH  27  30
ATOM     30  O   UNL     1      -7.438  -0.191   0.637  0.00  0.00    -0.468 OA
ATOM     31  C   UNL     1      -7.899  -1.395   0.029  0.00  0.00    +0.253 C 
ENDBRANCH  27  30
ENDBRANCH  11  22
TORSDOF 4
