REMARK  Name = 129236
REMARK  5 active torsions:
REMARK  status: ('A' for Active; 'I' for Inactive)
REMARK    1  A    between atoms: S_1  and  C_6
REMARK    2  A    between atoms: S_1  and  N_15
REMARK    3  A    between atoms: N_15  and  C_17
REMARK    4  A    between atoms: C_17  and  C_18
REMARK    5  A    between atoms: C_18  and  N_19
REMARK                            x       y       z     vdW  Elec       q    Type
REMARK                         _______ _______ _______ _____ _____    ______ ____
ROOT
ATOM      1  S   UNL     1      -1.525  -0.270  -1.547  0.00  0.00    +0.060 S 
ATOM      2  O   UNL     1      -2.232   0.818  -2.205  0.00  0.00    -0.153 OA
ATOM      3  O   UNL     1      -1.168  -1.459  -2.304  0.00  0.00    -0.153 OA
ENDROOT
BRANCH   1   6
ATOM      4 CL   UNL     1       3.656   2.338   0.850  0.00  0.00    -0.082 Cl
ATOM      5  N   UNL     1       1.669  -2.647   0.472  0.00  0.00    -0.242 NA
ATOM      6  C   UNL     1      -0.047   0.371  -0.850  0.00  0.00    +0.123 C 
ATOM      7  C   UNL     1       0.913  -0.444  -0.228  0.00  0.00    +0.039 C 
ATOM      8  C   UNL     1       2.080   0.134   0.313  0.00  0.00    +0.015 C 
ATOM      9  C   UNL     1       0.148   1.750  -0.933  0.00  0.00    +0.021 C 
ATOM     10  C   UNL     1       2.261   1.523   0.220  0.00  0.00    +0.058 C 
ATOM     11  C   UNL     1       1.300   2.324  -0.400  0.00  0.00    +0.013 C 
ATOM     12  C   UNL     1       0.768  -1.829  -0.117  0.00  0.00    +0.100 C 
ATOM     13  C   UNL     1       3.025  -0.696   0.927  0.00  0.00    +0.022 C 
ATOM     14  C   UNL     1       2.774  -2.059   0.979  0.00  0.00    +0.099 C 
ENDBRANCH   1   6
BRANCH   1  15
ATOM     15  N   UNL     1      -2.402  -0.741  -0.160  0.00  0.00    -0.182 NA
ATOM     16  H   UNL     1      -1.846  -1.455   0.310  0.00  0.00    +0.149 HD
BRANCH  15  17
ATOM     17  C   UNL     1      -2.760   0.257   0.857  0.00  0.00    +0.068 C 
BRANCH  17  18
ATOM     18  C   UNL     1      -4.041  -0.174   1.556  0.00  0.00    -0.067 C 
BRANCH  18  19
ATOM     19  N   UNL     1      -4.419   0.804   2.569  0.00  0.00    +0.381 N 
ATOM     20  H   UNL     1      -5.278   0.502   3.029  0.00  0.00    -0.089 HD
ATOM     21  H   UNL     1      -4.570   1.710   2.126  0.00  0.00    -0.089 HD
ATOM     22  H   UNL     1      -3.673   0.883   3.260  0.00  0.00    -0.089 HD
ENDBRANCH  18  19
ENDBRANCH  17  18
ENDBRANCH  15  17
ENDBRANCH   1  15
TORSDOF 5
