REMARK  Name = 17753844
REMARK  9 active torsions:
REMARK  status: ('A' for Active; 'I' for Inactive)
REMARK    1  A    between atoms: C_1  and  N_2
REMARK    2  A    between atoms: C_1  and  C_7
REMARK    3  A    between atoms: C_1  and  C_10
REMARK    4  A    between atoms: C_7  and  O_8
REMARK    5  A    between atoms: C_10  and  C_12
REMARK    6  A    between atoms: C_12  and  O_13
REMARK    7  A    between atoms: O_13  and  C_14
REMARK    8  A    between atoms: C_14  and  C_16
REMARK    9  A    between atoms: C_16  and  O_17
REMARK                            x       y       z     vdW  Elec       q    Type
REMARK                         _______ _______ _______ _____ _____    ______ ____
ROOT
ATOM      1  C   UNK     1       2.432  -0.604   0.043  0.00  0.00    +0.047 C 
ENDROOT
BRANCH   1   2
ATOM      2  N   UNK     1       3.521  -1.049   0.915  0.00  0.00    +0.389 N 
ATOM      3  H   UNK     1       3.407  -2.042   1.122  0.00  0.00    -0.088 HD
ATOM      4  H   UNK     1       3.501  -0.516   1.784  0.00  0.00    -0.088 HD
ATOM      5  H   UNK     1       4.415  -0.901   0.446  0.00  0.00    -0.088 HD
ENDBRANCH   1   2
BRANCH   1   7
ATOM      6  O   UNK     1       3.558   1.553   0.261  0.00  0.00    -0.253 OA
ATOM      7  C   UNK     1       2.662   0.874  -0.225  0.00  0.00    +0.293 C 
BRANCH   7   8
ATOM      8  O   UNK     1       1.756   1.379  -1.103  0.00  0.00    -0.482 OA
ATOM      9  H   UNK     1       1.084   0.827  -1.453  0.00  0.00    +0.295 HD
ENDBRANCH   7   8
ENDBRANCH   1   7
BRANCH   1  10
ATOM     10  C   UNK     1       1.096  -0.816   0.753  0.00  0.00    +0.099 C 
BRANCH  10  12
ATOM     11  O   UNK     1       0.041  -1.296  -1.367  0.00  0.00    -0.250 OA
ATOM     12  C   UNK     1      -0.047  -0.839  -0.235  0.00  0.00    +0.316 C 
BRANCH  12  13
ATOM     13  O   UNK     1      -1.166  -0.306   0.333  0.00  0.00    -0.436 OA
BRANCH  13  14
ATOM     14  C   UNK     1      -2.332  -0.294  -0.496  0.00  0.00    +0.316 C 
BRANCH  14  16
ATOM     15  O   UNK     1      -3.452   0.722   1.405  0.00  0.00    -0.246 OA
ATOM     16  C   UNK     1      -3.483   0.317   0.253  0.00  0.00    +0.359 C 
BRANCH  16  17
ATOM     17  O   UNK     1      -4.586   0.360  -0.537  0.00  0.00    -0.478 OA
ATOM     18  H   UNK     1      -4.547   0.033  -1.414  0.00  0.00    +0.295 HD
ENDBRANCH  16  17
ENDBRANCH  14  16
ENDBRANCH  13  14
ENDBRANCH  12  13
ENDBRANCH  10  12
ENDBRANCH   1  10
TORSDOF 9
