21439
  -OEChem-10051720083D

 18 18  0     0  0  0  0  0  0999 V2000
    2.6266    0.6190    0.7290 O   0  0  0  0  0  0  0  0  0  0  0  0
    0.7284   -2.1232   -0.1097 N   0  0  0  0  0  0  0  0  0  0  0  0
    0.4849    0.3006   -0.2549 C   0  0  0  0  0  0  0  0  0  0  0  0
   -0.0753   -0.9628   -0.0663 C   0  0  0  0  0  0  0  0  0  0  0  0
    1.9476    0.4667   -0.5104 C   0  0  0  0  0  0  0  0  0  0  0  0
   -0.3235    1.4363   -0.2066 C   0  0  0  0  0  0  0  0  0  0  0  0
   -1.4440   -1.0905    0.1703 C   0  0  0  0  0  0  0  0  0  0  0  0
   -1.6922    1.3087    0.0301 C   0  0  0  0  0  0  0  0  0  0  0  0
   -2.2524    0.0452    0.2185 C   0  0  0  0  0  0  0  0  0  0  0  0
    2.3840   -0.3632   -1.0739 H   0  0  0  0  0  0  0  0  0  0  0  0
    2.1274    1.3678   -1.1089 H   0  0  0  0  0  0  0  0  0  0  0  0
    0.0992    2.4274   -0.3493 H   0  0  0  0  0  0  0  0  0  0  0  0
   -1.8937   -2.0689    0.3193 H   0  0  0  0  0  0  0  0  0  0  0  0
   -2.3217    2.1929    0.0685 H   0  0  0  0  0  0  0  0  0  0  0  0
   -3.3181   -0.0541    0.4031 H   0  0  0  0  0  0  0  0  0  0  0  0
    1.7351   -2.0666   -0.1616 H   0  0  0  0  0  0  0  0  0  0  0  0
    0.2982   -3.0273    0.0378 H   0  0  0  0  0  0  0  0  0  0  0  0
    3.5685    0.7472    0.5245 H   0  0  0  0  0  0  0  0  0  0  0  0
  1  5  1  0  0  0  0
  1 18  1  0  0  0  0
  2  4  1  0  0  0  0
  2 16  1  0  0  0  0
  2 17  1  0  0  0  0
  3  4  1  0  0  0  0
  3  5  1  0  0  0  0
  3  6  2  0  0  0  0
  4  7  2  0  0  0  0
  5 10  1  0  0  0  0
  5 11  1  0  0  0  0
  6  8  1  0  0  0  0
  6 12  1  0  0  0  0
  7  9  1  0  0  0  0
  7 13  1  0  0  0  0
  8  9  2  0  0  0  0
  8 14  1  0  0  0  0
  9 15  1  0  0  0  0
M  END
> <DATABASE_ID>
DB03058

> <DATABASE_NAME>
drugbank

> <ORIGINAL_SOURCE>
PUBCHEM

> <ORIGINAL_SOURCE_URL>
https://pubchem.ncbi.nlm.nih.gov/rest/pug/compound/inchikey/VYFOAVADNIHPTR-UHFFFAOYSA-N/SDF?record_type=3d

> <SMILES>
NC1=CC=CC=C1CO

> <INCHI_IDENTIFIER>
InChI=1S/C7H9NO/c8-7-4-2-1-3-6(7)5-9/h1-4,9H,5,8H2

> <INCHI_KEY>
VYFOAVADNIHPTR-UHFFFAOYSA-N

> <FORMULA>
C7H9NO

> <MOLECULAR_WEIGHT>
123.1525

> <EXACT_MASS>
123.068413915

> <JCHEM_ACCEPTOR_COUNT>
2

> <JCHEM_AVERAGE_POLARIZABILITY>
13.209327534337572

> <JCHEM_BIOAVAILABILITY>
1

> <JCHEM_DONOR_COUNT>
2

> <JCHEM_FORMAL_CHARGE>
0

> <JCHEM_GHOSE_FILTER>
0

> <JCHEM_IUPAC>
(2-aminophenyl)methanol

> <ALOGPS_LOGP>
-0.13

> <JCHEM_LOGP>
0.37697009466666653

> <ALOGPS_LOGS>
-0.43

> <JCHEM_MDDR_LIKE_RULE>
0

> <JCHEM_NUMBER_OF_RINGS>
1

> <JCHEM_PHYSIOLOGICAL_CHARGE>
0

> <JCHEM_PKA_STRONGEST_ACIDIC>
14.988885144210844

> <JCHEM_PKA_STRONGEST_BASIC>
3.549171957538621

> <JCHEM_POLAR_SURFACE_AREA>
46.25

> <JCHEM_REFRACTIVITY>
37.5743

> <JCHEM_ROTATABLE_BOND_COUNT>
1

> <JCHEM_RULE_OF_FIVE>
1

> <ALOGPS_SOLUBILITY>
4.62e+01 g/l

> <JCHEM_TRADITIONAL_IUPAC>
isatoic anhydride

> <JCHEM_VEBER_RULE>
0

> <DRUGBANK_ID>
DB03058

> <SECONDARY_ACCESSION_NUMBERS>
EXPT02934

> <DRUG_GROUPS>
experimental

> <GENERIC_NAME>
2-Aminobenzyl alcohol

> <SYNONYMS>
2-Aminobenzenemethanol; 2-Aminobenzyl alcohol; o-(Hydroxymethyl)aniline; o-Aminobenzyl alcohol; o-Aminobenzylic alcohol

$$$$
