REMARK  Name = 61503
REMARK  3 active torsions:
REMARK  status: ('A' for Active; 'I' for Inactive)
REMARK    1  A    between atoms: C_1  and  O_3
REMARK    2  A    between atoms: C_1  and  C_6
REMARK    3  A    between atoms: C_6  and  O_7
REMARK                            x       y       z     vdW  Elec       q    Type
REMARK                         _______ _______ _______ _____ _____    ______ ____
ROOT
ATOM      1  C   UNL     1      -0.709   0.108   0.402  0.00  0.00    +0.209 C 
ATOM      2  C   UNL     1      -1.358   1.169  -0.470  0.00  0.00    +0.044 C 
ENDROOT
BRANCH   1   3
ATOM      3  O   UNL     1      -1.391  -1.118   0.183  0.00  0.00    -0.374 OA
ATOM      4  H   UNL     1      -2.328  -1.012   0.410  0.00  0.00    +0.211 HD
ENDBRANCH   1   3
BRANCH   1   6
ATOM      5  O   UNL     1       1.228  -1.117  -0.406  0.00  0.00    -0.248 OA
ATOM      6  C   UNL     1       0.749  -0.083   0.041  0.00  0.00    +0.341 C 
BRANCH   6   7
ATOM      7  O   UNL     1       1.482   1.041   0.249  0.00  0.00    -0.479 OA
ATOM      8  H   UNL     1       1.073   1.810   0.594  0.00  0.00    +0.295 HD
ENDBRANCH   6   7
ENDBRANCH   1   6
TORSDOF 3
