REMARK  Name = 449035
REMARK  7 active torsions:
REMARK  status: ('A' for Active; 'I' for Inactive)
REMARK    1  A    between atoms: C_1  and  O_18
REMARK    2  A    between atoms: C_2  and  C_17
REMARK    3  A    between atoms: C_3  and  N_7
REMARK    4  A    between atoms: C_10  and  C_13
REMARK    5  A    between atoms: C_13  and  O_14
REMARK    6  A    between atoms: O_18  and  C_19
REMARK    7  A    between atoms: C_19  and  C_20
REMARK                            x       y       z     vdW  Elec       q    Type
REMARK                         _______ _______ _______ _____ _____    ______ ____
ROOT
ATOM      1  C   UNL     1      -1.736  -0.011  -0.359  0.00  0.00    +0.148 C 
ATOM      2  C   UNL     1      -1.145   1.232  -0.154  0.00  0.00    +0.104 C 
ATOM      3  C   UNL     1       1.031   0.183  -0.126  0.00  0.00    +0.075 C 
ATOM      4  C   UNL     1      -0.953  -1.158  -0.448  0.00  0.00    +0.039 C 
ATOM      5  C   UNL     1       0.241   1.329  -0.037  0.00  0.00    +0.030 C 
ATOM      6  C   UNL     1       0.434  -1.061  -0.331  0.00  0.00    +0.020 C 
ENDROOT
BRANCH   3   7
ATOM      7  N   UNL     1       2.406   0.278  -0.009  0.00  0.00    -0.189 N 
ATOM      8  N   UNL     1       3.002   1.472   0.190  0.00  0.00    -0.172 NA
ATOM      9  C   UNL     1       3.294  -0.763  -0.075  0.00  0.00    +0.097 C 
ATOM     10  C   UNL     1       4.542  -0.213   0.091  0.00  0.00    +0.113 C 
ATOM     11  C   UNL     1       4.301   1.165   0.249  0.00  0.00    +0.126 C 
BRANCH  10  13
ATOM     12  O   UNL     1       5.903  -2.155  -0.055  0.00  0.00    -0.245 OA
ATOM     13  C   UNL     1       5.782  -0.927   0.093  0.00  0.00    +0.341 C 
BRANCH  13  14
ATOM     14  O   UNL     1       6.902  -0.152   0.279  0.00  0.00    -0.477 OA
ATOM     15  H   UNL     1       6.817   0.774   0.391  0.00  0.00    +0.295 HD
ENDBRANCH  13  14
ENDBRANCH  10  13
ENDBRANCH   3   7
BRANCH   2  17
ATOM     16  N   UNL     1      -2.582   3.381   0.016  0.00  0.00    -0.191 NA
ATOM     17  C   UNL     1      -1.939   2.419  -0.060  0.00  0.00    +0.104 C 
ENDBRANCH   2  17
BRANCH   1  18
ATOM     18  O   UNL     1      -3.095  -0.136  -0.478  0.00  0.00    -0.475 OA
BRANCH  18  19
ATOM     19  C   UNL     1      -3.749  -0.961   0.478  0.00  0.00    +0.205 C 
BRANCH  19  20
ATOM     20  C   UNL     1      -5.274  -0.975   0.246  0.00  0.00    +0.040 C 
ATOM     21  C   UNL     1      -5.962  -1.872   1.289  0.00  0.00    +0.004 C 
ATOM     22  C   UNL     1      -5.560  -1.524  -1.161  0.00  0.00    +0.004 C 
ATOM     23  C   UNL     1      -5.843   0.449   0.360  0.00  0.00    +0.004 C 
ENDBRANCH  19  20
ENDBRANCH  18  19
ENDBRANCH   1  18
TORSDOF 7
