REMARK  Name = 5226
REMARK  2 active torsions:
REMARK  status: ('A' for Active; 'I' for Inactive)
REMARK    1  A    between atoms: C_8  and  S_13
REMARK    2  A    between atoms: S_13  and  N_16
REMARK                            x       y       z     vdW  Elec       q    Type
REMARK                         _______ _______ _______ _____ _____    ______ ____
ROOT
ATOM      1  N   UNL     1       3.447   1.198   0.355  0.00  0.00    +0.387 N 
ATOM      2  C   UNL     1       1.471  -0.824   0.015  0.00  0.00    -0.030 C 
ATOM      3  C   UNL     1       1.079   0.526  -0.030  0.00  0.00    -0.046 C 
ATOM      4  C   UNL     1       2.932  -1.188   0.092  0.00  0.00    +0.003 C 
ATOM      5  C   UNL     1       2.115   1.621  -0.093  0.00  0.00    -0.055 C 
ATOM      6  C   UNL     1       3.847  -0.035  -0.323  0.00  0.00    -0.077 C 
ATOM      7  C   UNL     1      -0.283   0.848  -0.079  0.00  0.00    +0.013 C 
ATOM      8  C   UNL     1      -1.248  -0.160  -0.056  0.00  0.00    +0.121 C 
ATOM      9  C   UNL     1       0.495  -1.828   0.049  0.00  0.00    -0.003 C 
ATOM     10  C   UNL     1      -0.859  -1.496   0.010  0.00  0.00    +0.020 C 
ATOM     11  H   UNL     1       3.427   1.036   1.362  0.00  0.00    -0.084 HD
ATOM     12  H   UNL     1       4.119   1.931   0.130  0.00  0.00    -0.084 HD
ENDROOT
BRANCH   8  13
ATOM     13  S   UNL     1      -2.943   0.255  -0.111  0.00  0.00    +0.057 S 
ATOM     14  O   UNL     1      -3.076   1.562  -0.739  0.00  0.00    -0.153 OA
ATOM     15  O   UNL     1      -3.680  -0.882  -0.645  0.00  0.00    -0.153 OA
BRANCH  13  16
ATOM     16  N   UNL     1      -3.296   0.404   1.554  0.00  0.00    -0.203 NA
ATOM     17  H   UNL     1      -4.279   0.649   1.672  0.00  0.00    +0.144 HD
ATOM     18  H   UNL     1      -2.712   1.134   1.961  0.00  0.00    +0.144 HD
ENDBRANCH  13  16
ENDBRANCH   8  13
TORSDOF 2
