REMARK  Name = 17754068
REMARK  7 active torsions:
REMARK  status: ('A' for Active; 'I' for Inactive)
REMARK    1  A    between atoms: C_1  and  C_4
REMARK    2  A    between atoms: C_1  and  N_7
REMARK    3  A    between atoms: C_1  and  C_11
REMARK    4  A    between atoms: C_11  and  C_12
REMARK    5  A    between atoms: C_12  and  C_13
REMARK    6  A    between atoms: C_13  and  C_14
REMARK    7  A    between atoms: C_14  and  N_15
REMARK                            x       y       z     vdW  Elec       q    Type
REMARK                         _______ _______ _______ _____ _____    ______ ____
ROOT
ATOM      1  C   UNL     1       1.540   0.674   0.330  0.00  0.00    +0.013 C 
ENDROOT
BRANCH   1   4
ATOM      2  O   UNL     1       1.917  -1.226  -1.132  0.00  0.00    -0.278 OA
ATOM      3  N   UNL     1       3.059  -1.138   0.860  0.00  0.00    -0.330 N 
ATOM      4  C   UNL     1       2.165  -0.655  -0.072  0.00  0.00    +0.199 C 
ATOM      5  H   UNL     1       3.522  -1.992   0.701  0.00  0.00    +0.145 HD
ATOM      6  H   UNL     1       3.234  -0.629   1.684  0.00  0.00    +0.145 HD
ENDBRANCH   1   4
BRANCH   1   7
ATOM      7  N   UNL     1       2.475   1.704  -0.126  0.00  0.00    +0.387 N 
ATOM      8  H   UNL     1       2.109   2.626   0.115  0.00  0.00    -0.089 HD
ATOM      9  H   UNL     1       2.587   1.638  -1.138  0.00  0.00    -0.089 HD
ATOM     10  H   UNL     1       3.378   1.568   0.326  0.00  0.00    -0.089 HD
ENDBRANCH   1   7
BRANCH   1  11
ATOM     11  C   UNL     1       0.161   0.890  -0.311  0.00  0.00    -0.013 C 
BRANCH  11  12
ATOM     12  C   UNL     1      -0.943   0.126   0.429  0.00  0.00    -0.004 C 
BRANCH  12  13
ATOM     13  C   UNL     1      -2.304   0.335  -0.236  0.00  0.00    -0.024 C 
BRANCH  13  14
ATOM     14  C   UNL     1      -3.390  -0.454   0.481  0.00  0.00    -0.086 C 
BRANCH  14  15
ATOM     15  N   UNL     1      -4.679  -0.257  -0.223  0.00  0.00    +0.380 N 
ATOM     16  H   UNL     1      -5.411  -0.784   0.254  0.00  0.00    -0.089 HD
ATOM     17  H   UNL     1      -4.595  -0.586  -1.185  0.00  0.00    -0.089 HD
ATOM     18  H   UNL     1      -4.919   0.734  -0.222  0.00  0.00    -0.089 HD
ENDBRANCH  14  15
ENDBRANCH  13  14
ENDBRANCH  12  13
ENDBRANCH  11  12
ENDBRANCH   1  11
TORSDOF 7
