REMARK  Name = 73284
REMARK  4 active torsions:
REMARK  status: ('A' for Active; 'I' for Inactive)
REMARK    1  A    between atoms: N_2  and  C_4
REMARK    2  A    between atoms: N_2  and  O_7
REMARK    3  A    between atoms: C_3  and  C_10
REMARK    4  A    between atoms: C_10  and  O_11
REMARK                            x       y       z     vdW  Elec       q    Type
REMARK                         _______ _______ _______ _____ _____    ______ ____
ROOT
ATOM      1  O   UNL     1       0.785   1.778  -0.001  0.00  0.00    -0.261 OA
ATOM      2  N   UNL     1      -0.512  -0.147  -0.009  0.00  0.00    -0.165 N 
ATOM      3  C   UNL     1       0.639   0.564  -0.013  0.00  0.00    +0.347 C 
ENDROOT
BRANCH   2   4
ATOM      4  C   UNL     1      -1.843   0.457   0.012  0.00  0.00    +0.104 C 
ATOM      5  C   UNL     1      -2.600   0.027   1.266  0.00  0.00    +0.024 C 
ATOM      6  C   UNL     1      -2.602   0.058  -1.250  0.00  0.00    +0.024 C 
ENDBRANCH   2   4
BRANCH   2   7
ATOM      7  O   UNL     1      -0.565  -1.540  -0.024  0.00  0.00    -0.291 OA
ATOM      8  H   UNL     1      -1.491  -1.828  -0.018  0.00  0.00    +0.242 HD
ENDBRANCH   2   7
BRANCH   3  10
ATOM      9  O   UNL     1       1.860  -1.478   0.005  0.00  0.00    -0.240 OA
ATOM     10  C   UNL     1       1.886  -0.265  -0.004  0.00  0.00    +0.395 C 
BRANCH  10  11
ATOM     11  O   UNL     1       2.953   0.545   0.017  0.00  0.00    -0.474 OA
ATOM     12  H   UNL     1       2.836   1.475   0.007  0.00  0.00    +0.296 HD
ENDBRANCH  10  11
ENDBRANCH   3  10
TORSDOF 4
