REMARK  Name = 448652
REMARK  2 active torsions:
REMARK  status: ('A' for Active; 'I' for Inactive)
REMARK    1  A    between atoms: C_5  and  C_9
REMARK    2  A    between atoms: C_9  and  O_10
REMARK                            x       y       z     vdW  Elec       q    Type
REMARK                         _______ _______ _______ _____ _____    ______ ____
ROOT
ATOM      1  S   UNL     1       2.090   1.291   0.006  0.00  0.00    +0.095 S 
ATOM      2  O   UNL     1       0.481  -2.057   0.007  0.00  0.00    -0.265 OA
ATOM      3  N   UNL     1       2.130  -0.391  -0.007  0.00  0.00    -0.276 N 
ATOM      4  N   UNL     1       0.411   1.451   0.034  0.00  0.00    -0.182 NA
ATOM      5  C   UNL     1      -0.108   0.259   0.033  0.00  0.00    +0.222 A 
ATOM      6  C   UNL     1       0.862  -0.904   0.009  0.00  0.00    +0.289 A 
ATOM      7  H   UNL     1       2.952  -0.931  -0.023  0.00  0.00    +0.179 HD
ENDROOT
BRANCH   5   9
ATOM      8  O   UNL     1      -2.240   0.087   1.070  0.00  0.00    -0.243 OA
ATOM      9  C   UNL     1      -1.585   0.145   0.056  0.00  0.00    +0.361 C 
BRANCH   9  10
ATOM     10  O   UNL     1      -2.040   0.119  -1.208  0.00  0.00    -0.476 OA
ATOM     11  H   UNL     1      -1.438   0.171  -1.924  0.00  0.00    +0.295 HD
ENDBRANCH   9  10
ENDBRANCH   5   9
TORSDOF 2
