REMARK  Name = 446505
REMARK  5 active torsions:
REMARK  status: ('A' for Active; 'I' for Inactive)
REMARK    1  A    between atoms: C_6  and  N_12
REMARK    2  A    between atoms: C_6  and  C_23
REMARK    3  A    between atoms: C_13  and  C_19
REMARK    4  A    between atoms: C_19  and  C_20
REMARK    5  A    between atoms: C_20  and  O_21
REMARK                            x       y       z     vdW  Elec       q    Type
REMARK                         _______ _______ _______ _____ _____    ______ ____
ROOT
ATOM      1  O   UNL     1       0.742  -0.346   2.286  0.00  0.00    -0.276 OA
ATOM      2  O   UNL     1       1.273  -0.638  -2.490  0.00  0.00    -0.276 OA
ATOM      3  O   UNL     1       1.811  -4.294   0.220  0.00  0.00    -0.252 OA
ATOM      4  N   UNL     1       1.274  -2.299   1.220  0.00  0.00    -0.240 N 
ATOM      5  N   UNL     1       1.536  -2.441  -1.106  0.00  0.00    -0.240 N 
ATOM      6  C   UNL     1       0.953  -0.250  -0.122  0.00  0.00    +0.119 C 
ATOM      7  C   UNL     1       0.975  -0.948   1.236  0.00  0.00    +0.223 C 
ATOM      8  C   UNL     1       1.263  -1.107  -1.349  0.00  0.00    +0.223 C 
ATOM      9  C   UNL     1       1.558  -3.092   0.118  0.00  0.00    +0.312 C 
ATOM     10  H   UNL     1       1.287  -2.751   2.094  0.00  0.00    +0.159 HD
ATOM     11  H   UNL     1       1.738  -2.994  -1.895  0.00  0.00    +0.159 HD
ENDROOT
BRANCH   6  12
ATOM     12  N   UNL     1      -0.423   0.213  -0.304  0.00  0.00    +0.403 N 
ATOM     13  C   UNL     1      -3.245   0.496   0.436  0.00  0.00    -0.002 C 
ATOM     14  C   UNL     1      -2.235   1.637   0.596  0.00  0.00    -0.023 C 
ATOM     15  C   UNL     1      -2.776  -0.461  -0.664  0.00  0.00    -0.023 C 
ATOM     16  C   UNL     1      -0.817   1.100   0.799  0.00  0.00    -0.075 C 
ATOM     17  C   UNL     1      -1.339  -0.929  -0.419  0.00  0.00    -0.075 C 
ATOM     18  H   UNL     1      -0.476   0.748  -1.172  0.00  0.00    -0.078 HD
BRANCH  13  19
ATOM     19  C   UNL     1      -4.640   1.036   0.135  0.00  0.00    +0.032 C 
BRANCH  19  20
ATOM     20  C   UNL     1      -5.660  -0.083   0.021  0.00  0.00    +0.137 C 
BRANCH  20  21
ATOM     21  O   UNL     1      -6.927   0.487  -0.275  0.00  0.00    -0.382 OA
ATOM     22  H   UNL     1      -7.589  -0.218  -0.351  0.00  0.00    +0.210 HD
ENDBRANCH  20  21
ENDBRANCH  19  20
ENDBRANCH  13  19
ENDBRANCH   6  12
BRANCH   6  23
ATOM     23  C   UNL     1       1.902   0.912  -0.088  0.00  0.00    -0.024 C 
ATOM     24  C   UNL     1       3.027   0.858   0.728  0.00  0.00    -0.005 C 
ATOM     25  C   UNL     1       1.647   2.032  -0.872  0.00  0.00    -0.005 C 
ATOM     26  C   UNL     1       3.909   1.938   0.760  0.00  0.00    -0.000 C 
ATOM     27  C   UNL     1       2.530   3.112  -0.840  0.00  0.00    -0.000 C 
ATOM     28  C   UNL     1       3.660   3.065  -0.024  0.00  0.00    -0.000 C 
ENDBRANCH   6  23
TORSDOF 5
