REMARK  Name = 641237
REMARK  2 active torsions:
REMARK  status: ('A' for Active; 'I' for Inactive)
REMARK    1  A    between atoms: C_1  and  C_4
REMARK    2  A    between atoms: C_1  and  O_5
REMARK                            x       y       z     vdW  Elec       q    Type
REMARK                         _______ _______ _______ _____ _____    ______ ____
ROOT
ATOM      1  C   UNL     1      -0.533  -0.017  -0.344  0.00  0.00    +0.122 C 
ATOM      2  C   UNL     1      -1.894   0.573   0.002  0.00  0.00    +0.033 C 
ENDROOT
BRANCH   1   4
ATOM      3 BR   UNL     1       2.316  -0.013  -0.113  0.00  0.00    -0.078 Br
ATOM      4  C   UNL     1       0.585   0.803   0.280  0.00  0.00    +0.097 C 
ENDBRANCH   1   4
BRANCH   1   5
ATOM      5  O   UNL     1      -0.474  -1.345   0.174  0.00  0.00    -0.384 OA
ATOM      6  H   UNL     1       0.388  -1.736  -0.038  0.00  0.00    +0.210 HD
ENDBRANCH   1   5
TORSDOF 2
