REMARK  Name = 5288600
REMARK  4 active torsions:
REMARK  status: ('A' for Active; 'I' for Inactive)
REMARK    1  A    between atoms: C_1  and  C_12
REMARK    2  A    between atoms: C_2  and  O_19
REMARK    3  A    between atoms: C_3  and  O_21
REMARK    4  A    between atoms: C_6  and  O_23
REMARK                            x       y       z     vdW  Elec       q    Type
REMARK                         _______ _______ _______ _____ _____    ______ ____
ROOT
ATOM      1  C   UNL     1      -0.879  -0.778   0.023  0.00  0.00    +0.068 C 
ATOM      2  C   UNL     1      -1.549  -0.211   1.123  0.00  0.00    +0.145 C 
ATOM      3  C   UNL     1      -1.469  -0.656  -1.250  0.00  0.00    +0.145 C 
ATOM      4  C   UNL     1      -2.765   0.453   0.958  0.00  0.00    +0.074 C 
ATOM      5  C   UNL     1      -2.684   0.007  -1.416  0.00  0.00    +0.074 C 
ATOM      6  C   UNL     1      -3.333   0.562  -0.312  0.00  0.00    +0.145 C 
ENDROOT
BRANCH   1  12
ATOM      7  O   UNL     1       2.989  -2.810   0.539  0.00  0.00    -0.270 OA
ATOM      8  N   UNL     1       3.842  -0.630   0.229  0.00  0.00    -0.280 N 
ATOM      9  C   UNL     1       1.568  -0.871   0.157  0.00  0.00    +0.055 C 
ATOM     10  C   UNL     1       1.882   0.538  -0.054  0.00  0.00    +0.018 C 
ATOM     11  C   UNL     1       3.276   0.629  -0.001  0.00  0.00    +0.051 C 
ATOM     12  C   UNL     1       0.371  -1.460   0.193  0.00  0.00    +0.011 C 
ATOM     13  C   UNL     1       2.858  -1.617   0.340  0.00  0.00    +0.250 C 
ATOM     14  C   UNL     1       1.109   1.663  -0.273  0.00  0.00    +0.001 C 
ATOM     15  C   UNL     1       3.945   1.826  -0.161  0.00  0.00    +0.015 C 
ATOM     16  C   UNL     1       1.767   2.886  -0.437  0.00  0.00    +0.000 C 
ATOM     17  C   UNL     1       3.171   2.967  -0.381  0.00  0.00    +0.001 C 
ATOM     18  H   UNL     1       4.810  -0.799   0.303  0.00  0.00    +0.155 HD
ENDBRANCH   1  12
BRANCH   2  19
ATOM     19  O   UNL     1      -1.018  -0.302   2.376  0.00  0.00    -0.471 OA
ATOM     20  C   UNL     1      -1.387  -1.437   3.155  0.00  0.00    +0.252 C 
ENDBRANCH   2  19
BRANCH   3  21
ATOM     21  O   UNL     1      -0.858  -1.188  -2.347  0.00  0.00    -0.471 OA
ATOM     22  C   UNL     1      -1.189  -2.533  -2.684  0.00  0.00    +0.252 C 
ENDBRANCH   3  21
BRANCH   6  23
ATOM     23  O   UNL     1      -4.519   1.209  -0.474  0.00  0.00    -0.471 OA
ATOM     24  C   UNL     1      -5.127   1.752   0.697  0.00  0.00    +0.252 C 
ENDBRANCH   6  23
TORSDOF 4
