REMARK  Name = 73555170
REMARK  5 active torsions:
REMARK  status: ('A' for Active; 'I' for Inactive)
REMARK    1  A    between atoms: C_4  and  S_11
REMARK    2  A    between atoms: S_11  and  C_12
REMARK    3  A    between atoms: C_12  and  C_13
REMARK    4  A    between atoms: C_13  and  C_14
REMARK    5  A    between atoms: C_14  and  S_15
REMARK                            x       y       z     vdW  Elec       q    Type
REMARK                         _______ _______ _______ _____ _____    ______ ____
ROOT
ATOM      1  S   UNL     1      -0.931   0.000  -1.696  0.00  0.00    -0.082 S 
ATOM      2  N   UNL     1      -1.481  -1.453   0.273  0.00  0.00    -0.317 N 
ATOM      3  C   UNL     1      -2.435  -0.461   0.302  0.00  0.00    +0.052 C 
ATOM      4  C   UNL     1      -0.614  -1.361  -0.712  0.00  0.00    +0.172 C 
ATOM      5  C   UNL     1      -2.290   0.456  -0.732  0.00  0.00    +0.041 C 
ATOM      6  C   UNL     1      -3.468  -0.329   1.242  0.00  0.00    +0.015 C 
ATOM      7  C   UNL     1      -3.168   1.540  -0.869  0.00  0.00    +0.007 C 
ATOM      8  C   UNL     1      -4.346   0.751   1.109  0.00  0.00    +0.001 C 
ATOM      9  C   UNL     1      -4.198   1.669   0.070  0.00  0.00    +0.001 C 
ATOM     10  H   UNL     1      -1.451  -2.177   0.939  0.00  0.00    +0.148 HD
ENDROOT
BRANCH   4  11
ATOM     11  S   UNL     1       0.674  -2.498  -0.948  0.00  0.00    -0.110 S 
BRANCH  11  12
ATOM     12  C   UNL     1       1.633  -2.367   0.600  0.00  0.00    +0.062 C 
BRANCH  12  13
ATOM     13  C   UNL     1       2.182  -0.963   0.850  0.00  0.00    +0.038 C 
BRANCH  13  14
ATOM     14  C   UNL     1       3.127  -0.469  -0.238  0.00  0.00    +0.159 C 
BRANCH  14  15
ATOM     15  S   UNL     1       3.742   1.143   0.135  0.00  0.00    +0.023 S 
ATOM     16  O   UNL     1       4.433   0.950   1.409  0.00  0.00    -0.069 OA
ATOM     17  O   UNL     1       4.613   1.438  -1.002  0.00  0.00    -0.069 OA
ATOM     18  O   UNL     1       2.527   1.954   0.208  0.00  0.00    -0.069 OA
ENDBRANCH  14  15
ENDBRANCH  13  14
ENDBRANCH  12  13
ENDBRANCH  11  12
ENDBRANCH   4  11
TORSDOF 5
