REMARK  Name = 447720
REMARK  14 active torsions:
REMARK  status: ('A' for Active; 'I' for Inactive)
REMARK    1  A    between atoms: N_2  and  C_19
REMARK    2  A    between atoms: C_3  and  C_5
REMARK    3  A    between atoms: C_5  and  C_6
REMARK    4  A    between atoms: C_5  and  O_17
REMARK    5  A    between atoms: C_6  and  C_9
REMARK    6  A    between atoms: C_9  and  O_10
REMARK    7  A    between atoms: O_10  and  C_12
REMARK    8  A    between atoms: C_12  and  C_13
REMARK    9  A    between atoms: C_19  and  C_20
REMARK   10  A    between atoms: C_20  and  C_23
REMARK   11  A    between atoms: N_22  and  C_25
REMARK   12  A    between atoms: C_25  and  C_26
REMARK   13  A    between atoms: C_26  and  O_27
REMARK   14  A    between atoms: O_27  and  C_29
REMARK                            x       y       z     vdW  Elec       q    Type
REMARK                         _______ _______ _______ _____ _____    ______ ____
ROOT
ATOM      1  O   UNL     1      -2.116  -3.481   0.012  0.00  0.00    -0.272 OA
ATOM      2  N   UNL     1      -1.735  -1.688   1.435  0.00  0.00    -0.302 N 
ATOM      3  C   UNL     1      -2.222  -2.286   0.284  0.00  0.00    +0.249 C 
ATOM      4  H   UNL     1      -1.873  -0.721   1.556  0.00  0.00    +0.150 HD
ENDROOT
BRANCH   3   5
ATOM      5  C   UNL     1      -2.898  -1.292  -0.658  0.00  0.00    +0.190 C 
BRANCH   5   6
ATOM      6  C   UNL     1      -1.951  -0.686  -1.736  0.00  0.00    +0.074 C 
ATOM      7  C   UNL     1      -1.335  -1.792  -2.616  0.00  0.00    +0.007 C 
ATOM      8  C   UNL     1      -2.783   0.234  -2.662  0.00  0.00    +0.007 C 
BRANCH   6   9
ATOM      9  C   UNL     1      -0.824   0.151  -1.084  0.00  0.00    +0.211 C 
BRANCH   9  10
ATOM     10  O   UNL     1      -1.361   1.227  -0.322  0.00  0.00    -0.448 OA
BRANCH  10  12
ATOM     11  O   UNL     1       0.519   2.478  -0.762  0.00  0.00    -0.250 OA
ATOM     12  C   UNL     1      -0.581   2.350  -0.237  0.00  0.00    +0.316 C 
BRANCH  12  13
ATOM     13  C   UNL     1      -1.270   3.428   0.606  0.00  0.00    +0.090 C 
ATOM     14  C   UNL     1      -2.595   3.827  -0.055  0.00  0.00    +0.011 C 
ATOM     15  C   UNL     1      -0.363   4.667   0.695  0.00  0.00    +0.011 C 
ATOM     16  C   UNL     1      -1.518   2.890   2.022  0.00  0.00    +0.011 C 
ENDBRANCH  12  13
ENDBRANCH  10  12
ENDBRANCH   9  10
ENDBRANCH   6   9
ENDBRANCH   5   6
BRANCH   5  17
ATOM     17  O   UNL     1      -3.960  -1.998  -1.295  0.00  0.00    -0.376 OA
ATOM     18  H   UNL     1      -4.422  -1.404  -1.907  0.00  0.00    +0.211 HD
ENDBRANCH   5  17
ENDBRANCH   3   5
BRANCH   2  19
ATOM     19  C   UNL     1      -1.033  -2.419   2.465  0.00  0.00    +0.099 C 
BRANCH  19  20
ATOM     20  C   UNL     1       0.470  -2.453   2.224  0.00  0.00    +0.106 C 
BRANCH  20  23
ATOM     21  O   UNL     1       0.465  -0.031   2.274  0.00  0.00    -0.275 OA
ATOM     22  N   UNL     1       2.472  -1.151   1.938  0.00  0.00    -0.301 N 
ATOM     23  C   UNL     1       1.104  -1.073   2.157  0.00  0.00    +0.224 C 
ATOM     24  H   UNL     1       2.886  -2.041   1.859  0.00  0.00    +0.150 HD
BRANCH  22  25
ATOM     25  C   UNL     1       3.314   0.017   1.820  0.00  0.00    +0.137 C 
BRANCH  25  26
ATOM     26  C   UNL     1       3.416   0.487   0.380  0.00  0.00    +0.230 C 
BRANCH  26  27
ATOM     27  O   UNL     1       4.003  -0.537  -0.411  0.00  0.00    -0.447 OA
BRANCH  27  29
ATOM     28  O   UNL     1       3.840   0.795  -2.291  0.00  0.00    -0.250 OA
ATOM     29  C   UNL     1       4.158  -0.249  -1.739  0.00  0.00    +0.318 C 
ATOM     30  C   UNL     1       4.786  -1.413  -2.443  0.00  0.00    +0.121 C 
ENDBRANCH  27  29
ENDBRANCH  26  27
ENDBRANCH  25  26
ENDBRANCH  22  25
ENDBRANCH  20  23
ENDBRANCH  19  20
ENDBRANCH   2  19
TORSDOF 14
