REMARK  Name = 5287488
REMARK  6 active torsions:
REMARK  status: ('A' for Active; 'I' for Inactive)
REMARK    1  A    between atoms: C_1  and  O_11
REMARK    2  A    between atoms: C_2  and  O_7
REMARK    3  A    between atoms: C_3  and  C_10
REMARK    4  A    between atoms: O_11  and  P_12
REMARK    5  A    between atoms: P_12  and  O_14
REMARK    6  A    between atoms: P_12  and  O_16
REMARK                            x       y       z     vdW  Elec       q    Type
REMARK                         _______ _______ _______ _____ _____    ______ ____
ROOT
ATOM      1  C   UNL     1      -0.265  -0.126  -0.249  0.00  0.00    +0.186 C 
ATOM      2  C   UNL     1      -0.562  -1.440   0.112  0.00  0.00    +0.173 C 
ATOM      3  C   UNL     1      -1.251   0.858  -0.175  0.00  0.00    +0.080 C 
ATOM      4  C   UNL     1      -1.845  -1.770   0.549  0.00  0.00    +0.040 C 
ATOM      5  C   UNL     1      -2.534   0.528   0.262  0.00  0.00    +0.007 C 
ATOM      6  C   UNL     1      -2.831  -0.786   0.623  0.00  0.00    +0.003 C 
ENDROOT
BRANCH   2   7
ATOM      7  O   UNL     1       0.391  -2.411   0.043  0.00  0.00    -0.468 OA
ATOM      8  C   UNL     1       0.501  -3.125  -1.186  0.00  0.00    +0.253 C 
ENDBRANCH   2   7
BRANCH   3  10
ATOM      9  O   UNL     1      -1.804   3.136  -0.496  0.00  0.00    -0.283 OA
ATOM     10  C   UNL     1      -0.963   2.236  -0.547  0.00  0.00    +0.237 C 
ENDBRANCH   3  10
BRANCH   1  11
ATOM     11  O   UNL     1       0.992   0.189  -0.677  0.00  0.00    -0.400 OA
BRANCH  11  12
ATOM     12  P   UNL     1       2.206   0.668   0.278  0.00  0.00    +0.528 P 
ATOM     13  O   UNL     1       1.953   1.927   1.056  0.00  0.00    -0.216 OA
BRANCH  12  14
ATOM     14  O   UNL     1       2.557  -0.642   1.159  0.00  0.00    -0.293 OA
ATOM     15  H   UNL     1       2.703  -1.399   0.570  0.00  0.00    +0.223 HD
ENDBRANCH  12  14
BRANCH  12  16
ATOM     16  O   UNL     1       3.453   0.757  -0.751  0.00  0.00    -0.293 OA
ATOM     17  H   UNL     1       3.551  -0.090  -1.213  0.00  0.00    +0.223 HD
ENDBRANCH  12  16
ENDBRANCH  11  12
ENDBRANCH   1  11
TORSDOF 6
