REMARK  Name = 444139
REMARK  4 active torsions:
REMARK  status: ('A' for Active; 'I' for Inactive)
REMARK    1  A    between atoms: C_2  and  N_8
REMARK    2  A    between atoms: C_3  and  O_12
REMARK    3  A    between atoms: C_5  and  O_14
REMARK    4  A    between atoms: C_6  and  O_16
REMARK                            x       y       z     vdW  Elec       q    Type
REMARK                         _______ _______ _______ _____ _____    ______ ____
ROOT
ATOM      1  O   UNL     1      -0.519  -1.498  -0.597  0.00  0.00    -0.333 OA
ATOM      2  C   UNL     1      -0.971   0.858  -0.126  0.00  0.00    -0.008 C 
ATOM      3  C   UNL     1       0.515   1.082   0.198  0.00  0.00    +0.125 C 
ATOM      4  C   UNL     1      -1.377  -0.606   0.130  0.00  0.00    +0.101 C 
ATOM      5  C   UNL     1       1.375   0.021  -0.494  0.00  0.00    +0.192 C 
ATOM      6  C   UNL     1       0.856  -1.391  -0.226  0.00  0.00    +0.262 C 
ATOM      7  C   UNL     1      -2.802  -0.913  -0.325  0.00  0.00    +0.030 C 
ENDROOT
BRANCH   2   8
ATOM      8  N   UNL     1      -1.785   1.782   0.668  0.00  0.00    +0.385 N 
ATOM      9  H   UNL     1      -1.493   2.741   0.477  0.00  0.00    -0.089 HD
ATOM     10  H   UNL     1      -1.660   1.580   1.660  0.00  0.00    -0.089 HD
ATOM     11  H   UNL     1      -2.767   1.670   0.419  0.00  0.00    -0.089 HD
ENDBRANCH   2   8
BRANCH   3  12
ATOM     12  O   UNL     1       0.896   2.372  -0.286  0.00  0.00    -0.384 OA
ATOM     13  H   UNL     1       0.356   3.052   0.147  0.00  0.00    +0.210 HD
ENDBRANCH   3  12
BRANCH   5  14
ATOM     14  O   UNL     1       2.726   0.109  -0.058  0.00  0.00    -0.378 OA
ATOM     15  H   UNL     1       3.063   1.003  -0.225  0.00  0.00    +0.211 HD
ENDBRANCH   5  14
BRANCH   6  16
ATOM     16  O   UNL     1       1.087  -1.817   1.116  0.00  0.00    -0.358 OA
ATOM     17  H   UNL     1       0.741  -2.715   1.234  0.00  0.00    +0.213 HD
ENDBRANCH   6  16
TORSDOF 4
