REMARK  Name = 446195
REMARK  5 active torsions:
REMARK  status: ('A' for Active; 'I' for Inactive)
REMARK    1  A    between atoms: C_4  and  C_7
REMARK    2  A    between atoms: C_5  and  S_13
REMARK    3  A    between atoms: S_13  and  C_14
REMARK    4  A    between atoms: C_14  and  C_16
REMARK    5  A    between atoms: C_16  and  O_17
REMARK                            x       y       z     vdW  Elec       q    Type
REMARK                         _______ _______ _______ _____ _____    ______ ____
ROOT
ATOM      1  O   UNL     1       1.284  -1.273   0.073  0.00  0.00    -0.304 OA
ATOM      2  N   UNL     1       0.099   0.625  -0.025  0.00  0.00    -0.303 NA
ATOM      3  N   UNL     1      -0.063  -1.654   0.086  0.00  0.00    -0.006 NA
ATOM      4  C   UNL     1      -0.698  -0.481   0.025  0.00  0.00    +0.128 C 
ATOM      5  C   UNL     1       1.291   0.084   0.008  0.00  0.00    +0.345 C 
ENDROOT
BRANCH   4   7
ATOM      6 CL   UNL     1      -4.881   2.524  -0.138  0.00  0.00    -0.082 Cl
ATOM      7  C   UNL     1      -2.130  -0.376   0.015  0.00  0.00    +0.078 C 
ATOM      8  C   UNL     1      -2.738   0.877  -0.049  0.00  0.00    +0.023 C 
ATOM      9  C   UNL     1      -2.913  -1.529   0.069  0.00  0.00    +0.011 C 
ATOM     10  C   UNL     1      -4.130   0.978  -0.059  0.00  0.00    +0.058 C 
ATOM     11  C   UNL     1      -4.304  -1.429   0.059  0.00  0.00    +0.002 C 
ATOM     12  C   UNL     1      -4.912  -0.175  -0.005  0.00  0.00    +0.011 C 
ENDBRANCH   4   7
BRANCH   5  13
ATOM     13  S   UNL     1       2.765   1.008  -0.032  0.00  0.00    -0.029 S 
BRANCH  13  14
ATOM     14  C   UNL     1       4.002  -0.316   0.040  0.00  0.00    +0.177 C 
BRANCH  14  16
ATOM     15  O   UNL     1       5.651   1.389   0.468  0.00  0.00    -0.249 OA
ATOM     16  C   UNL     1       5.378   0.284   0.015  0.00  0.00    +0.325 C 
BRANCH  16  17
ATOM     17  O   UNL     1       6.299  -0.537  -0.550  0.00  0.00    -0.480 OA
ATOM     18  H   UNL     1       6.039  -1.373  -0.882  0.00  0.00    +0.295 HD
ENDBRANCH  16  17
ENDBRANCH  14  16
ENDBRANCH  13  14
ENDBRANCH   5  13
TORSDOF 5
