REMARK  Name = 3899541
REMARK  2 active torsions:
REMARK  status: ('A' for Active; 'I' for Inactive)
REMARK    1  A    between atoms: C_9  and  N_17
REMARK    2  A    between atoms: C_10  and  N_20
REMARK                            x       y       z     vdW  Elec       q    Type
REMARK                         _______ _______ _______ _____ _____    ______ ____
ROOT
ATOM      1  O   UNL     1       4.455  -1.324   0.003  0.00  0.00    -0.262 OA
ATOM      2  O   UNL     1       4.455   1.324   0.000  0.00  0.00    -0.262 OA
ATOM      3  N   UNL     1       2.146  -1.386  -0.001  0.00  0.00    -0.316 N 
ATOM      4  N   UNL     1       2.146   1.386  -0.001  0.00  0.00    -0.316 N 
ATOM      5  C   UNL     1       0.928  -0.696  -0.001  0.00  0.00    +0.077 A 
ATOM      6  C   UNL     1       0.928   0.696  -0.001  0.00  0.00    +0.077 A 
ATOM      7  C   UNL     1      -0.277  -1.399   0.000  0.00  0.00    +0.044 C 
ATOM      8  C   UNL     1      -0.277   1.399  -0.001  0.00  0.00    +0.044 C 
ATOM      9  C   UNL     1      -1.484  -0.698   0.000  0.00  0.00    +0.167 C 
ATOM     10  C   UNL     1      -1.484   0.698   0.000  0.00  0.00    +0.167 C 
ATOM     11  C   UNL     1       3.370  -0.755   0.000  0.00  0.00    +0.314 A 
ATOM     12  C   UNL     1       3.370   0.755  -0.001  0.00  0.00    +0.314 A 
ATOM     13  H   UNL     1       2.126  -2.370  -0.001  0.00  0.00    +0.169 HD
ATOM     14  H   UNL     1       2.126   2.370  -0.001  0.00  0.00    +0.169 HD
ENDROOT
BRANCH   9  17
ATOM     15  O   UNL     1      -3.219  -1.749   1.097  0.00  0.00    -0.126 OA
ATOM     16  O   UNL     1      -3.217  -1.750  -1.098  0.00  0.00    -0.126 OA
ATOM     17  N   UNL     1      -2.701  -1.437   0.000  0.00  0.00    +0.059 N 
ENDBRANCH   9  17
BRANCH  10  20
ATOM     18  O   UNL     1      -3.219   1.749  -1.097  0.00  0.00    -0.126 OA
ATOM     19  O   UNL     1      -3.217   1.750   1.098  0.00  0.00    -0.126 OA
ATOM     20  N   UNL     1      -2.701   1.437   0.001  0.00  0.00    +0.059 N 
ENDBRANCH  10  20
TORSDOF 2
