REMARK  Name = 439236
REMARK  8 active torsions:
REMARK  status: ('A' for Active; 'I' for Inactive)
REMARK    1  A    between atoms: C_2  and  O_6
REMARK    2  A    between atoms: C_3  and  O_8
REMARK    3  A    between atoms: C_4  and  C_17
REMARK    4  A    between atoms: C_5  and  O_10
REMARK    5  A    between atoms: O_10  and  P_11
REMARK    6  A    between atoms: P_11  and  O_13
REMARK    7  A    between atoms: P_11  and  O_15
REMARK    8  A    between atoms: C_17  and  O_18
REMARK                            x       y       z     vdW  Elec       q    Type
REMARK                         _______ _______ _______ _____ _____    ______ ____
ROOT
ATOM      1  O   UNL     1      -0.735  -0.937  -0.124  0.00  0.00    -0.326 OA
ATOM      2  C   UNL     1      -1.696   1.191   0.379  0.00  0.00    +0.172 C 
ATOM      3  C   UNL     1      -0.769   1.299  -0.814  0.00  0.00    +0.197 C 
ATOM      4  C   UNL     1      -1.895  -0.320   0.484  0.00  0.00    +0.176 C 
ATOM      5  C   UNL     1       0.131   0.088  -0.636  0.00  0.00    +0.274 C 
ENDROOT
BRANCH   2   6
ATOM      6  O   UNL     1      -1.038   1.664   1.552  0.00  0.00    -0.379 OA
ATOM      7  H   UNL     1      -0.911   2.623   1.487  0.00  0.00    +0.211 HD
ENDBRANCH   2   6
BRANCH   3   8
ATOM      8  O   UNL     1      -0.060   2.515  -0.885  0.00  0.00    -0.378 OA
ATOM      9  H   UNL     1      -0.685   3.248  -0.998  0.00  0.00    +0.211 HD
ENDBRANCH   3   8
BRANCH   5  10
ATOM     10  O   UNL     1       1.179   0.367   0.286  0.00  0.00    -0.245 OA
BRANCH  10  11
ATOM     11  P   UNL     1       2.562  -0.466   0.159  0.00  0.00    +0.475 P 
ATOM     12  O   UNL     1       3.612  -0.109   1.170  0.00  0.00    -0.227 OA
BRANCH  11  13
ATOM     13  O   UNL     1       2.992  -0.263  -1.386  0.00  0.00    -0.303 OA
ATOM     14  H   UNL     1       2.255  -0.517  -1.963  0.00  0.00    +0.222 HD
ENDBRANCH  11  13
BRANCH  11  15
ATOM     15  O   UNL     1       2.063  -2.004   0.207  0.00  0.00    -0.303 OA
ATOM     16  H   UNL     1       1.389  -2.146  -0.476  0.00  0.00    +0.222 HD
ENDBRANCH  11  15
ENDBRANCH  10  11
ENDBRANCH   5  10
BRANCH   4  17
ATOM     17  C   UNL     1      -3.125  -0.808  -0.268  0.00  0.00    +0.169 C 
BRANCH  17  18
ATOM     18  O   UNL     1      -3.221  -2.216  -0.124  0.00  0.00    -0.379 OA
ATOM     19  H   UNL     1      -4.003  -2.537  -0.600  0.00  0.00    +0.211 HD
ENDBRANCH  17  18
ENDBRANCH   4  17
TORSDOF 8
