REMARK  Name = 5288222
REMARK  9 active torsions:
REMARK  status: ('A' for Active; 'I' for Inactive)
REMARK    1  A    between atoms: C_7  and  C_23
REMARK    2  A    between atoms: C_9  and  C_15
REMARK    3  A    between atoms: C_16  and  O_20
REMARK    4  A    between atoms: C_22  and  C_24
REMARK    5  A    between atoms: C_24  and  O_25
REMARK    6  A    between atoms: C_24  and  C_27
REMARK    7  A    between atoms: C_27  and  N_28
REMARK    8  A    between atoms: C_27  and  C_32
REMARK    9  A    between atoms: C_32  and  O_34
REMARK                            x       y       z     vdW  Elec       q    Type
REMARK                         _______ _______ _______ _____ _____    ______ ____
ROOT
ATOM      1  F   UNL     1       2.894   3.236  -0.067  0.00  0.00    -0.204 F 
ATOM      2  O   UNL     1      -3.909   0.942   0.255  0.00  0.00    -0.270 OA
ATOM      3  N   UNL     1      -2.530   2.829   0.585  0.00  0.00    -0.280 N 
ATOM      4  C   UNL     1      -0.479   1.937   0.049  0.00  0.00    +0.028 C 
ATOM      5  C   UNL     1      -1.498   0.903  -0.095  0.00  0.00    +0.057 C 
ATOM      6  C   UNL     1      -1.160   3.086   0.464  0.00  0.00    +0.051 C 
ATOM      7  C   UNL     1       0.888   1.960  -0.138  0.00  0.00    +0.070 C 
ATOM      8  C   UNL     1      -2.828   1.502   0.258  0.00  0.00    +0.250 C 
ATOM      9  C   UNL     1      -1.401  -0.377  -0.465  0.00  0.00    +0.022 C 
ATOM     10  C   UNL     1      -0.514   4.282   0.705  0.00  0.00    +0.017 C 
ATOM     11  C   UNL     1       1.565   3.160   0.100  0.00  0.00    +0.148 C 
ATOM     12  C   UNL     1       0.870   4.311   0.518  0.00  0.00    +0.032 C 
ATOM     13  H   UNL     1      -3.198   3.496   0.865  0.00  0.00    +0.155 HD
ENDROOT
BRANCH   9  15
ATOM     14  N   UNL     1      -3.122  -1.376  -1.767  0.00  0.00    -0.309 N 
ATOM     15  C   UNL     1      -2.508  -1.283  -0.561  0.00  0.00    +0.083 C 
ATOM     16  C   UNL     1      -3.113  -2.112   0.328  0.00  0.00    +0.153 C 
ATOM     17  C   UNL     1      -4.163  -2.755  -0.372  0.00  0.00    +0.054 C 
ATOM     18  C   UNL     1      -4.145  -2.282  -1.666  0.00  0.00    +0.065 C 
ATOM     19  H   UNL     1      -2.873  -0.877  -2.579  0.00  0.00    +0.152 HD
BRANCH  16  20
ATOM     20  O   UNL     1      -2.768  -2.275   1.614  0.00  0.00    -0.470 OA
ATOM     21  C   UNL     1      -1.802  -3.291   1.924  0.00  0.00    +0.253 C 
ENDBRANCH  16  20
ENDBRANCH   9  15
BRANCH   7  23
ATOM     22  C   UNL     1       2.266  -0.142  -0.918  0.00  0.00    -0.060 C 
ATOM     23  C   UNL     1       1.634   0.815  -0.561  0.00  0.00    -0.060 C 
BRANCH  22  24
ATOM     24  C   UNL     1       3.037  -1.317  -1.355  0.00  0.00    +0.157 C 
BRANCH  24  25
ATOM     25  O   UNL     1       3.733  -0.996  -2.556  0.00  0.00    -0.374 OA
ATOM     26  H   UNL     1       4.243  -1.767  -2.850  0.00  0.00    +0.211 HD
ENDBRANCH  24  25
BRANCH  24  27
ATOM     27  C   UNL     1       4.019  -1.817  -0.265  0.00  0.00    +0.002 C 
BRANCH  27  28
ATOM     28  N   UNL     1       5.007  -0.754  -0.028  0.00  0.00    +0.386 N 
ATOM     29  H   UNL     1       5.667  -1.058   0.688  0.00  0.00    -0.089 HD
ATOM     30  H   UNL     1       4.529   0.090   0.288  0.00  0.00    -0.089 HD
ATOM     31  H   UNL     1       5.509  -0.558  -0.893  0.00  0.00    -0.089 HD
ENDBRANCH  27  28
BRANCH  27  32
ATOM     32  C   UNL     1       3.345  -2.207   1.075  0.00  0.00    +0.094 C 
ATOM     33  C   UNL     1       2.338  -3.348   0.936  0.00  0.00    +0.030 C 
BRANCH  32  34
ATOM     34  O   UNL     1       4.345  -2.630   2.002  0.00  0.00    -0.386 OA
ATOM     35  H   UNL     1       5.002  -1.925   2.113  0.00  0.00    +0.210 HD
ENDBRANCH  32  34
ENDBRANCH  27  32
ENDBRANCH  24  27
ENDBRANCH  22  24
ENDBRANCH   7  23
TORSDOF 9
