REMARK  Name = 4469805
REMARK  4 active torsions:
REMARK  status: ('A' for Active; 'I' for Inactive)
REMARK    1  A    between atoms: C_4  and  C_16
REMARK    2  A    between atoms: C_12  and  O_14
REMARK    3  A    between atoms: C_16  and  O_17
REMARK    4  A    between atoms: O_17  and  C_18
REMARK                            x       y       z     vdW  Elec       q    Type
REMARK                         _______ _______ _______ _____ _____    ______ ____
ROOT
ATOM      1  O   UNL     1       0.314  -2.014  -0.766  0.00  0.00    -0.283 OA
ATOM      2  O   UNL     1       4.663   0.908   0.555  0.00  0.00    -0.285 OA
ATOM      3  N   UNL     1       1.986   2.163   0.099  0.00  0.00    -0.326 N 
ATOM      4  C   UNL     1       0.157   1.017  -0.447  0.00  0.00    +0.038 A 
ATOM      5  C   UNL     1       1.236   0.109  -0.310  0.00  0.00    +0.062 A 
ATOM      6  C   UNL     1       2.353   0.845   0.027  0.00  0.00    +0.102 A 
ATOM      7  C   UNL     1       0.650   2.279  -0.188  0.00  0.00    +0.037 A 
ATOM      8  C   UNL     1       1.283  -1.327  -0.468  0.00  0.00    +0.231 C 
ATOM      9  C   UNL     1       3.653   0.280   0.253  0.00  0.00    +0.215 C 
ATOM     10  C   UNL     1      -0.040   3.587  -0.188  0.00  0.00    +0.050 C 
ATOM     11  C   UNL     1       2.862   3.268   0.426  0.00  0.00    +0.130 C 
ATOM     12  C   UNL     1       2.639  -1.931  -0.233  0.00  0.00    +0.181 C 
ATOM     13  C   UNL     1       3.719  -1.203   0.095  0.00  0.00    +0.084 C 
ENDROOT
BRANCH  12  14
ATOM     14  O   UNL     1       2.751  -3.303  -0.367  0.00  0.00    -0.468 OA
ATOM     15  C   UNL     1       2.502  -3.946   0.866  0.00  0.00    +0.253 C 
ENDBRANCH  12  14
BRANCH   4  16
ATOM     16  C   UNL     1      -1.239   0.686  -0.799  0.00  0.00    +0.233 C 
BRANCH  16  17
ATOM     17  O   UNL     1      -1.946   0.435   0.414  0.00  0.00    -0.471 OA
BRANCH  17  18
ATOM     18  C   UNL     1      -3.258   0.066   0.294  0.00  0.00    +0.139 C 
ATOM     19  C   UNL     1      -3.831  -0.046  -0.969  0.00  0.00    +0.037 C 
ATOM     20  C   UNL     1      -4.010  -0.195   1.435  0.00  0.00    +0.037 C 
ATOM     21  C   UNL     1      -5.168  -0.422  -1.092  0.00  0.00    +0.003 C 
ATOM     22  C   UNL     1      -5.347  -0.571   1.313  0.00  0.00    +0.003 C 
ATOM     23  C   UNL     1      -5.926  -0.684   0.049  0.00  0.00    +0.000 C 
ENDBRANCH  17  18
ENDBRANCH  16  17
ENDBRANCH   4  16
TORSDOF 4
