REMARK  Name = 448749
REMARK  2 active torsions:
REMARK  status: ('A' for Active; 'I' for Inactive)
REMARK    1  A    between atoms: C_2  and  C_8
REMARK    2  A    between atoms: C_8  and  N_9
REMARK                            x       y       z     vdW  Elec       q    Type
REMARK                         _______ _______ _______ _____ _____    ______ ____
ROOT
ATOM      1  F   UNL     1       3.130   0.000   0.269  0.00  0.00    -0.204 F 
ATOM      2  C   UNL     1      -0.963   0.000  -0.283  0.00  0.00    -0.044 C 
ATOM      3  C   UNL     1      -0.271  -1.208  -0.190  0.00  0.00    -0.004 C 
ATOM      4  C   UNL     1      -0.271   1.208  -0.190  0.00  0.00    -0.004 C 
ATOM      5  C   UNL     1       1.111  -1.208  -0.004  0.00  0.00    +0.029 C 
ATOM      6  C   UNL     1       1.111   1.208  -0.004  0.00  0.00    +0.029 C 
ATOM      7  C   UNL     1       1.802   0.000   0.089  0.00  0.00    +0.140 C 
ENDROOT
BRANCH   2   8
ATOM      8  C   UNL     1      -2.440   0.000  -0.482  0.00  0.00    -0.059 C 
BRANCH   8   9
ATOM      9  N   UNL     1      -3.209   0.000   0.793  0.00  0.00    +0.383 N 
ATOM     10  H   UNL     1      -4.208   0.000   0.588  0.00  0.00    -0.089 HD
ATOM     11  H   UNL     1      -2.972   0.833   1.333  0.00  0.00    -0.089 HD
ATOM     12  H   UNL     1      -2.972  -0.833   1.333  0.00  0.00    -0.089 HD
ENDBRANCH   8   9
ENDBRANCH   2   8
TORSDOF 2
