REMARK  Name = 73271
REMARK  3 active torsions:
REMARK  status: ('A' for Active; 'I' for Inactive)
REMARK    1  A    between atoms: C_5  and  C_11
REMARK    2  A    between atoms: C_11  and  C_13
REMARK    3  A    between atoms: C_13  and  O_14
REMARK                            x       y       z     vdW  Elec       q    Type
REMARK                         _______ _______ _______ _____ _____    ______ ____
ROOT
ATOM      1  O   UNL     1       2.166   2.370   0.202  0.00  0.00    -0.252 OA
ATOM      2  O   UNL     1       2.398  -2.243   0.226  0.00  0.00    -0.270 OA
ATOM      3  N   UNL     1       0.306   1.136  -0.355  0.00  0.00    -0.271 N 
ATOM      4  N   UNL     1       2.308   0.068   0.221  0.00  0.00    -0.236 N 
ATOM      5  C   UNL     1      -0.310  -0.078  -0.547  0.00  0.00    +0.045 C 
ATOM      6  C   UNL     1       0.352  -1.228  -0.364  0.00  0.00    +0.069 C 
ATOM      7  C   UNL     1       1.630   1.274   0.034  0.00  0.00    +0.310 C 
ATOM      8  C   UNL     1       1.774  -1.200   0.053  0.00  0.00    +0.254 C 
ATOM      9  H   UNL     1      -0.222   1.953  -0.502  0.00  0.00    +0.156 HD
ATOM     10  H   UNL     1       3.251   0.124   0.498  0.00  0.00    +0.159 HD
ENDROOT
BRANCH   5  11
ATOM     11  C   UNL     1      -1.746  -0.029  -0.968  0.00  0.00    +0.151 C 
BRANCH  11  13
ATOM     12  O   UNL     1      -2.297  -0.053   1.413  0.00  0.00    -0.250 OA
ATOM     13  C   UNL     1      -2.642  -0.025   0.242  0.00  0.00    +0.320 C 
BRANCH  13  14
ATOM     14  O   UNL     1      -3.941   0.010  -0.158  0.00  0.00    -0.480 OA
ATOM     15  H   UNL     1      -4.149   0.030  -1.071  0.00  0.00    +0.295 HD
ENDBRANCH  13  14
ENDBRANCH  11  13
ENDBRANCH   5  11
TORSDOF 3
