REMARK  Name = 7248
REMARK  1 active torsions:
REMARK  status: ('A' for Active; 'I' for Inactive)
REMARK    1  A    between atoms: C_5  and  N_9
REMARK                            x       y       z     vdW  Elec       q    Type
REMARK                         _______ _______ _______ _____ _____    ______ ____
ROOT
ATOM      1  C   UNL     1      -0.730  -0.785   0.000  0.00  0.00    -0.025 C 
ATOM      2  C   UNL     1      -1.131   0.551   0.000  0.00  0.00    -0.026 C 
ATOM      3  C   UNL     1       0.628  -1.105   0.000  0.00  0.00    +0.010 C 
ATOM      4  C   UNL     1      -0.175   1.567   0.000  0.00  0.00    -0.003 C 
ATOM      5  C   UNL     1       1.584  -0.090   0.000  0.00  0.00    +0.041 C 
ATOM      6  C   UNL     1       1.183   1.246   0.000  0.00  0.00    +0.014 C 
ATOM      7  C   UNL     1      -1.736  -1.889   0.000  0.00  0.00    +0.031 C 
ATOM      8  C   UNL     1      -2.579   0.919   0.000  0.00  0.00    +0.031 C 
ENDROOT
BRANCH   5   9
ATOM      9  N   UNL     1       2.956  -0.413   0.000  0.00  0.00    -0.357 N 
ATOM     10  H   UNL     1       3.240  -1.356   0.000  0.00  0.00    +0.142 HD
ATOM     11  H   UNL     1       3.631   0.303   0.000  0.00  0.00    +0.142 HD
ENDBRANCH   5   9
TORSDOF 1
