REMARK  Name = 5287668
REMARK  5 active torsions:
REMARK  status: ('A' for Active; 'I' for Inactive)
REMARK    1  A    between atoms: C_3  and  C_15
REMARK    2  A    between atoms: C_6  and  O_9
REMARK    3  A    between atoms: C_7  and  O_11
REMARK    4  A    between atoms: C_8  and  N_13
REMARK    5  A    between atoms: C_15  and  O_16
REMARK                            x       y       z     vdW  Elec       q    Type
REMARK                         _______ _______ _______ _____ _____    ______ ____
ROOT
ATOM      1  O   UNL     1       1.283  -0.840  -0.637  0.00  0.00    -0.448 OA
ATOM      2  N   UNL     1       1.320   1.432  -0.270  0.00  0.00    -0.216 NA
ATOM      3  C   UNL     1      -1.014  -0.868   0.185  0.00  0.00    +0.101 C 
ATOM      4  C   UNL     1      -0.041  -0.417  -0.908  0.00  0.00    +0.199 C 
ATOM      5  C   UNL     1      -0.002   1.109  -0.829  0.00  0.00    +0.177 C 
ATOM      6  C   UNL     1      -2.015   0.285   0.233  0.00  0.00    +0.145 C 
ATOM      7  C   UNL     1      -1.116   1.517   0.139  0.00  0.00    +0.163 C 
ATOM      8  C   UNL     1       1.925   0.289  -0.241  0.00  0.00    +0.316 C 
ENDROOT
BRANCH   6   9
ATOM      9  O   UNL     1      -2.764   0.282   1.437  0.00  0.00    -0.382 OA
ATOM     10  H   UNL     1      -3.323  -0.510   1.468  0.00  0.00    +0.210 HD
ENDBRANCH   6   9
BRANCH   7  11
ATOM     11  O   UNL     1      -1.838   2.636  -0.352  0.00  0.00    -0.380 OA
ATOM     12  H   UNL     1      -1.248   3.404  -0.403  0.00  0.00    +0.211 HD
ENDBRANCH   7  11
BRANCH   8  13
ATOM     13  N   UNL     1       3.205   0.111   0.175  0.00  0.00    -0.191 NA
ATOM     14  C   UNL     1       3.364  -0.137   1.432  0.00  0.00    +0.124 C 
ENDBRANCH   8  13
BRANCH   3  15
ATOM     15  C   UNL     1      -1.663  -2.211  -0.118  0.00  0.00    +0.143 C 
BRANCH  15  16
ATOM     16  O   UNL     1      -0.645  -3.188  -0.246  0.00  0.00    -0.382 OA
ATOM     17  H   UNL     1      -1.047  -4.050  -0.439  0.00  0.00    +0.210 HD
ENDBRANCH  15  16
ENDBRANCH   3  15
TORSDOF 5
