REMARK  Name = 448010
REMARK  1 active torsions:
REMARK  status: ('A' for Active; 'I' for Inactive)
REMARK    1  A    between atoms: C_9  and  N_16
REMARK                            x       y       z     vdW  Elec       q    Type
REMARK                         _______ _______ _______ _____ _____    ______ ____
ROOT
ATOM      1  O   UNL     1      -0.745  -2.606   0.000  0.00  0.00    -0.209 OA
ATOM      2  N   UNL     1      -1.393   1.348   0.001  0.00  0.00    -0.275 N 
ATOM      3  N   UNL     1      -2.246  -0.875   0.000  0.00  0.00    -0.302 NA
ATOM      4  N   UNL     1      -3.659   0.995  -0.002  0.00  0.00    -0.320 N 
ATOM      5  C   UNL     1      -0.066   0.912   0.001  0.00  0.00    +0.063 C 
ATOM      6  C   UNL     1       0.194  -0.464   0.000  0.00  0.00    +0.109 C 
ATOM      7  C   UNL     1       1.507  -0.942   0.000  0.00  0.00    +0.028 C 
ATOM      8  C   UNL     1       1.004   1.811   0.000  0.00  0.00    +0.017 C 
ATOM      9  C   UNL     1       2.567  -0.035   0.000  0.00  0.00    +0.042 C 
ATOM     10  C   UNL     1       2.317   1.337   0.000  0.00  0.00    +0.015 C 
ATOM     11  C   UNL     1      -0.966  -1.399   0.000  0.00  0.00    +0.208 C 
ATOM     12  C   UNL     1      -2.412   0.422   0.000  0.00  0.00    +0.248 C 
ATOM     13  H   UNL     1      -1.598   2.311   0.001  0.00  0.00    +0.156 HD
ATOM     14  H   UNL     1      -3.750   1.976  -0.001  0.00  0.00    +0.146 HD
ATOM     15  H   UNL     1      -4.462   0.426  -0.003  0.00  0.00    +0.146 HD
ENDROOT
BRANCH   9  16
ATOM     16  N   UNL     1       3.897  -0.507  -0.001  0.00  0.00    -0.357 N 
ATOM     17  H   UNL     1       4.076  -1.475  -0.001  0.00  0.00    +0.142 HD
ATOM     18  H   UNL     1       4.646   0.132   0.000  0.00  0.00    +0.142 HD
ENDBRANCH   9  16
TORSDOF 1
