REMARK  Name = 70807
REMARK  4 active torsions:
REMARK  status: ('A' for Active; 'I' for Inactive)
REMARK    1  A    between atoms: N_2  and  C_8
REMARK    2  A    between atoms: C_8  and  C_9
REMARK    3  A    between atoms: C_9  and  C_10
REMARK    4  A    between atoms: C_10  and  S_11
REMARK                            x       y       z     vdW  Elec       q    Type
REMARK                         _______ _______ _______ _____ _____    ______ ____
ROOT
ATOM      1  O   UNL     1       4.244  -0.645  -0.177  0.00  0.00    -0.358 OA
ATOM      2  N   UNL     1       1.635   0.431   0.197  0.00  0.00    +0.390 N 
ATOM      3  C   UNL     1       1.839  -0.915  -0.356  0.00  0.00    -0.045 C 
ATOM      4  C   UNL     1       2.781   1.290  -0.133  0.00  0.00    -0.045 C 
ATOM      5  C   UNL     1       3.150  -1.496   0.168  0.00  0.00    +0.119 C 
ATOM      6  C   UNL     1       4.070   0.657   0.384  0.00  0.00    +0.119 C 
ATOM      7  H   UNL     1       1.564   0.360   1.212  0.00  0.00    -0.079 HD
ENDROOT
BRANCH   2   8
ATOM      8  C   UNL     1       0.390   1.013  -0.300  0.00  0.00    -0.075 C 
BRANCH   8   9
ATOM      9  C   UNL     1      -0.801   0.157   0.124  0.00  0.00    +0.003 C 
BRANCH   9  10
ATOM     10  C   UNL     1      -2.109   0.752  -0.376  0.00  0.00    +0.156 C 
BRANCH  10  11
ATOM     11  S   UNL     1      -3.489  -0.245   0.090  0.00  0.00    +0.022 S 
ATOM     12  O   UNL     1      -4.663   0.768  -0.414  0.00  0.00    -0.069 OA
ATOM     13  O   UNL     1      -3.538  -0.333   1.538  0.00  0.00    -0.069 OA
ATOM     14  O   UNL     1      -3.510  -1.434  -0.744  0.00  0.00    -0.069 OA
ENDBRANCH  10  11
ENDBRANCH   9  10
ENDBRANCH   8   9
ENDBRANCH   2   8
TORSDOF 4
