REMARK  Name = 6950479
REMARK  3 active torsions:
REMARK  status: ('A' for Active; 'I' for Inactive)
REMARK    1  A    between atoms: C_1  and  C_4
REMARK    2  A    between atoms: C_1  and  C_7
REMARK    3  A    between atoms: C_4  and  O_5
REMARK                            x       y       z     vdW  Elec       q    Type
REMARK                         _______ _______ _______ _____ _____    ______ ____
ROOT
ATOM      1  C   UNL     1       0.238  -0.596  -0.433  0.00  0.00    +0.099 C 
ATOM      2  C   UNL     1      -0.100  -2.056  -0.140  0.00  0.00    +0.012 C 
ENDROOT
BRANCH   1   4
ATOM      3  O   UNL     1      -1.276   0.346   1.229  0.00  0.00    -0.250 OA
ATOM      4  C   UNL     1      -0.906   0.273   0.064  0.00  0.00    +0.313 C 
BRANCH   4   5
ATOM      5  O   UNL     1      -1.472   0.996  -0.936  0.00  0.00    -0.480 OA
ATOM      6  H   UNL     1      -1.157   0.909  -1.814  0.00  0.00    +0.295 HD
ENDBRANCH   4   5
ENDBRANCH   1   4
BRANCH   1   7
ATOM      7  C   UNL     1       1.574  -0.212   0.224  0.00  0.00    +0.011 C 
ATOM      8  C   UNL     1       1.942   1.248  -0.008  0.00  0.00    +0.001 C 
ENDBRANCH   1   7
TORSDOF 3
