REMARK  Name = 1135
REMARK  0 active torsions:
REMARK  status: ('A' for Active; 'I' for Inactive)
REMARK                            x       y       z     vdW  Elec       q    Type
REMARK                         _______ _______ _______ _____ _____    ______ ____
ROOT
ATOM      1  O   UNL     1      -1.519   1.807  -0.001  0.00  0.00    -0.270 OA
ATOM      2  O   UNL     1       2.839   0.291  -0.001  0.00  0.00    -0.252 OA
ATOM      3  N   UNL     1       0.664   1.062   0.001  0.00  0.00    -0.236 N 
ATOM      4  N   UNL     1       1.115  -1.232   0.000  0.00  0.00    -0.267 N 
ATOM      5  C   UNL     1      -1.161  -0.543   0.000  0.00  0.00    +0.047 C 
ATOM      6  C   UNL     1      -0.713   0.880   0.000  0.00  0.00    +0.250 C 
ATOM      7  C   UNL     1      -0.226  -1.501   0.000  0.00  0.00    +0.065 C 
ATOM      8  C   UNL     1      -2.630  -0.819   0.000  0.00  0.00    +0.037 C 
ATOM      9  C   UNL     1       1.631   0.054   0.000  0.00  0.00    +0.310 C 
ATOM     10  H   UNL     1       0.990   1.991   0.002  0.00  0.00    +0.159 HD
ATOM     11  H   UNL     1       1.744  -1.989  -0.001  0.00  0.00    +0.156 HD
ENDROOT
TORSDOF 0
