REMARK  Name = 445993
REMARK  5 active torsions:
REMARK  status: ('A' for Active; 'I' for Inactive)
REMARK    1  A    between atoms: CB_1  and  CG_2
REMARK    2  A    between atoms: CB_1  and  CA_10
REMARK    3  A    between atoms: CZ_7  and  OH_8
REMARK    4  A    between atoms: CA_10  and  N_11
REMARK    5  A    between atoms: CA_10  and  C_16
REMARK                            x       y       z     vdW  Elec       q    Type
REMARK                         _______ _______ _______ _____ _____    ______ ____
ROOT
ATOM      1  CB  TYR A   1       1.224   0.730  -0.808  0.00  0.00    +0.012 C 
ENDROOT
BRANCH   1   2
ATOM      2  CG  TYR A   1      -0.189   0.400  -0.464  0.00  0.00    -0.024 C 
ATOM      3  CD1 TYR A   1      -0.681  -0.884  -0.696  0.00  0.00    -0.001 C 
ATOM      4  CD2 TYR A   1      -1.018   1.375   0.091  0.00  0.00    -0.001 C 
ATOM      5  CE1 TYR A   1      -2.003  -1.193  -0.374  0.00  0.00    +0.036 C 
ATOM      6  CE2 TYR A   1      -2.340   1.066   0.413  0.00  0.00    +0.036 C 
ATOM      7  CZ  TYR A   1      -2.832  -0.218   0.181  0.00  0.00    +0.134 C 
BRANCH   7   8
ATOM      8  OH  TYR A   1      -4.122  -0.520   0.495  0.00  0.00    -0.506 OA
ATOM      9  HH  TYR A   1      -4.452  -1.383   0.338  0.00  0.00    +0.292 HD
ENDBRANCH   7   8
ENDBRANCH   1   2
BRANCH   1  10
ATOM     10  CA  TYR A   1       2.225   0.480   0.339  0.00  0.00    +0.005 C 
BRANCH  10  11
ATOM     11  N   TYR A   1       3.462   1.223   0.106  0.00  0.00    +0.387 N 
ATOM     12  H1  TYR A   1       3.252   2.219   0.039  0.00  0.00    -0.089 HD
ATOM     13  H2  TYR A   1       3.890   0.907  -0.764  0.00  0.00    -0.089 HD
ATOM     14  H3  TYR A   1       4.106   1.063   0.880  0.00  0.00    -0.089 HD
ENDBRANCH  10  11
BRANCH  10  16
ATOM     15  O   TYR A   1       3.699  -1.465   0.285  0.00  0.00    -0.291 OA
ATOM     16  C   TYR A   1       2.576  -0.994   0.432  0.00  0.00    +0.185 C 
ENDBRANCH  10  16
ENDBRANCH   1  10
TORSDOF 5
