REMARK  Name = 5287900
REMARK  2 active torsions:
REMARK  status: ('A' for Active; 'I' for Inactive)
REMARK    1  A    between atoms: C_2  and  O_8
REMARK    2  A    between atoms: C_6  and  O_10
REMARK                            x       y       z     vdW  Elec       q    Type
REMARK                         _______ _______ _______ _____ _____    ______ ____
ROOT
ATOM      1  O   UNL     1       0.619   1.072   0.112  0.00  0.00    -0.331 OA
ATOM      2  C   UNL     1      -1.196  -0.536   0.304  0.00  0.00    +0.138 C 
ATOM      3  C   UNL     1      -0.727   0.798  -0.293  0.00  0.00    +0.144 C 
ATOM      4  C   UNL     1      -0.233  -1.660  -0.074  0.00  0.00    +0.037 C 
ATOM      5  C   UNL     1       1.202  -1.273   0.252  0.00  0.00    +0.064 C 
ATOM      6  C   UNL     1       1.543   0.087  -0.350  0.00  0.00    +0.232 C 
ATOM      7  C   UNL     1      -1.586   1.970   0.169  0.00  0.00    +0.035 C 
ENDROOT
BRANCH   2   8
ATOM      8  O   UNL     1      -2.491  -0.881  -0.171  0.00  0.00    -0.382 OA
ATOM      9  H   UNL     1      -3.118  -0.178   0.060  0.00  0.00    +0.210 HD
ENDBRANCH   2   8
BRANCH   6  10
ATOM     10  O   UNL     1       2.868   0.423   0.050  0.00  0.00    -0.360 OA
ATOM     11  H   UNL     1       3.109   1.286  -0.321  0.00  0.00    +0.213 HD
ENDBRANCH   6  10
TORSDOF 2
