REMARK  Name = 7532
REMARK  2 active torsions:
REMARK  status: ('A' for Active; 'I' for Inactive)
REMARK    1  A    between atoms: C_1  and  C_7
REMARK    2  A    between atoms: C_7  and  S_8
REMARK                            x       y       z     vdW  Elec       q    Type
REMARK                         _______ _______ _______ _____ _____    ______ ____
ROOT
ATOM      1  C   UNL     1      -0.454  -0.005   0.554  0.00  0.00    +0.002 C 
ATOM      2  C   UNL     1      -1.113  -1.211   0.312  0.00  0.00    -0.003 C 
ATOM      3  C   UNL     1      -1.105   1.205   0.316  0.00  0.00    -0.003 C 
ATOM      4  C   UNL     1      -2.422  -1.206  -0.169  0.00  0.00    -0.000 C 
ATOM      5  C   UNL     1      -2.414   1.210  -0.166  0.00  0.00    -0.000 C 
ATOM      6  C   UNL     1      -3.072   0.004  -0.408  0.00  0.00    -0.000 C 
ENDROOT
BRANCH   1   7
ATOM      7  C   UNL     1       0.946  -0.011   1.069  0.00  0.00    +0.184 C 
BRANCH   7   8
ATOM      8  S   UNL     1       2.115  -0.013  -0.253  0.00  0.00    +0.027 S 
ATOM      9  O   UNL     1       3.458   0.184   0.652  0.00  0.00    -0.069 OA
ATOM     10  O   UNL     1       1.917   1.178  -1.059  0.00  0.00    -0.069 OA
ATOM     11  O   UNL     1       2.145  -1.336  -0.849  0.00  0.00    -0.069 OA
ENDBRANCH   7   8
ENDBRANCH   1   7
TORSDOF 2
