REMARK  Name = 6313595
REMARK  7 active torsions:
REMARK  status: ('A' for Active; 'I' for Inactive)
REMARK    1  A    between atoms: C_1  and  N_3
REMARK    2  A    between atoms: C_1  and  P_12
REMARK    3  A    between atoms: C_1  and  P_17
REMARK    4  A    between atoms: N_3  and  C_5
REMARK    5  A    between atoms: P_12  and  O_15
REMARK    6  A    between atoms: P_17  and  O_19
REMARK    7  A    between atoms: P_17  and  O_21
REMARK                            x       y       z     vdW  Elec       q    Type
REMARK                         _______ _______ _______ _____ _____    ______ ____
ROOT
ATOM      1  C   UNL     1       1.349   0.044   0.403  0.00  0.00    +0.267 C 
ENDROOT
BRANCH   1   2
ATOM      2  P   UNL     1       2.701   1.302   0.203  0.00  0.00    +0.392 P 
ATOM      3  O   UNL     1       2.193   2.627   0.724  0.00  0.00    -0.138 OA
ATOM      4  O   UNL     1       3.236   1.151  -1.203  0.00  0.00    -0.254 OA
BRANCH   2   5
ATOM      5  O   UNL     1       3.785   0.682   1.254  0.00  0.00    -0.321 OA
ATOM      6  H   UNL     1       4.578   1.241   1.269  0.00  0.00    +0.220 HD
ENDBRANCH   2   5
ENDBRANCH   1   2
BRANCH   1   7
ATOM      7  N   UNL     1       0.275   0.599  -0.397  0.00  0.00    -0.261 NA
ATOM      8  H   UNL     1       0.535   1.163  -1.160  0.00  0.00    +0.126 HD
BRANCH   7  11
ATOM      9 CL   UNL     1      -5.515  -0.054   0.319  0.00  0.00    -0.081 Cl
ATOM     10  N   UNL     1      -1.962   1.090  -0.954  0.00  0.00    -0.317 N 
ATOM     11  C   UNL     1      -1.081   0.412  -0.192  0.00  0.00    +0.152 C 
ATOM     12  C   UNL     1      -1.567  -0.461   0.784  0.00  0.00    +0.011 C 
ATOM     13  C   UNL     1      -3.290   0.967  -0.819  0.00  0.00    +0.071 C 
ATOM     14  C   UNL     1      -2.941  -0.609   0.946  0.00  0.00    +0.011 C 
ATOM     15  C   UNL     1      -3.816   0.111   0.138  0.00  0.00    +0.072 C 
ATOM     16  H   UNL     1      -1.615   1.704  -1.641  0.00  0.00    +0.148 HD
ENDBRANCH   7  11
ENDBRANCH   1   7
BRANCH   1  17
ATOM     17  P   UNL     1       1.506  -1.657  -0.167  0.00  0.00    +0.363 P 
ATOM     18  O   UNL     1       0.274  -2.496   0.002  0.00  0.00    -0.256 OA
BRANCH  17  19
ATOM     19  O   UNL     1       2.049  -1.524  -1.683  0.00  0.00    -0.322 OA
ATOM     20  H   UNL     1       2.162  -2.408  -2.065  0.00  0.00    +0.220 HD
ENDBRANCH  17  19
BRANCH  17  21
ATOM     21  O   UNL     1       2.803  -2.186   0.641  0.00  0.00    -0.322 OA
ATOM     22  H   UNL     1       2.978  -3.109   0.402  0.00  0.00    +0.220 HD
ENDBRANCH  17  21
ENDBRANCH   1  17
TORSDOF 7
