REMARK  Name = 448769
REMARK  5 active torsions:
REMARK  status: ('A' for Active; 'I' for Inactive)
REMARK    1  A    between atoms: N_1  and  C_14
REMARK    2  A    between atoms: C_14  and  C_15
REMARK    3  A    between atoms: C_15  and  C_16
REMARK    4  A    between atoms: C_16  and  C_18
REMARK    5  A    between atoms: C_18  and  O_19
REMARK                            x       y       z     vdW  Elec       q    Type
REMARK                         _______ _______ _______ _____ _____    ______ ____
ROOT
ATOM      1  N   UNL     1       0.186  -0.013   0.625  0.00  0.00    -0.327 N 
ATOM      2  C   UNL     1       0.930  -1.131   0.328  0.00  0.00    +0.060 A 
ATOM      3  C   UNL     1       0.887   1.132   0.333  0.00  0.00    +0.060 A 
ATOM      4  C   UNL     1       2.155  -0.691  -0.174  0.00  0.00    +0.017 A 
ATOM      5  C   UNL     1       2.128   0.740  -0.171  0.00  0.00    +0.017 A 
ATOM      6  C   UNL     1       0.611  -2.487   0.464  0.00  0.00    +0.017 C 
ATOM      7  C   UNL     1       0.518   2.475   0.476  0.00  0.00    +0.017 C 
ATOM      8  C   UNL     1       3.111  -1.653  -0.558  0.00  0.00    +0.001 C 
ATOM      9  C   UNL     1       3.048   1.740  -0.551  0.00  0.00    +0.001 C 
ATOM     10  C   UNL     1       1.575  -3.421   0.076  0.00  0.00    +0.001 C 
ATOM     11  C   UNL     1       1.446   3.447   0.091  0.00  0.00    +0.001 C 
ATOM     12  C   UNL     1       2.807  -3.013  -0.428  0.00  0.00    +0.000 C 
ATOM     13  C   UNL     1       2.693   3.087  -0.415  0.00  0.00    +0.000 C 
ENDROOT
BRANCH   1  14
ATOM     14  C   UNL     1      -1.156  -0.040   1.174  0.00  0.00    +0.107 C 
BRANCH  14  15
ATOM     15  C   UNL     1      -2.223  -0.058   0.077  0.00  0.00    +0.036 C 
BRANCH  15  16
ATOM     16  C   UNL     1      -3.637  -0.078   0.647  0.00  0.00    +0.111 C 
BRANCH  16  18
ATOM     17  O   UNL     1      -4.441  -0.029  -1.631  0.00  0.00    -0.250 OA
ATOM     18  C   UNL     1      -4.690  -0.029  -0.432  0.00  0.00    +0.314 C 
BRANCH  18  19
ATOM     19  O   UNL     1      -5.949   0.023   0.070  0.00  0.00    -0.480 OA
ATOM     20  H   UNL     1      -6.084   0.021   0.997  0.00  0.00    +0.295 HD
ENDBRANCH  18  19
ENDBRANCH  16  18
ENDBRANCH  15  16
ENDBRANCH  14  15
ENDBRANCH   1  14
TORSDOF 5
