REMARK  Name = 5289529
REMARK  4 active torsions:
REMARK  status: ('A' for Active; 'I' for Inactive)
REMARK    1  A    between atoms: C_1  and  C_19
REMARK    2  A    between atoms: C_4  and  O_26
REMARK    3  A    between atoms: C_9  and  C_13
REMARK    4  A    between atoms: N_17  and  S_22
REMARK                            x       y       z     vdW  Elec       q    Type
REMARK                         _______ _______ _______ _____ _____    ______ ____
ROOT
ATOM      1  C   UNL     1      -0.272  -1.193  -0.167  0.00  0.00    +0.037 C 
ATOM      2  C   UNL     1      -1.490  -0.510  -0.015  0.00  0.00    +0.003 C 
ATOM      3  C   UNL     1      -2.664  -1.245   0.271  0.00  0.00    +0.000 C 
ATOM      4  C   UNL     1      -0.214  -2.581  -0.039  0.00  0.00    +0.139 C 
ATOM      5  C   UNL     1      -1.567   0.887  -0.140  0.00  0.00    +0.003 C 
ATOM      6  C   UNL     1      -2.587  -2.642   0.395  0.00  0.00    +0.003 C 
ATOM      7  C   UNL     1      -1.369  -3.304   0.241  0.00  0.00    +0.037 C 
ATOM      8  C   UNL     1      -3.882  -0.562   0.423  0.00  0.00    +0.000 C 
ATOM      9  C   UNL     1      -2.785   1.549   0.015  0.00  0.00    +0.031 C 
ATOM     10  C   UNL     1      -3.941   0.826   0.296  0.00  0.00    +0.003 C 
ENDROOT
BRANCH   9  13
ATOM     11  N   UNL     1      -4.051   3.685   0.035  0.00  0.00    -0.343 N 
ATOM     12  N   UNL     1      -1.753   3.682  -0.386  0.00  0.00    -0.285 NA
ATOM     13  C   UNL     1      -2.849   2.996  -0.116  0.00  0.00    +0.117 C 
ATOM     14  H   UNL     1      -4.072   4.665  -0.057  0.00  0.00    +0.144 HD
ATOM     15  H   UNL     1      -4.880   3.191   0.234  0.00  0.00    +0.144 HD
ATOM     16  H   UNL     1      -1.794   4.661  -0.475  0.00  0.00    +0.188 HD
ENDBRANCH   9  13
BRANCH   1  19
ATOM     17  N   UNL     1       2.828   0.573  -0.180  0.00  0.00    -0.091 N 
ATOM     18  N   UNL     1       2.701   0.505  -1.516  0.00  0.00    -0.156 NA
ATOM     19  C   UNL     1       0.958  -0.492  -0.459  0.00  0.00    +0.042 C 
ATOM     20  C   UNL     1       1.802  -0.015   0.502  0.00  0.00    +0.111 C 
ATOM     21  C   UNL     1       1.549  -0.151  -1.678  0.00  0.00    +0.121 C 
BRANCH  17  22
ATOM     22  S   UNL     1       4.114   1.302   0.611  0.00  0.00    +0.077 S 
ATOM     23  O   UNL     1       3.536   2.434   1.331  0.00  0.00    -0.153 OA
ATOM     24  O   UNL     1       4.774   0.219   1.333  0.00  0.00    -0.153 OA
ATOM     25  C   UNL     1       5.297   1.981  -0.544  0.00  0.00    +0.202 C 
ENDBRANCH  17  22
ENDBRANCH   1  19
BRANCH   4  26
ATOM     26  O   UNL     1       0.960  -3.263  -0.183  0.00  0.00    -0.471 OA
ATOM     27  C   UNL     1       0.906  -4.679  -0.033  0.00  0.00    +0.252 C 
ENDBRANCH   4  26
TORSDOF 4
