REMARK  Name = 445302
REMARK  4 active torsions:
REMARK  status: ('A' for Active; 'I' for Inactive)
REMARK    1  A    between atoms: C_1  and  C_9
REMARK    2  A    between atoms: C_2  and  O_15
REMARK    3  A    between atoms: N_8  and  O_11
REMARK    4  A    between atoms: O_11  and  C_13
REMARK                            x       y       z     vdW  Elec       q    Type
REMARK                         _______ _______ _______ _____ _____    ______ ____
ROOT
ATOM      1  C   UNL     1      -1.115  -0.050   0.141  0.00  0.00    +0.090 C 
ATOM      2  C   UNL     1      -2.227  -0.808  -0.225  0.00  0.00    +0.138 C 
ATOM      3  C   UNL     1      -1.253   1.316   0.388  0.00  0.00    +0.008 C 
ATOM      4  C   UNL     1      -3.477  -0.201  -0.343  0.00  0.00    +0.037 C 
ATOM      5  C   UNL     1      -2.504   1.923   0.270  0.00  0.00    +0.000 C 
ATOM      6  C   UNL     1      -3.615   1.165  -0.096  0.00  0.00    +0.003 C 
ENDROOT
BRANCH   1   9
ATOM      7  O   UNL     1       0.313  -1.859   0.592  0.00  0.00    -0.267 OA
ATOM      8  N   UNL     1       1.297   0.140  -0.001  0.00  0.00    -0.141 N 
ATOM      9  C   UNL     1       0.199  -0.664   0.270  0.00  0.00    +0.280 C 
ATOM     10  H   UNL     1       1.198   1.083  -0.268  0.00  0.00    +0.196 HD
BRANCH   8  11
ATOM     11  O   UNL     1       2.560  -0.467   0.127  0.00  0.00    -0.346 OA
BRANCH  11  13
ATOM     12  O   UNL     1       3.467   1.567  -0.492  0.00  0.00    -0.248 OA
ATOM     13  C   UNL     1       3.578   0.395  -0.158  0.00  0.00    +0.340 C 
ATOM     14  C   UNL     1       4.890  -0.312  -0.002  0.00  0.00    +0.123 C 
ENDBRANCH  11  13
ENDBRANCH   8  11
ENDBRANCH   1   9
BRANCH   2  15
ATOM     15  O   UNL     1      -2.112  -2.144  -0.472  0.00  0.00    -0.505 OA
ATOM     16  H   UNL     1      -1.278  -2.565  -0.396  0.00  0.00    +0.292 HD
ENDBRANCH   2  15
TORSDOF 4
