REMARK  Name = 657038
REMARK  2 active torsions:
REMARK  status: ('A' for Active; 'I' for Inactive)
REMARK    1  A    between atoms: C_5  and  C_12
REMARK    2  A    between atoms: C_6  and  C_20
REMARK                            x       y       z     vdW  Elec       q    Type
REMARK                         _______ _______ _______ _____ _____    ______ ____
ROOT
ATOM      1  N   UNL     1      -0.384  -0.153   0.021  0.00  0.00    -0.403 NA
ATOM      2  N   UNL     1      -1.134   2.516  -0.161  0.00  0.00    -0.260 NA
ATOM      3  C   UNL     1      -1.683   0.195   0.005  0.00  0.00    +0.152 C 
ATOM      4  C   UNL     1      -2.063   1.546  -0.087  0.00  0.00    +0.106 C 
ATOM      5  C   UNL     1       0.529   0.832  -0.053  0.00  0.00    +0.133 C 
ATOM      6  C   UNL     1      -2.672  -0.783   0.079  0.00  0.00    +0.084 C 
ATOM      7  C   UNL     1      -3.418   1.870  -0.102  0.00  0.00    +0.021 C 
ATOM      8  C   UNL     1      -4.025  -0.449   0.064  0.00  0.00    +0.007 C 
ATOM      9  C   UNL     1       0.159   2.148  -0.143  0.00  0.00    +0.184 C 
ATOM     10  C   UNL     1      -4.399   0.883  -0.027  0.00  0.00    +0.002 C 
ENDROOT
BRANCH   5  12
ATOM     11 CL   UNL     1       6.236  -0.874   0.033  0.00  0.00    -0.082 Cl
ATOM     12  C   UNL     1       1.909   0.420  -0.032  0.00  0.00    +0.027 C 
ATOM     13  C   UNL     1       2.886   1.260   0.510  0.00  0.00    +0.003 C 
ATOM     14  C   UNL     1       2.280  -0.823  -0.553  0.00  0.00    +0.003 C 
ATOM     15  C   UNL     1       4.223   0.861   0.529  0.00  0.00    +0.011 C 
ATOM     16  C   UNL     1       3.617  -1.223  -0.533  0.00  0.00    +0.011 C 
ATOM     17  C   UNL     1       4.588  -0.381   0.008  0.00  0.00    +0.058 C 
ENDBRANCH   5  12
BRANCH   6  20
ATOM     18  O   UNL     1      -2.169  -2.748   1.277  0.00  0.00    -0.270 OA
ATOM     19  N   UNL     1      -2.167  -2.903  -1.010  0.00  0.00    -0.325 N 
ATOM     20  C   UNL     1      -2.316  -2.195   0.176  0.00  0.00    +0.245 C 
ATOM     21  H   UNL     1      -1.927  -3.858  -0.987  0.00  0.00    +0.145 HD
ATOM     22  H   UNL     1      -2.300  -2.450  -1.874  0.00  0.00    +0.145 HD
ENDBRANCH   6  20
TORSDOF 2
