REMARK  Name = 446429
REMARK  5 active torsions:
REMARK  status: ('A' for Active; 'I' for Inactive)
REMARK    1  A    between atoms: C_2  and  C_18
REMARK    2  A    between atoms: C_3  and  O_14
REMARK    3  A    between atoms: C_4  and  O_16
REMARK    4  A    between atoms: C_5  and  N_10
REMARK    5  A    between atoms: C_18  and  O_19
REMARK                            x       y       z     vdW  Elec       q    Type
REMARK                         _______ _______ _______ _____ _____    ______ ____
ROOT
ATOM      1  N   UNL     1      -0.006   1.738  -0.097  0.00  0.00    +0.398 N 
ATOM      2  C   UNL     1       2.151   0.567   0.279  0.00  0.00    +0.037 C 
ATOM      3  C   UNL     1       1.433  -0.794   0.243  0.00  0.00    +0.137 C 
ATOM      4  C   UNL     1      -0.039  -0.624   0.643  0.00  0.00    +0.135 C 
ATOM      5  C   UNL     1      -0.732   0.473  -0.176  0.00  0.00    +0.043 C 
ATOM      6  C   UNL     1       1.382   1.616  -0.542  0.00  0.00    -0.074 C 
ATOM      7  H   UNL     1      -0.011   2.058   0.872  0.00  0.00    -0.082 HD
ATOM      8  H   UNL     1      -0.472   2.403  -0.714  0.00  0.00    -0.082 HD
ENDROOT
BRANCH   5  10
ATOM      9  O   UNL     1      -3.185  -0.877  -0.944  0.00  0.00    -0.275 OA
ATOM     10  N   UNL     1      -2.061   0.716   0.329  0.00  0.00    -0.323 N 
ATOM     11  C   UNL     1      -3.177   0.016  -0.101  0.00  0.00    +0.221 C 
ATOM     12  C   UNL     1      -4.432   0.451   0.607  0.00  0.00    +0.095 C 
ATOM     13  H   UNL     1      -2.181   1.413   1.014  0.00  0.00    +0.147 HD
ENDBRANCH   5  10
BRANCH   3  14
ATOM     14  O   UNL     1       1.530  -1.383  -1.055  0.00  0.00    -0.382 OA
ATOM     15  H   UNL     1       2.464  -1.485  -1.295  0.00  0.00    +0.210 HD
ENDBRANCH   3  14
BRANCH   4  16
ATOM     16  O   UNL     1      -0.727  -1.859   0.455  0.00  0.00    -0.383 OA
ATOM     17  H   UNL     1      -0.290  -2.554   0.972  0.00  0.00    +0.210 HD
ENDBRANCH   4  16
BRANCH   2  18
ATOM     18  C   UNL     1       3.595   0.462  -0.213  0.00  0.00    +0.137 C 
BRANCH  18  19
ATOM     19  O   UNL     1       4.267  -0.503   0.574  0.00  0.00    -0.382 OA
ATOM     20  H   UNL     1       5.186  -0.581   0.274  0.00  0.00    +0.210 HD
ENDBRANCH  18  19
ENDBRANCH   2  18
TORSDOF 5
