REMARK  Name = 439507
REMARK  6 active torsions:
REMARK  status: ('A' for Active; 'I' for Inactive)
REMARK    1  A    between atoms: C_2  and  O_7
REMARK    2  A    between atoms: C_3  and  O_9
REMARK    3  A    between atoms: C_4  and  C_15
REMARK    4  A    between atoms: C_5  and  O_11
REMARK    5  A    between atoms: C_6  and  O_13
REMARK    6  A    between atoms: C_15  and  O_16
REMARK                            x       y       z     vdW  Elec       q    Type
REMARK                         _______ _______ _______ _____ _____    ______ ____
ROOT
ATOM      1  O   UNL     1      -0.476   1.225   0.140  0.00  0.00    -0.326 OA
ATOM      2  C   UNL     1      -0.525  -1.167   0.569  0.00  0.00    +0.169 C 
ATOM      3  C   UNL     1       0.965  -1.275   0.236  0.00  0.00    +0.172 C 
ATOM      4  C   UNL     1      -1.172   0.014  -0.169  0.00  0.00    +0.176 C 
ATOM      5  C   UNL     1       1.644   0.079   0.459  0.00  0.00    +0.196 C 
ATOM      6  C   UNL     1       0.896   1.209  -0.255  0.00  0.00    +0.262 C 
ENDROOT
BRANCH   2   7
ATOM      7  O   UNL     1      -1.192  -2.378   0.236  0.00  0.00    -0.379 OA
ATOM      8  H   UNL     1      -0.775  -3.116   0.707  0.00  0.00    +0.211 HD
ENDBRANCH   2   7
BRANCH   3   9
ATOM      9  O   UNL     1       1.141  -1.703  -1.117  0.00  0.00    -0.379 OA
ATOM     10  H   UNL     1       0.707  -2.561  -1.244  0.00  0.00    +0.211 HD
ENDBRANCH   3   9
BRANCH   5  11
ATOM     11  O   UNL     1       2.990   0.034  -0.002  0.00  0.00    -0.378 OA
ATOM     12  H   UNL     1       3.463  -0.682   0.451  0.00  0.00    +0.211 HD
ENDBRANCH   5  11
BRANCH   6  13
ATOM     13  O   UNL     1       1.514   2.442   0.114  0.00  0.00    -0.358 OA
ATOM     14  H   UNL     1       1.059   3.177  -0.326  0.00  0.00    +0.213 HD
ENDBRANCH   6  13
BRANCH   4  15
ATOM     15  C   UNL     1      -2.628   0.206   0.247  0.00  0.00    +0.169 C 
BRANCH  15  16
ATOM     16  O   UNL     1      -3.157   1.313  -0.459  0.00  0.00    -0.379 OA
ATOM     17  H   UNL     1      -4.083   1.447  -0.204  0.00  0.00    +0.211 HD
ENDBRANCH  15  16
ENDBRANCH   4  15
TORSDOF 6
