REMARK  Name = 444581
REMARK  5 active torsions:
REMARK  status: ('A' for Active; 'I' for Inactive)
REMARK    1  A    between atoms: N_2  and  C_7
REMARK    2  A    between atoms: N_3  and  C_20
REMARK    3  A    between atoms: C_8  and  O_13
REMARK    4  A    between atoms: O_13  and  C_14
REMARK    5  A    between atoms: C_21  and  C_28
REMARK                            x       y       z     vdW  Elec       q    Type
REMARK                         _______ _______ _______ _____ _____    ______ ____
ROOT
ATOM      1  O   UNL     1      -1.052  -0.473   0.491  0.00  0.00    -0.252 OA
ATOM      2  N   UNL     1      -0.212   1.605  -0.177  0.00  0.00    -0.268 N 
ATOM      3  N   UNL     1      -2.487   1.214  -0.271  0.00  0.00    -0.268 N 
ATOM      4  C   UNL     1      -1.226   0.662   0.060  0.00  0.00    +0.308 C 
ATOM      5  H   UNL     1      -0.508   2.477  -0.525  0.00  0.00    +0.156 HD
ATOM      6  H   UNL     1      -2.474   2.139  -0.606  0.00  0.00    +0.156 HD
ENDROOT
BRANCH   2   7
ATOM      7  C   UNL     1       1.180   1.455   0.022  0.00  0.00    +0.052 C 
ATOM      8  C   UNL     1       3.907   1.160   0.410  0.00  0.00    +0.145 C 
ATOM      9  C   UNL     1       2.025   2.512  -0.273  0.00  0.00    +0.018 C 
ATOM     10  C   UNL     1       1.670   0.254   0.507  0.00  0.00    +0.018 C 
ATOM     11  C   UNL     1       3.398   2.364  -0.078  0.00  0.00    +0.039 C 
ATOM     12  C   UNL     1       3.043   0.105   0.703  0.00  0.00    +0.039 C 
BRANCH   8  13
ATOM     13  O   UNL     1       5.247   1.016   0.602  0.00  0.00    -0.453 OA
BRANCH  13  14
ATOM     14  C   UNL     1       5.838  -0.156   0.161  0.00  0.00    +0.145 C 
ATOM     15  C   UNL     1       5.516  -0.643  -1.092  0.00  0.00    +0.037 C 
ATOM     16  C   UNL     1       6.735  -0.809   0.987  0.00  0.00    +0.037 C 
ATOM     17  C   UNL     1       6.111  -1.824  -1.536  0.00  0.00    +0.003 C 
ATOM     18  C   UNL     1       7.330  -1.990   0.543  0.00  0.00    +0.003 C 
ATOM     19  C   UNL     1       7.018  -2.498  -0.719  0.00  0.00    +0.000 C 
ENDBRANCH  13  14
ENDBRANCH   8  13
ENDBRANCH   2   7
BRANCH   3  20
ATOM     20  C   UNL     1      -3.747   0.620  -0.186  0.00  0.00    +0.052 C 
ATOM     21  C   UNL     1      -6.266  -0.567  -0.019  0.00  0.00    +0.031 C 
ATOM     22  C   UNL     1      -4.882   1.336  -0.565  0.00  0.00    +0.015 C 
ATOM     23  C   UNL     1      -3.871  -0.690   0.276  0.00  0.00    +0.015 C 
ATOM     24  C   UNL     1      -6.142   0.743  -0.481  0.00  0.00    +0.004 C 
ATOM     25  C   UNL     1      -5.130  -1.284   0.360  0.00  0.00    +0.004 C 
BRANCH  21  28
ATOM     26  N   UNL     1      -8.732  -0.497  -0.303  0.00  0.00    -0.343 N 
ATOM     27  N   UNL     1      -7.694  -2.426   0.510  0.00  0.00    -0.285 NA
ATOM     28  C   UNL     1      -7.579  -1.187   0.068  0.00  0.00    +0.117 C 
ATOM     29  H   UNL     1      -9.610  -0.936  -0.237  0.00  0.00    +0.144 HD
ATOM     30  H   UNL     1      -8.667   0.428  -0.632  0.00  0.00    +0.144 HD
ATOM     31  H   UNL     1      -8.581  -2.848   0.570  0.00  0.00    +0.188 HD
ENDBRANCH  21  28
ENDBRANCH   3  20
TORSDOF 5
