REMARK  Name = 444450
REMARK  8 active torsions:
REMARK  status: ('A' for Active; 'I' for Inactive)
REMARK    1  A    between atoms: C_2  and  O_15
REMARK    2  A    between atoms: C_3  and  O_17
REMARK    3  A    between atoms: C_4  and  N_6
REMARK    4  A    between atoms: C_5  and  C_19
REMARK    5  A    between atoms: C_19  and  O_20
REMARK    6  A    between atoms: O_20  and  P_21
REMARK    7  A    between atoms: P_21  and  O_23
REMARK    8  A    between atoms: P_21  and  O_25
REMARK                            x       y       z     vdW  Elec       q    Type
REMARK                         _______ _______ _______ _____ _____    ______ ____
ROOT
ATOM      1  O   UNL     1       0.738  -0.665   1.059  0.00  0.00    -0.333 OA
ATOM      2  C   UNL     1      -0.140  -1.826  -0.809  0.00  0.00    +0.187 C 
ATOM      3  C   UNL     1       1.101  -2.558  -0.339  0.00  0.00    +0.171 C 
ATOM      4  C   UNL     1      -0.507  -1.025   0.431  0.00  0.00    +0.225 C 
ATOM      5  C   UNL     1       1.788  -1.508   0.530  0.00  0.00    +0.176 C 
ENDROOT
BRANCH   4   6
ATOM      6  N   UNL     1      -1.285   0.180   0.152  0.00  0.00    -0.247 N 
ATOM      7  N   UNL     1      -1.728   2.304  -0.370  0.00  0.00    -0.247 NA
ATOM      8  N   UNL     1      -3.549  -0.657   0.434  0.00  0.00    -0.208 NA
ATOM      9  N   UNL     1      -5.199   1.097   0.042  0.00  0.00    -0.243 NA
ATOM     10  C   UNL     1      -2.647   0.299   0.165  0.00  0.00    +0.152 C 
ATOM     11  C   UNL     1      -0.779   1.412  -0.174  0.00  0.00    +0.223 C 
ATOM     12  C   UNL     1      -2.900   1.622  -0.162  0.00  0.00    +0.112 C 
ATOM     13  C   UNL     1      -4.234   2.011  -0.218  0.00  0.00    +0.175 C 
ATOM     14  C   UNL     1      -4.802  -0.162   0.348  0.00  0.00    +0.196 C 
ENDBRANCH   4   6
BRANCH   2  15
ATOM     15  O   UNL     1      -1.181  -2.697  -1.201  0.00  0.00    -0.378 OA
ATOM     16  H   UNL     1      -0.910  -3.189  -1.992  0.00  0.00    +0.211 HD
ENDBRANCH   2  15
BRANCH   3  17
ATOM     17  O   UNL     1       0.721  -3.660   0.484  0.00  0.00    -0.379 OA
ATOM     18  H   UNL     1       0.283  -4.334  -0.059  0.00  0.00    +0.211 HD
ENDBRANCH   3  17
BRANCH   5  19
ATOM     19  C   UNL     1       2.758  -0.633  -0.251  0.00  0.00    +0.186 C 
BRANCH  19  20
ATOM     20  O   UNL     1       3.332   0.310   0.637  0.00  0.00    -0.271 OA
BRANCH  20  21
ATOM     21  P   UNL     1       4.408   1.368   0.049  0.00  0.00    +0.473 P 
ATOM     22  O   UNL     1       4.966   2.330   1.056  0.00  0.00    -0.227 OA
BRANCH  21  23
ATOM     23  O   UNL     1       3.637   2.045  -1.201  0.00  0.00    -0.303 OA
ATOM     24  H   UNL     1       3.313   1.350  -1.796  0.00  0.00    +0.222 HD
ENDBRANCH  21  23
BRANCH  21  25
ATOM     25  O   UNL     1       5.503   0.413  -0.662  0.00  0.00    -0.303 OA
ATOM     26  H   UNL     1       5.058  -0.174  -1.294  0.00  0.00    +0.222 HD
ENDBRANCH  21  25
ENDBRANCH  20  21
ENDBRANCH  19  20
ENDBRANCH   5  19
TORSDOF 8
