REMARK  Name = 445506
REMARK  15 active torsions:
REMARK  status: ('A' for Active; 'I' for Inactive)
REMARK    1  A    between atoms: C_1  and  S_22
REMARK    2  A    between atoms: C_6  and  C_9
REMARK    3  A    between atoms: N_8  and  CA_11
REMARK    4  A    between atoms: CA_11  and  C_13
REMARK    5  A    between atoms: CA_11  and  CB_16
REMARK    6  A    between atoms: C_13  and  O_14
REMARK    7  A    between atoms: CB_16  and  CG_17
REMARK    8  A    between atoms: CG_17  and  CD_19
REMARK    9  A    between atoms: CD_19  and  OE1_20
REMARK   10  A    between atoms: S_22  and  N_25
REMARK   11  A    between atoms: C_26  and  C_32
REMARK   12  A    between atoms: N_31  and  C_34
REMARK   13  A    between atoms: C_34  and  C_35
REMARK   14  A    between atoms: C_35  and  C_37
REMARK   15  A    between atoms: C_37  and  O_38
REMARK                            x       y       z     vdW  Elec       q    Type
REMARK                         _______ _______ _______ _____ _____    ______ ____
ROOT
ATOM      1  C   UNL     1       0.980  -1.216  -0.177  0.00  0.00    +0.122 C 
ATOM      2  C   UNL     1      -0.017  -1.476  -1.118  0.00  0.00    +0.020 C 
ATOM      3  C   UNL     1       0.642  -1.021   1.162  0.00  0.00    +0.020 C 
ATOM      4  C   UNL     1      -1.351  -1.543  -0.719  0.00  0.00    +0.006 C 
ATOM      5  C   UNL     1      -0.693  -1.088   1.561  0.00  0.00    +0.006 C 
ATOM      6  C   UNL     1      -1.690  -1.349   0.620  0.00  0.00    +0.053 C 
ENDROOT
BRANCH   6   9
ATOM      7  O   UNL     1      -3.377  -1.726   2.204  0.00  0.00    -0.270 OA
ATOM      8  N   UNL     1      -4.048  -1.102   0.074  0.00  0.00    -0.293 N 
ATOM      9  C   ACE A   0      -3.081  -1.418   1.036  0.00  0.00    +0.246 C 
ATOM     10  H   UNL     1      -3.744  -0.867  -0.832  0.00  0.00    +0.150 HD
BRANCH   8  11
ATOM     11  CA  UNL     1      -5.469  -1.102   0.339  0.00  0.00    +0.172 C 
BRANCH  11  13
ATOM     12  OXT UNL     1      -5.626  -1.779  -1.995  0.00  0.00    -0.248 OA
ATOM     13  C   UNL     1      -6.169  -1.578  -0.917  0.00  0.00    +0.332 C 
BRANCH  13  14
ATOM     14  O   UNL     1      -7.493  -1.802  -0.705  0.00  0.00    -0.479 OA
ATOM     15  H   UNL     1      -7.868  -1.635   0.137  0.00  0.00    +0.295 HD
ENDBRANCH  13  14
ENDBRANCH  11  13
BRANCH  11  16
ATOM     16  CB  UNL     1      -5.975   0.251   0.855  0.00  0.00    +0.043 C 
BRANCH  16  17
ATOM     17  CG  UNL     1      -5.818   1.435  -0.108  0.00  0.00    +0.112 C 
BRANCH  17  19
ATOM     18  OE2 UNL     1      -6.805   2.906   1.564  0.00  0.00    -0.250 OA
ATOM     19  CD  UNL     1      -6.321   2.748   0.452  0.00  0.00    +0.314 C 
BRANCH  19  20
ATOM     20  OE1 UNL     1      -6.210   3.753  -0.455  0.00  0.00    -0.480 OA
ATOM     21  HE1 UNL     1      -5.832   3.586  -1.296  0.00  0.00    +0.295 HD
ENDBRANCH  19  20
ENDBRANCH  17  19
ENDBRANCH  16  17
ENDBRANCH  11  16
ENDBRANCH   8  11
ENDBRANCH   6   9
BRANCH   1  22
ATOM     22  S   UNL     1       2.672  -1.130  -0.684  0.00  0.00    +0.064 S 
ATOM     23  O   UNL     1       3.490  -1.432   0.476  0.00  0.00    -0.153 OA
ATOM     24  O   UNL     1       2.806  -1.906  -1.902  0.00  0.00    -0.153 OA
BRANCH  22  25
ATOM     25  N   UNL     1       2.799   0.526  -1.052  0.00  0.00    -0.148 NA
ATOM     26  C   UNL     1       2.821   1.495   0.079  0.00  0.00    +0.155 C 
ATOM     27  C   UNL     1       1.921   2.649  -0.348  0.00  0.00    +0.029 C 
ATOM     28  C   UNL     1       1.904   2.562  -1.865  0.00  0.00    +0.021 C 
ATOM     29  C   UNL     1       1.905   1.063  -2.114  0.00  0.00    +0.096 C 
BRANCH  26  32
ATOM     30  O   UNL     1       4.712   2.856  -0.410  0.00  0.00    -0.274 OA
ATOM     31  N   UNL     1       4.950   1.084   1.080  0.00  0.00    -0.303 N 
ATOM     32  C   UNL     1       4.249   1.904   0.213  0.00  0.00    +0.239 C 
ATOM     33  H   UNL     1       4.467   0.349   1.523  0.00  0.00    +0.149 HD
BRANCH  31  34
ATOM     34  C   UNL     1       6.356   1.254   1.366  0.00  0.00    +0.101 C 
BRANCH  34  35
ATOM     35  C   UNL     1       7.235   0.462   0.406  0.00  0.00    +0.131 C 
BRANCH  35  37
ATOM     36  O   UNL     1       6.595  -1.659   1.421  0.00  0.00    -0.250 OA
ATOM     37  C   UNL     1       6.956  -1.025   0.440  0.00  0.00    +0.316 C 
BRANCH  37  38
ATOM     38  O   UNL     1       7.151  -1.593  -0.779  0.00  0.00    -0.480 OA
ATOM     39  H   UNL     1       7.428  -1.066  -1.502  0.00  0.00    +0.295 HD
ENDBRANCH  37  38
ENDBRANCH  35  37
ENDBRANCH  34  35
ENDBRANCH  31  34
ENDBRANCH  26  32
ENDBRANCH  22  25
ENDBRANCH   1  22
TORSDOF 15
