REMARK  Name = 4359
REMARK  10 active torsions:
REMARK  status: ('A' for Active; 'I' for Inactive)
REMARK    1  A    between atoms: N_2  and  C_7
REMARK    2  A    between atoms: N_3  and  C_13
REMARK    3  A    between atoms: C_13  and  C_14
REMARK    4  A    between atoms: C_14  and  C_15
REMARK    5  A    between atoms: C_15  and  C_16
REMARK    6  A    between atoms: C_16  and  C_17
REMARK    7  A    between atoms: C_17  and  C_18
REMARK    8  A    between atoms: C_18  and  C_19
REMARK    9  A    between atoms: C_19  and  C_20
REMARK   10  A    between atoms: C_20  and  C_21
REMARK                            x       y       z     vdW  Elec       q    Type
REMARK                         _______ _______ _______ _____ _____    ______ ____
ROOT
ATOM      1  O   UNL     1      -3.299   2.006  -1.200  0.00  0.00    -0.253 OA
ATOM      2  N   UNL     1      -3.594   0.280   0.323  0.00  0.00    -0.291 N 
ATOM      3  N   UNL     1      -2.016   1.909   0.731  0.00  0.00    -0.289 N 
ATOM      4  C   UNL     1      -2.999   1.448  -0.146  0.00  0.00    +0.301 C 
ATOM      5  H   UNL     1      -3.284  -0.092   1.181  0.00  0.00    +0.151 HD
ATOM      6  H   UNL     1      -1.843   1.397   1.554  0.00  0.00    +0.151 HD
ENDROOT
BRANCH   2   7
ATOM      7  C   UNL     1      -4.644  -0.415  -0.388  0.00  0.00    +0.073 C 
ATOM      8  C   UNL     1      -5.607  -1.102   0.586  0.00  0.00    +0.020 C 
ATOM      9  C   UNL     1      -4.061  -1.415  -1.392  0.00  0.00    +0.020 C 
ATOM     10  C   UNL     1      -4.982  -2.320   1.265  0.00  0.00    +0.002 C 
ATOM     11  C   UNL     1      -3.439  -2.633  -0.709  0.00  0.00    +0.002 C 
ATOM     12  C   UNL     1      -4.420  -3.306   0.246  0.00  0.00    +0.000 C 
ENDBRANCH   2   7
BRANCH   3  13
ATOM     13  C   UNL     1      -1.244   3.098   0.489  0.00  0.00    +0.091 C 
BRANCH  13  14
ATOM     14  C   UNL     1       0.037   2.815  -0.290  0.00  0.00    +0.021 C 
BRANCH  14  15
ATOM     15  C   UNL     1       0.974   1.858   0.455  0.00  0.00    +0.002 C 
BRANCH  15  16
ATOM     16  C   UNL     1       2.289   1.598  -0.288  0.00  0.00    +0.000 C 
BRANCH  16  17
ATOM     17  C   UNL     1       3.257   0.705   0.492  0.00  0.00    +0.000 C 
BRANCH  17  18
ATOM     18  C   UNL     1       4.567   0.434  -0.255  0.00  0.00    +0.000 C 
BRANCH  18  19
ATOM     19  C   UNL     1       5.569  -0.474   0.465  0.00  0.00    +0.000 C 
BRANCH  19  20
ATOM     20  C   UNL     1       6.833  -0.755  -0.350  0.00  0.00    +0.000 C 
BRANCH  20  21
ATOM     21  C   UNL     1       7.753  -1.736   0.378  0.00  0.00    +0.000 C 
ATOM     22  C   UNL     1       9.027  -1.994  -0.412  0.00  0.00    +0.000 C 
ENDBRANCH  20  21
ENDBRANCH  19  20
ENDBRANCH  18  19
ENDBRANCH  17  18
ENDBRANCH  16  17
ENDBRANCH  15  16
ENDBRANCH  14  15
ENDBRANCH  13  14
ENDBRANCH   3  13
TORSDOF 10
