REMARK  Name = 16402
REMARK  7 active torsions:
REMARK  status: ('A' for Active; 'I' for Inactive)
REMARK    1  A    between atoms: C_1  and  C_2
REMARK    2  A    between atoms: C_1  and  C_9
REMARK    3  A    between atoms: C_2  and  C_3
REMARK    4  A    between atoms: C_3  and  C_4
REMARK    5  A    between atoms: C_4  and  N_5
REMARK    6  A    between atoms: C_9  and  C_10
REMARK    7  A    between atoms: C_10  and  N_11
REMARK                            x       y       z     vdW  Elec       q    Type
REMARK                         _______ _______ _______ _____ _____    ______ ____
ROOT
ATOM      1  C   UNL     1       0.610  -0.429   0.016  0.00  0.00    -0.002 C 
ENDROOT
BRANCH   1   2
ATOM      2  C   UNL     1      -0.633   0.465   0.006  0.00  0.00    -0.002 C 
BRANCH   2   3
ATOM      3  C   UNL     1      -1.916  -0.370   0.015  0.00  0.00    -0.024 C 
BRANCH   3   4
ATOM      4  C   UNL     1      -3.155   0.522  -0.031  0.00  0.00    -0.086 C 
BRANCH   4   5
ATOM      5  N   UNL     1      -4.366  -0.291  -0.001  0.00  0.00    +0.380 N 
ATOM      6  H   UNL     1      -5.184   0.317  -0.032  0.00  0.00    -0.089 HD
ATOM      7  H   UNL     1      -4.384  -0.841   0.857  0.00  0.00    -0.089 HD
ATOM      8  H   UNL     1      -4.375  -0.916  -0.806  0.00  0.00    -0.089 HD
ENDBRANCH   4   5
ENDBRANCH   3   4
ENDBRANCH   2   3
ENDBRANCH   1   2
BRANCH   1   9
ATOM      9  C   UNL     1       1.924   0.358   0.038  0.00  0.00    -0.024 C 
BRANCH   9  10
ATOM     10  C   UNL     1       3.163  -0.535  -0.030  0.00  0.00    -0.086 C 
BRANCH  10  11
ATOM     11  N   UNL     1       4.372   0.281  -0.014  0.00  0.00    +0.380 N 
ATOM     12  H   UNL     1       5.192  -0.325  -0.060  0.00  0.00    -0.089 HD
ATOM     13  H   UNL     1       4.402   0.828   0.846  0.00  0.00    -0.089 HD
ATOM     14  H   UNL     1       4.369   0.910  -0.817  0.00  0.00    -0.089 HD
ENDBRANCH  10  11
ENDBRANCH   9  10
ENDBRANCH   1   9
TORSDOF 7
