REMARK  Name = 127716
REMARK  4 active torsions:
REMARK  status: ('A' for Active; 'I' for Inactive)
REMARK    1  A    between atoms: CA_2  and  C_12
REMARK    2  A    between atoms: C_3  and  O_8
REMARK    3  A    between atoms: C_4  and  O_10
REMARK    4  A    between atoms: C_12  and  O_13
REMARK                            x       y       z     vdW  Elec       q    Type
REMARK                         _______ _______ _______ _____ _____    ______ ____
ROOT
ATOM      1  N   UNL     1       0.230  -1.635   0.021  0.00  0.00    +0.390 N 
ATOM      2  CA  UNL     1      -0.687  -0.543  -0.310  0.00  0.00    -0.002 C 
ATOM      3  C   UNL     1       0.104   0.677   0.137  0.00  0.00    +0.118 C 
ATOM      4  C   UNL     1       1.539   0.333  -0.252  0.00  0.00    +0.114 C 
ATOM      5  C   UNL     1       1.556  -1.186  -0.410  0.00  0.00    -0.049 C 
ATOM      6  H1  UNL     1      -0.036  -2.485  -0.475  0.00  0.00    -0.084 HD
ATOM      7  H2  UNL     1       0.212  -1.851   1.018  0.00  0.00    -0.084 HD
ENDROOT
BRANCH   3   8
ATOM      8  O   UNL     1      -0.342   1.835  -0.549  0.00  0.00    -0.384 OA
ATOM      9  H   UNL     1      -1.255   2.035  -0.287  0.00  0.00    +0.210 HD
ENDBRANCH   3   8
BRANCH   4  10
ATOM     10  O   UNL     1       2.417   0.745   0.786  0.00  0.00    -0.384 OA
ATOM     11  H   UNL     1       2.389   1.711   0.868  0.00  0.00    +0.210 HD
ENDBRANCH   4  10
BRANCH   2  12
ATOM     12  C   UNL     1      -2.017  -0.691   0.412  0.00  0.00    +0.118 C 
BRANCH  12  13
ATOM     13  O   UNL     1      -2.800   0.464   0.165  0.00  0.00    -0.384 OA
ATOM     14  H   UNL     1      -3.651   0.381   0.622  0.00  0.00    +0.210 HD
ENDBRANCH  12  13
ENDBRANCH   2  12
TORSDOF 4
