REMARK  Name = 17754119
REMARK  7 active torsions:
REMARK  status: ('A' for Active; 'I' for Inactive)
REMARK    1  A    between atoms: O_1  and  P_2
REMARK    2  A    between atoms: O_1  and  C_8
REMARK    3  A    between atoms: P_2  and  O_4
REMARK    4  A    between atoms: P_2  and  O_6
REMARK    5  A    between atoms: C_8  and  C_10
REMARK    6  A    between atoms: C_8  and  C_13
REMARK    7  A    between atoms: C_10  and  O_11
REMARK                            x       y       z     vdW  Elec       q    Type
REMARK                         _______ _______ _______ _____ _____    ______ ____
ROOT
ATOM      1  O   UNL     1      -0.404   0.702  -0.243  0.00  0.00    -0.264 OA
ENDROOT
BRANCH   1   2
ATOM      2  P   UNL     1      -1.828  -0.015   0.035  0.00  0.00    +0.474 P 
ATOM      3  O   UNL     1      -1.756  -1.492   0.291  0.00  0.00    -0.227 OA
BRANCH   2   4
ATOM      4  O   UNL     1      -2.733   0.424  -1.231  0.00  0.00    -0.303 OA
ATOM      5  H   UNL     1      -2.720   1.390  -1.318  0.00  0.00    +0.222 HD
ENDBRANCH   2   4
BRANCH   2   6
ATOM      6  O   UNL     1      -2.440   0.860   1.250  0.00  0.00    -0.303 OA
ATOM      7  H   UNL     1      -2.449   1.797   1.001  0.00  0.00    +0.222 HD
ENDBRANCH   2   6
ENDBRANCH   1   2
BRANCH   1   8
ATOM      8  C   UNL     1       0.717   0.301   0.530  0.00  0.00    +0.224 C 
BRANCH   8  10
ATOM      9  O   UNL     1       0.859  -1.552  -1.045  0.00  0.00    -0.248 OA
ATOM     10  C   UNL     1       1.270  -0.987  -0.041  0.00  0.00    +0.342 C 
BRANCH  10  11
ATOM     11  O   UNL     1       2.279  -1.466   0.730  0.00  0.00    -0.479 OA
ATOM     12  H   UNL     1       2.553  -0.991   1.490  0.00  0.00    +0.295 HD
ENDBRANCH  10  11
ENDBRANCH   8  10
BRANCH   8  13
ATOM     13  C   UNL     1       1.748   1.430   0.551  0.00  0.00    +0.042 C 
ATOM     14  C   UNL     1       2.287   1.796  -0.828  0.00  0.00    +0.003 C 
ENDBRANCH   8  13
ENDBRANCH   1   8
TORSDOF 7
