REMARK  Name = 176
REMARK  1 active torsions:
REMARK  status: ('A' for Active; 'I' for Inactive)
REMARK    1  A    between atoms: C_3  and  O_4
REMARK                            x       y       z     vdW  Elec       q    Type
REMARK                         _______ _______ _______ _____ _____    ______ ____
ROOT
ATOM      1  O   UNL     1      -0.980  -0.888   0.000  0.00  0.00    -0.250 OA
ATOM      2  C   UNL     1       1.374  -0.352   0.000  0.00  0.00    +0.121 C 
ATOM      3  C   UNL     1      -0.091  -0.050   0.001  0.00  0.00    +0.314 C 
ENDROOT
BRANCH   3   4
ATOM      4  O   UNL     1      -0.303   1.289   0.000  0.00  0.00    -0.480 OA
ATOM      5  H   UNL     1       0.424   1.879   0.000  0.00  0.00    +0.295 HD
ENDBRANCH   3   4
TORSDOF 1
