REMARK  Name = 446103
REMARK  4 active torsions:
REMARK  status: ('A' for Active; 'I' for Inactive)
REMARK    1  A    between atoms: C_2  and  O_10
REMARK    2  A    between atoms: C_3  and  O_12
REMARK    3  A    between atoms: C_4  and  O_8
REMARK    4  A    between atoms: C_6  and  O_14
REMARK                            x       y       z     vdW  Elec       q    Type
REMARK                         _______ _______ _______ _____ _____    ______ ____
ROOT
ATOM      1  O   UNL     1      -1.292  -1.205   0.110  0.00  0.00    -0.329 OA
ATOM      2  C   UNL     1       0.455   0.993  -0.477  0.00  0.00    +0.172 C 
ATOM      3  C   UNL     1      -1.034   1.189  -0.190  0.00  0.00    +0.167 C 
ATOM      4  C   UNL     1       0.971  -0.297   0.162  0.00  0.00    +0.200 C 
ATOM      5  C   UNL     1      -1.812  -0.069  -0.592  0.00  0.00    +0.147 C 
ATOM      6  C   UNL     1       0.071  -1.481  -0.205  0.00  0.00    +0.263 C 
ATOM      7  C   UNL     1      -3.295   0.034  -0.257  0.00  0.00    +0.035 C 
ENDROOT
BRANCH   4   8
ATOM      8  O   UNL     1       2.287  -0.572  -0.318  0.00  0.00    -0.346 OA
ATOM      9  C   UNL     1       3.183   0.480   0.002  0.00  0.00    +0.174 C 
ENDBRANCH   4   8
BRANCH   2  10
ATOM     10  O   UNL     1       1.174   2.117   0.021  0.00  0.00    -0.379 OA
ATOM     11  H   UNL     1       0.836   2.926  -0.392  0.00  0.00    +0.211 HD
ENDBRANCH   2  10
BRANCH   3  12
ATOM     12  O   UNL     1      -1.226   1.427   1.206  0.00  0.00    -0.379 OA
ATOM     13  H   UNL     1      -0.736   2.222   1.469  0.00  0.00    +0.211 HD
ENDBRANCH   3  12
BRANCH   6  14
ATOM     14  O   UNL     1       0.517  -2.616   0.537  0.00  0.00    -0.358 OA
ATOM     15  H   UNL     1      -0.039  -3.381   0.322  0.00  0.00    +0.213 HD
ENDBRANCH   6  14
TORSDOF 4
