REMARK  Name = 49867153
REMARK  6 active torsions:
REMARK  status: ('A' for Active; 'I' for Inactive)
REMARK    1  A    between atoms: C_2  and  O_19
REMARK    2  A    between atoms: C_3  and  O_21
REMARK    3  A    between atoms: C_4  and  O_23
REMARK    4  A    between atoms: C_5  and  C_9
REMARK    5  A    between atoms: C_6  and  C_25
REMARK    6  A    between atoms: C_25  and  O_26
REMARK                            x       y       z     vdW  Elec       q    Type
REMARK                         _______ _______ _______ _____ _____    ______ ____
ROOT
ATOM      1  O   UNL     1       1.623   0.983  -0.024  0.00  0.00    -0.348 OA
ATOM      2  C   UNL     1       3.207  -1.410   0.161  0.00  0.00    +0.169 C 
ATOM      3  C   UNL     1       1.683  -1.460   0.028  0.00  0.00    +0.170 C 
ATOM      4  C   UNL     1       3.769  -0.090  -0.368  0.00  0.00    +0.169 C 
ATOM      5  C   UNL     1       1.040  -0.177   0.579  0.00  0.00    +0.181 C 
ATOM      6  C   UNL     1       3.022   1.100   0.237  0.00  0.00    +0.174 C 
ENDROOT
BRANCH   5   9
ATOM      7  N   UNL     1      -1.353   0.001   1.216  0.00  0.00    -0.316 N 
ATOM      8  N   UNL     1      -0.929  -0.154  -0.961  0.00  0.00    -0.316 N 
ATOM      9  C   UNL     1      -0.401  -0.113   0.242  0.00  0.00    +0.174 C 
ATOM     10  C   UNL     1      -2.578   0.037   0.600  0.00  0.00    +0.059 C 
ATOM     11  C   UNL     1      -2.287  -0.062  -0.757  0.00  0.00    +0.059 C 
ATOM     12  C   UNL     1      -3.877   0.144   1.100  0.00  0.00    +0.011 C 
ATOM     13  C   UNL     1      -3.341  -0.055  -1.686  0.00  0.00    +0.015 C 
ATOM     14  C   UNL     1      -4.914   0.148   0.161  0.00  0.00    -0.021 C 
ATOM     15  C   UNL     1      -4.653   0.051  -1.208  0.00  0.00    -0.003 C 
ATOM     16  C   UNL     1      -6.326   0.261   0.633  0.00  0.00    +0.031 C 
ATOM     17  H   UNL     1      -1.189   0.050   2.185  0.00  0.00    +0.148 HD
ATOM     18  H   UNL     1      -0.456  -0.234  -1.820  0.00  0.00    +0.148 HD
ENDBRANCH   5   9
BRANCH   2  19
ATOM     19  O   UNL     1       3.758  -2.493  -0.591  0.00  0.00    -0.379 OA
ATOM     20  H   UNL     1       3.403  -3.331  -0.257  0.00  0.00    +0.211 HD
ENDBRANCH   2  19
BRANCH   3  21
ATOM     21  O   UNL     1       1.190  -2.579   0.764  0.00  0.00    -0.379 OA
ATOM     22  H   UNL     1       1.591  -3.393   0.422  0.00  0.00    +0.211 HD
ENDBRANCH   3  21
BRANCH   4  23
ATOM     23  O   UNL     1       5.152  -0.034  -0.029  0.00  0.00    -0.379 OA
ATOM     24  H   UNL     1       5.612  -0.793  -0.419  0.00  0.00    +0.211 HD
ENDBRANCH   4  23
BRANCH   6  25
ATOM     25  C   UNL     1       3.480   2.430  -0.351  0.00  0.00    +0.169 C 
BRANCH  25  26
ATOM     26  O   UNL     1       2.734   3.471   0.253  0.00  0.00    -0.379 OA
ATOM     27  H   UNL     1       3.016   4.325  -0.112  0.00  0.00    +0.211 HD
ENDBRANCH  25  26
ENDBRANCH   6  25
TORSDOF 6
