REMARK  Name = 68152
REMARK  4 active torsions:
REMARK  status: ('A' for Active; 'I' for Inactive)
REMARK    1  A    between atoms: C_1  and  C_3
REMARK    2  A    between atoms: C_1  and  C_6
REMARK    3  A    between atoms: C_3  and  O_4
REMARK    4  A    between atoms: C_6  and  O_7
REMARK                            x       y       z     vdW  Elec       q    Type
REMARK                         _______ _______ _______ _____ _____    ______ ____
ROOT
ATOM      1  C   UNL     1      -0.233  -0.884   0.480  0.00  0.00    +0.141 C 
ENDROOT
BRANCH   1   3
ATOM      2  O   UNL     1       0.887   1.254   0.355  0.00  0.00    -0.250 OA
ATOM      3  C   UNL     1       0.880   0.059   0.093  0.00  0.00    +0.316 C 
BRANCH   3   4
ATOM      4  O   UNL     1       1.886  -0.566  -0.569  0.00  0.00    -0.480 OA
ATOM      5  H   UNL     1       1.832  -1.485  -0.744  0.00  0.00    +0.295 HD
ENDBRANCH   3   4
ENDBRANCH   1   3
BRANCH   1   6
ATOM      6  C   UNL     1      -1.578  -0.179   0.473  0.00  0.00    +0.149 C 
BRANCH   6   7
ATOM      7  O   UNL     1      -1.843   0.317  -0.833  0.00  0.00    -0.381 OA
ATOM      8  H   UNL     1      -2.702   0.767  -0.839  0.00  0.00    +0.210 HD
ENDBRANCH   6   7
ENDBRANCH   1   6
TORSDOF 4
