REMARK  Name = 6245
REMARK  5 active torsions:
REMARK  status: ('A' for Active; 'I' for Inactive)
REMARK    1  A    between atoms: N_1  and  C1*_11
REMARK    2  A    between atoms: C2*_12  and  O2*_15
REMARK    3  A    between atoms: C3*_13  and  O3*_17
REMARK    4  A    between atoms: C4*_14  and  C5*_19
REMARK    5  A    between atoms: C5*_19  and  O5*_20
REMARK                            x       y       z     vdW  Elec       q    Type
REMARK                         _______ _______ _______ _____ _____    ______ ____
ROOT
ATOM      1  N   UNL     1      -0.204  -0.313  -0.123  0.00  0.00    -0.250 N 
ATOM      2  N   UNL     1      -1.743   1.496  -0.543  0.00  0.00    -0.233 NA
ATOM      3  N   UNL     1      -4.073   0.857  -0.243  0.00  0.00    -0.234 NA
ATOM      4  C   UNL     1      -1.464   0.225  -0.206  0.00  0.00    +0.122 C 
ATOM      5  C   UNL     1      -0.301  -1.633   0.248  0.00  0.00    +0.064 C 
ATOM      6  C   UNL     1      -2.381  -0.768   0.118  0.00  0.00    +0.131 C 
ATOM      7  C   UNL     1      -1.636  -1.940   0.404  0.00  0.00    +0.004 C 
ATOM      8  C   UNL     1      -3.728  -0.408   0.090  0.00  0.00    +0.110 C 
ATOM      9  C   UNL     1      -3.073   1.719  -0.535  0.00  0.00    +0.252 C 
ATOM     10  N   UNL     1      -4.728  -1.346   0.404  0.00  0.00    -0.346 N 
ATOM     11  H   UNL     1      -5.676  -1.081   0.381  0.00  0.00    +0.143 HD
ATOM     12  H   UNL     1      -4.480  -2.267   0.647  0.00  0.00    +0.143 HD
ENDROOT
BRANCH   1  14
ATOM     13  O4* UNL     1       2.010  -0.519  -0.950  0.00  0.00    -0.333 OA
ATOM     14  C1* UNL     1       1.048   0.393  -0.386  0.00  0.00    +0.227 C 
ATOM     15  C2* UNL     1       1.700   0.982   0.856  0.00  0.00    +0.187 C 
ATOM     16  C3* UNL     1       3.153   1.048   0.431  0.00  0.00    +0.171 C 
ATOM     17  C4* UNL     1       3.311  -0.230  -0.387  0.00  0.00    +0.175 C 
BRANCH  15  18
ATOM     18  O2* UNL     1       1.161   2.246   1.184  0.00  0.00    -0.378 OA
ATOM     19  H2* UNL     1       0.233   2.144   1.448  0.00  0.00    +0.211 HD
ENDBRANCH  15  18
BRANCH  16  20
ATOM     20  O3* UNL     1       3.348   2.171  -0.427  0.00  0.00    -0.379 OA
ATOM     21  H3* UNL     1       3.249   2.990   0.084  0.00  0.00    +0.211 HD
ENDBRANCH  16  20
BRANCH  17  22
ATOM     22  C5* UNL     1       3.747  -1.423   0.453  0.00  0.00    +0.169 C 
BRANCH  22  23
ATOM     23  O5* UNL     1       3.854  -2.556  -0.390  0.00  0.00    -0.379 OA
ATOM     24  H5* UNL     1       4.131  -3.324   0.134  0.00  0.00    +0.211 HD
ENDBRANCH  22  23
ENDBRANCH  17  22
ENDBRANCH   1  14
TORSDOF 5
