REMARK  Name = 447076
REMARK  8 active torsions:
REMARK  status: ('A' for Active; 'I' for Inactive)
REMARK    1  A    between atoms: N_3  and  C_14
REMARK    2  A    between atoms: N_4  and  C_30
REMARK    3  A    between atoms: C_10  and  C_18
REMARK    4  A    between atoms: C_14  and  C_15
REMARK    5  A    between atoms: C_15  and  C_16
REMARK    6  A    between atoms: C_18  and  C_19
REMARK    7  A    between atoms: C_24  and  N_26
REMARK    8  A    between atoms: C_30  and  C_31
REMARK                            x       y       z     vdW  Elec       q    Type
REMARK                         _______ _______ _______ _____ _____    ______ ____
ROOT
ATOM      1  O   UNL     1      -4.821  -1.321  -0.358  0.00  0.00    -0.246 OA
ATOM      2  O   UNL     1      -3.059   3.025  -0.135  0.00  0.00    -0.265 OA
ATOM      3  N   UNL     1      -2.751  -1.024   0.662  0.00  0.00    -0.269 N 
ATOM      4  N   UNL     1      -3.965   0.857  -0.261  0.00  0.00    -0.243 N 
ATOM      5  N   UNL     1      -0.734   1.777   1.258  0.00  0.00    -0.313 N 
ATOM      6  N   UNL     1      -0.594  -0.409   1.676  0.00  0.00    -0.304 N 
ATOM      7  C   UNL     1      -1.764  -0.118   1.027  0.00  0.00    +0.132 A 
ATOM      8  C   UNL     1      -1.875   1.219   0.758  0.00  0.00    +0.133 A 
ATOM      9  C   UNL     1      -3.910  -0.561  -0.009  0.00  0.00    +0.335 A 
ATOM     10  C   UNL     1       0.005   0.757   1.800  0.00  0.00    +0.149 C 
ATOM     11  C   UNL     1      -2.984   1.821   0.092  0.00  0.00    +0.280 A 
ATOM     12  H   UNL     1      -0.488   2.730   1.234  0.00  0.00    +0.148 HD
ATOM     13  H   UNL     1      -0.274  -1.289   1.980  0.00  0.00    +0.150 HD
ENDROOT
BRANCH   3  14
ATOM     14  C   UNL     1      -2.587  -2.440   0.970  0.00  0.00    +0.112 C 
BRANCH  14  15
ATOM     15  C   UNL     1      -1.883  -3.201  -0.147  0.00  0.00    +0.025 C 
BRANCH  15  16
ATOM     16  C   UNL     1      -1.733  -4.693   0.160  0.00  0.00    +0.002 C 
ATOM     17  C   UNL     1      -1.083  -5.436  -0.996  0.00  0.00    +0.000 C 
ENDBRANCH  15  16
ENDBRANCH  14  15
ENDBRANCH   3  14
BRANCH  10  18
ATOM     18  C   UNL     1       1.312   1.013   2.435  0.00  0.00    +0.067 C 
BRANCH  18  19
ATOM     19  C   UNL     1       2.494   0.926   1.478  0.00  0.00    -0.019 C 
ATOM     20  C   UNL     1       3.121  -0.290   1.304  0.00  0.00    -0.003 C 
ATOM     21  C   UNL     1       2.899   2.065   0.815  0.00  0.00    -0.003 C 
ATOM     22  C   UNL     1       4.203  -0.370   0.427  0.00  0.00    +0.014 C 
ATOM     23  C   UNL     1       3.981   1.985  -0.062  0.00  0.00    +0.014 C 
ATOM     24  C   UNL     1       4.633   0.768  -0.256  0.00  0.00    +0.050 C 
BRANCH  24  26
ATOM     25  O   UNL     1       6.358  -1.577  -1.024  0.00  0.00    -0.275 OA
ATOM     26  N   UNL     1       5.715   0.688  -1.133  0.00  0.00    -0.284 N 
ATOM     27  C   UNL     1       6.488  -0.436  -1.454  0.00  0.00    +0.227 C 
ATOM     28  C   UNL     1       7.571  -0.104  -2.449  0.00  0.00    +0.095 C 
ATOM     29  H   UNL     1       5.967   1.527  -1.583  0.00  0.00    +0.155 HD
ENDBRANCH  24  26
ENDBRANCH  18  19
ENDBRANCH  10  18
BRANCH   4  30
ATOM     30  C   UNL     1      -5.152   1.353  -0.949  0.00  0.00    +0.140 C 
BRANCH  30  31
ATOM     31  C   UNL     1      -4.910   1.324  -2.422  0.00  0.00    -0.002 C 
ATOM     32  C   UNL     1      -4.974   2.403  -3.210  0.00  0.00    -0.003 C 
ENDBRANCH  30  31
ENDBRANCH   4  30
TORSDOF 8
