REMARK  Name = 4369172
REMARK  6 active torsions:
REMARK  status: ('A' for Active; 'I' for Inactive)
REMARK    1  A    between atoms: N_5  and  C_12
REMARK    2  A    between atoms: C_6  and  C_26
REMARK    3  A    between atoms: C_11  and  S_20
REMARK    4  A    between atoms: C_15  and  O_18
REMARK    5  A    between atoms: S_20  and  N_23
REMARK    6  A    between atoms: C_26  and  N_28
REMARK                            x       y       z     vdW  Elec       q    Type
REMARK                         _______ _______ _______ _____ _____    ______ ____
ROOT
ATOM      1  S   UNL     1      -0.742  -1.587  -0.417  0.00  0.00    +0.086 S 
ATOM      2  S   UNL     1      -3.691  -1.145  -0.598  0.00  0.00    -0.047 S 
ATOM      3  O   UNL     1      -0.496  -1.400  -1.833  0.00  0.00    -0.149 OA
ATOM      4  O   UNL     1      -1.016  -2.892   0.150  0.00  0.00    -0.149 OA
ATOM      5  N   UNL     1       0.464  -0.798   0.504  0.00  0.00    -0.175 N 
ATOM      6  C   UNL     1       0.284   0.559   1.000  0.00  0.00    +0.031 C 
ATOM      7  C   UNL     1      -2.165  -0.634  -0.090  0.00  0.00    +0.156 C 
ATOM      8  C   UNL     1      -2.172   0.566   0.559  0.00  0.00    +0.028 C 
ATOM      9  C   UNL     1      -0.944   1.125   1.025  0.00  0.00    +0.012 C 
ATOM     10  C   UNL     1      -3.483   1.103   0.655  0.00  0.00    +0.028 C 
ATOM     11  C   UNL     1      -4.415   0.267   0.067  0.00  0.00    +0.152 C 
ENDROOT
BRANCH   5  12
ATOM     12  C   UNL     1       1.788  -1.346   0.406  0.00  0.00    +0.076 C 
ATOM     13  C   UNL     1       2.525  -1.189  -0.768  0.00  0.00    +0.053 C 
ATOM     14  C   UNL     1       2.339  -2.038   1.486  0.00  0.00    +0.017 C 
ATOM     15  C   UNL     1       3.810  -1.722  -0.863  0.00  0.00    +0.135 C 
ATOM     16  C   UNL     1       3.625  -2.571   1.391  0.00  0.00    +0.004 C 
ATOM     17  C   UNL     1       4.360  -2.413   0.216  0.00  0.00    +0.037 C 
BRANCH  15  18
ATOM     18  O   UNL     1       4.528  -1.568  -2.010  0.00  0.00    -0.505 OA
ATOM     19  H   UNL     1       4.158  -1.104  -2.735  0.00  0.00    +0.292 HD
ENDBRANCH  15  18
ENDBRANCH   5  12
BRANCH  11  20
ATOM     20  S   UNL     1      -6.158   0.363  -0.137  0.00  0.00    +0.063 S 
ATOM     21  O   UNL     1      -6.623  -1.014  -0.257  0.00  0.00    -0.153 OA
ATOM     22  O   UNL     1      -6.621   1.210   0.955  0.00  0.00    -0.153 OA
BRANCH  20  23
ATOM     23  N   UNL     1      -6.495   1.159  -1.621  0.00  0.00    -0.203 NA
ATOM     24  H   UNL     1      -7.504   1.222  -1.752  0.00  0.00    +0.144 HD
ATOM     25  H   UNL     1      -6.084   0.632  -2.391  0.00  0.00    +0.144 HD
ENDBRANCH  20  23
ENDBRANCH  11  20
BRANCH   6  26
ATOM     26  C   UNL     1       1.469   1.294   1.569  0.00  0.00    -0.033 C 
BRANCH  26  28
ATOM     27  O   UNL     1       4.111   3.318  -0.988  0.00  0.00    -0.358 OA
ATOM     28  N   UNL     1       2.477   1.563   0.545  0.00  0.00    +0.394 N 
ATOM     29  C   UNL     1       1.917   2.387  -0.535  0.00  0.00    -0.044 C 
ATOM     30  C   UNL     1       3.650   2.228   1.130  0.00  0.00    -0.044 C 
ATOM     31  C   UNL     1       2.991   2.664  -1.584  0.00  0.00    +0.119 C 
ATOM     32  C   UNL     1       4.682   2.510   0.042  0.00  0.00    +0.119 C 
ATOM     33  H   UNL     1       2.772   0.668   0.154  0.00  0.00    -0.079 HD
ENDBRANCH  26  28
ENDBRANCH   6  26
TORSDOF 6
