REMARK  Name = 2969
REMARK  8 active torsions:
REMARK  status: ('A' for Active; 'I' for Inactive)
REMARK    1  A    between atoms: C_1  and  C_2
REMARK    2  A    between atoms: C_1  and  C_8
REMARK    3  A    between atoms: C_3  and  C_4
REMARK    4  A    between atoms: C_4  and  C_5
REMARK    5  A    between atoms: C_5  and  C_6
REMARK    6  A    between atoms: C_8  and  C_9
REMARK    7  A    between atoms: C_9  and  C_11
REMARK    8  A    between atoms: C_11  and  O_12
REMARK                            x       y       z     vdW  Elec       q    Type
REMARK                         _______ _______ _______ _____ _____    ______ ____
ROOT
ATOM      1  C   UNL     1      -0.861   0.570   0.028  0.00  0.00    +0.026 C 
ENDROOT
BRANCH   1   2
ATOM      2  C   UNL     1       0.394  -0.308   0.004  0.00  0.00    -0.031 C 
ATOM      3  C   UNL     1       1.731   0.438   0.070  0.00  0.00    -0.031 C 
BRANCH   3   4
ATOM      4  C   UNL     1       2.986  -0.437  -0.010  0.00  0.00    +0.026 C 
BRANCH   4   5
ATOM      5  C   UNL     1       4.288   0.366   0.013  0.00  0.00    +0.005 C 
BRANCH   5   6
ATOM      6  C   UNL     1       5.507  -0.555  -0.063  0.00  0.00    +0.000 C 
ATOM      7  C   UNL     1       6.805   0.233  -0.009  0.00  0.00    +0.000 C 
ENDBRANCH   5   6
ENDBRANCH   4   5
ENDBRANCH   3   4
ENDBRANCH   1   2
BRANCH   1   8
ATOM      8  C   UNL     1      -2.165  -0.236   0.040  0.00  0.00    +0.016 C 
BRANCH   8   9
ATOM      9  C   UNL     1      -3.403   0.660  -0.021  0.00  0.00    +0.110 C 
BRANCH   9  11
ATOM     10  O   UNL     1      -4.804  -1.333   0.022  0.00  0.00    -0.250 OA
ATOM     11  C   UNL     1      -4.702  -0.115  -0.021  0.00  0.00    +0.314 C 
BRANCH  11  12
ATOM     12  O   UNL     1      -5.776   0.718  -0.052  0.00  0.00    -0.480 OA
ATOM     13  H   UNL     1      -5.649   1.645  -0.085  0.00  0.00    +0.295 HD
ENDBRANCH  11  12
ENDBRANCH   9  11
ENDBRANCH   8   9
ENDBRANCH   1   8
TORSDOF 8
