REMARK  Name = 3852474
REMARK  4 active torsions:
REMARK  status: ('A' for Active; 'I' for Inactive)
REMARK    1  A    between atoms: N_1  and  C_4
REMARK    2  A    between atoms: N_1  and  C_10
REMARK    3  A    between atoms: C_10  and  C_11
REMARK    4  A    between atoms: C_11  and  S_12
REMARK                            x       y       z     vdW  Elec       q    Type
REMARK                         _______ _______ _______ _____ _____    ______ ____
ROOT
ATOM      1  N   UNL     1      -0.324   0.936  -0.229  0.00  0.00    +0.386 N 
ATOM      2  H   UNL     1      -0.205   1.890   0.112  0.00  0.00    -0.084 HD
ATOM      3  H   UNL     1      -0.371   0.885  -1.246  0.00  0.00    -0.084 HD
ENDROOT
BRANCH   1   4
ATOM      4  C   UNL     1      -1.617   0.413   0.287  0.00  0.00    -0.062 C 
ATOM      5  C   UNL     1      -2.740   1.348  -0.158  0.00  0.00    -0.021 C 
ATOM      6  C   UNL     1      -1.817  -1.009  -0.231  0.00  0.00    -0.021 C 
ATOM      7  C   UNL     1      -4.104   0.798   0.255  0.00  0.00    -0.002 C 
ATOM      8  C   UNL     1      -3.182  -1.555   0.181  0.00  0.00    -0.002 C 
ATOM      9  C   UNL     1      -4.314  -0.626  -0.252  0.00  0.00    -0.000 C 
ENDBRANCH   1   4
BRANCH   1  10
ATOM     10  C   UNL     1       0.860   0.142   0.187  0.00  0.00    -0.055 C 
BRANCH  10  11
ATOM     11  C   UNL     1       2.125   0.754  -0.379  0.00  0.00    +0.135 C 
BRANCH  11  12
ATOM     12  S   UNL     1       3.573  -0.169   0.027  0.00  0.00    +0.020 S 
ATOM     13  O   UNL     1       3.311  -1.480  -0.567  0.00  0.00    -0.070 OA
ATOM     14  O   UNL     1       4.645   0.594  -0.611  0.00  0.00    -0.070 OA
ATOM     15  O   UNL     1       3.585  -0.146   1.489  0.00  0.00    -0.070 OA
ENDBRANCH  11  12
ENDBRANCH  10  11
ENDBRANCH   1  10
TORSDOF 4
