REMARK  Name = 46936633
REMARK  9 active torsions:
REMARK  status: ('A' for Active; 'I' for Inactive)
REMARK    1  A    between atoms: N_2  and  C_16
REMARK    2  A    between atoms: C_3  and  C_7
REMARK    3  A    between atoms: C_16  and  C_17
REMARK    4  A    between atoms: C_17  and  O_18
REMARK    5  A    between atoms: C_17  and  N_20
REMARK    6  A    between atoms: N_20  and  C_22
REMARK    7  A    between atoms: N_20  and  C_27
REMARK    8  A    between atoms: C_27  and  C_28
REMARK    9  A    between atoms: C_28  and  O_29
REMARK                            x       y       z     vdW  Elec       q    Type
REMARK                         _______ _______ _______ _____ _____    ______ ____
ROOT
ATOM      1  O   UNL     1       0.128   1.383   1.144  0.00  0.00    -0.269 OA
ATOM      2  N   UNL     1      -0.246  -0.733   0.272  0.00  0.00    -0.300 N 
ATOM      3  C   UNL     1       0.550   0.334   0.665  0.00  0.00    +0.259 C 
ATOM      4  H   UNL     1       0.187  -1.534  -0.102  0.00  0.00    +0.150 HD
ENDROOT
BRANCH   3   7
ATOM      5 CL   UNL     1       7.897  -1.506  -0.848  0.00  0.00    -0.082 Cl
ATOM      6  N   UNL     1       2.939   1.119   0.782  0.00  0.00    -0.309 N 
ATOM      7  C   UNL     1       2.011   0.169   0.452  0.00  0.00    +0.102 C 
ATOM      8  C   UNL     1       2.679  -0.908  -0.085  0.00  0.00    +0.020 C 
ATOM      9  C   UNL     1       4.068  -0.600  -0.083  0.00  0.00    +0.016 C 
ATOM     10  C   UNL     1       4.204   0.677   0.466  0.00  0.00    +0.048 C 
ATOM     11  C   UNL     1       5.227  -1.287  -0.496  0.00  0.00    +0.013 C 
ATOM     12  C   UNL     1       5.446   1.303   0.623  0.00  0.00    +0.015 C 
ATOM     13  C   UNL     1       6.475  -0.673  -0.345  0.00  0.00    +0.058 C 
ATOM     14  C   UNL     1       6.581   0.602   0.206  0.00  0.00    +0.013 C 
ATOM     15  H   UNL     1       2.732   1.993   1.186  0.00  0.00    +0.152 HD
ENDBRANCH   3   7
BRANCH   2  16
ATOM     16  C   UNL     1      -1.683  -0.714   0.391  0.00  0.00    +0.097 C 
BRANCH  16  17
ATOM     17  C   UNL     1      -2.348  -0.149  -0.870  0.00  0.00    +0.079 C 
BRANCH  17  18
ATOM     18  O   UNL     1      -2.285  -1.152  -1.887  0.00  0.00    -0.403 OA
ATOM     19  H   UNL     1      -2.701  -0.818  -2.698  0.00  0.00    +0.208 HD
ENDBRANCH  17  18
BRANCH  17  20
ATOM     20  N   UNL     1      -3.715   0.328  -0.588  0.00  0.00    +0.409 N 
ATOM     21  H   UNL     1      -4.193   0.330  -1.489  0.00  0.00    -0.076 HD
BRANCH  20  22
ATOM     22  C   UNL     1      -4.465  -0.556   0.286  0.00  0.00    -0.054 C 
ATOM     23  C   UNL     1      -4.604  -1.965  -0.278  0.00  0.00    -0.021 C 
ATOM     24  C   UNL     1      -5.918  -0.127   0.452  0.00  0.00    -0.021 C 
ATOM     25  C   UNL     1      -6.603  -1.378   0.997  0.00  0.00    -0.002 C 
ATOM     26  C   UNL     1      -5.756  -2.563   0.525  0.00  0.00    -0.002 C 
ENDBRANCH  20  22
BRANCH  20  27
ATOM     27  C   UNL     1      -3.711   1.688  -0.050  0.00  0.00    -0.041 C 
BRANCH  27  28
ATOM     28  C   UNL     1      -3.424   2.700  -1.148  0.00  0.00    +0.115 C 
BRANCH  28  29
ATOM     29  O   UNL     1      -3.447   4.005  -0.585  0.00  0.00    -0.384 OA
ATOM     30  H   UNL     1      -3.265   4.659  -1.277  0.00  0.00    +0.210 HD
ENDBRANCH  28  29
ENDBRANCH  27  28
ENDBRANCH  20  27
ENDBRANCH  17  20
ENDBRANCH  16  17
ENDBRANCH   2  16
TORSDOF 9
