REMARK  Name = 4327
REMARK  4 active torsions:
REMARK  status: ('A' for Active; 'I' for Inactive)
REMARK    1  A    between atoms: C_1  and  N_8
REMARK    2  A    between atoms: C_3  and  N_23
REMARK    3  A    between atoms: C_12  and  C_17
REMARK    4  A    between atoms: C_24  and  C_27
REMARK                            x       y       z     vdW  Elec       q    Type
REMARK                         _______ _______ _______ _____ _____    ______ ____
ROOT
ATOM      1  C   UNL     1      -1.670  -2.523   0.042  0.00  0.00    +0.055 C 
ATOM      2  C   UNL     1      -1.717  -3.808  -0.498  0.00  0.00    -0.008 C 
ATOM      3  C   UNL     1       0.728  -2.490  -0.244  0.00  0.00    +0.052 C 
ATOM      4  C   UNL     1      -0.448  -1.864   0.169  0.00  0.00    +0.030 C 
ATOM      5  C   UNL     1      -0.541  -4.435  -0.911  0.00  0.00    -0.002 C 
ATOM      6  C   UNL     1       0.681  -3.776  -0.784  0.00  0.00    +0.014 C 
ATOM      7  C   UNL     1      -3.013  -4.537  -0.644  0.00  0.00    +0.032 C 
ENDROOT
BRANCH   1   8
ATOM      8  N   UNL     1      -2.852  -1.874   0.464  0.00  0.00    -0.248 N 
ATOM      9  N   UNL     1      -2.311   0.380   0.097  0.00  0.00    -0.337 NA
ATOM     10  N   UNL     1      -4.460  -0.248   0.990  0.00  0.00    -0.170 NA
ATOM     11  C   UNL     1      -3.225  -0.518   0.519  0.00  0.00    +0.149 C 
ATOM     12  C   UNL     1      -2.702   1.670   0.164  0.00  0.00    +0.147 C 
ATOM     13  C   UNL     1      -3.938   2.074   0.625  0.00  0.00    +0.055 C 
ATOM     14  C   UNL     1      -4.785   1.061   1.029  0.00  0.00    +0.114 C 
ATOM     15  H   UNL     1      -3.550  -2.490   0.782  0.00  0.00    +0.165 HD
BRANCH  12  17
ATOM     16  N   UNL     1      -0.790   4.855  -0.134  0.00  0.00    -0.242 NA
ATOM     17  C   UNL     1      -1.725   2.631  -0.289  0.00  0.00    +0.050 C 
ATOM     18  C   UNL     1      -0.799   2.303  -1.274  0.00  0.00    +0.006 C 
ATOM     19  C   UNL     1      -1.678   3.909   0.244  0.00  0.00    +0.101 C 
ATOM     20  C   UNL     1       0.130   3.250  -1.690  0.00  0.00    +0.021 C 
ATOM     21  C   UNL     1       0.094   4.500  -1.094  0.00  0.00    +0.099 C 
ENDBRANCH  12  17
ENDBRANCH   1   8
BRANCH   3  23
ATOM     22  O   UNL     1       1.359   0.235   0.833  0.00  0.00    -0.270 OA
ATOM     23  N   UNL     1       1.952  -1.831  -0.118  0.00  0.00    -0.280 N 
ATOM     24  C   UNL     1       2.192  -0.550   0.395  0.00  0.00    +0.251 C 
ATOM     25  H   UNL     1       2.743  -2.328  -0.429  0.00  0.00    +0.155 HD
BRANCH  24  27
ATOM     26  N   UNL     1       5.924  -0.710   0.396  0.00  0.00    -0.242 NA
ATOM     27  C   UNL     1       3.612  -0.111   0.371  0.00  0.00    +0.073 C 
ATOM     28  C   UNL     1       3.911   1.228   0.307  0.00  0.00    +0.008 C 
ATOM     29  C   UNL     1       4.614  -1.042   0.414  0.00  0.00    +0.103 C 
ATOM     30  C   UNL     1       5.248   1.609   0.287  0.00  0.00    +0.021 C 
ATOM     31  C   UNL     1       6.208   0.611   0.333  0.00  0.00    +0.099 C 
ENDBRANCH  24  27
ENDBRANCH   3  23
TORSDOF 4
