REMARK  Name = 6535
REMARK  6 active torsions:
REMARK  status: ('A' for Active; 'I' for Inactive)
REMARK    1  A    between atoms: P_1  and  O_3
REMARK    2  A    between atoms: P_1  and  O_6
REMARK    3  A    between atoms: P_1  and  O_9
REMARK    4  A    between atoms: O_3  and  C_4
REMARK    5  A    between atoms: O_6  and  C_7
REMARK    6  A    between atoms: O_9  and  C_10
REMARK                            x       y       z     vdW  Elec       q    Type
REMARK                         _______ _______ _______ _____ _____    ______ ____
ROOT
ATOM      1  P   UNL     1       0.175   0.026   0.744  0.00  0.00    +0.480 P 
ATOM      2  O   UNL     1       0.424   0.502   2.147  0.00  0.00    -0.227 OA
ENDROOT
BRANCH   1   3
ATOM      3  O   UNL     1       1.498  -0.489  -0.038  0.00  0.00    -0.273 OA
BRANCH   3   4
ATOM      4  C   UNL     1       2.566   0.422  -0.231  0.00  0.00    +0.154 C 
ATOM      5  C   UNL     1       3.682  -0.277  -0.978  0.00  0.00    +0.035 C 
ENDBRANCH   3   4
ENDBRANCH   1   3
BRANCH   1   6
ATOM      6  O   UNL     1      -0.422   1.152  -0.255  0.00  0.00    -0.273 OA
BRANCH   6   7
ATOM      7  C   UNL     1      -1.666   1.750   0.067  0.00  0.00    +0.154 C 
ATOM      8  C   UNL     1      -2.018   2.763  -1.001  0.00  0.00    +0.035 C 
ENDBRANCH   6   7
ENDBRANCH   1   6
BRANCH   1   9
ATOM      9  O   UNL     1      -0.868  -1.209   0.631  0.00  0.00    -0.273 OA
BRANCH   9  10
ATOM     10  C   UNL     1      -1.191  -1.755  -0.637  0.00  0.00    +0.154 C 
ATOM     11  C   UNL     1      -2.179  -2.886  -0.450  0.00  0.00    +0.035 C 
ENDBRANCH   9  10
ENDBRANCH   1   9
TORSDOF 6
