REMARK  Name = 6380
REMARK  0 active torsions:
REMARK  status: ('A' for Active; 'I' for Inactive)
REMARK                            x       y       z     vdW  Elec       q    Type
REMARK                         _______ _______ _______ _____ _____    ______ ____
ROOT
ATOM      1  N   UNL     1       0.000   0.000   0.000  0.00  0.00    +0.384 N 
ATOM      2  C   UNL     1      -0.938  -1.145   0.352  0.00  0.00    -0.096 C 
ATOM      3  C   UNL     1       0.674   0.511   1.265  0.00  0.00    -0.096 C 
ATOM      4  C   UNL     1      -0.795   1.128  -0.642  0.00  0.00    -0.096 C 
ATOM      5  C   UNL     1       1.059  -0.493  -0.975  0.00  0.00    -0.096 C 
ENDROOT
TORSDOF 0
