REMARK  Name = 9600398
REMARK  15 active torsions:
REMARK  status: ('A' for Active; 'I' for Inactive)
REMARK    1  A    between atoms: N_1  and  C_6
REMARK    2  A    between atoms: N_1  and  C_21
REMARK    3  A    between atoms: N_5  and  C_11
REMARK    4  A    between atoms: C_7  and  S_9
REMARK    5  A    between atoms: C_11  and  C_13
REMARK    6  A    between atoms: C_11  and  C_16
REMARK    7  A    between atoms: C_13  and  O_14
REMARK    8  A    between atoms: C_16  and  S_17
REMARK    9  A    between atoms: C_21  and  C_22
REMARK   10  A    between atoms: C_22  and  C_23
REMARK   11  A    between atoms: C_23  and  C_24
REMARK   12  A    between atoms: C_24  and  C_25
REMARK   13  A    between atoms: C_25  and  N_26
REMARK   14  A    between atoms: C_25  and  C_31
REMARK   15  A    between atoms: C_31  and  O_32
REMARK                            x       y       z     vdW  Elec       q    Type
REMARK                         _______ _______ _______ _____ _____    ______ ____
ROOT
ATOM      1  N   UNK A   1       0.290   0.349  -1.148  0.00  0.00    -0.362 NA
ATOM      2  H   UNK A   1       0.375  -0.099  -2.021  0.00  0.00    +0.127 HD
ATOM      3  H   UNK A   1       0.019   0.603  -0.237  0.00  0.00    +0.127 HD
ENDROOT
BRANCH   1   6
ATOM      4  O   UNK A   1      -1.438  -0.018   1.563  0.00  0.00    -0.273 OA
ATOM      5  N   UNK A   2      -2.753  -0.118  -0.388  0.00  0.00    -0.260 N 
ATOM      6  C   UNK A   1      -1.013   0.922  -0.769  0.00  0.00    +0.161 C 
ATOM      7  C   UNK A   1      -2.246   0.522  -1.591  0.00  0.00    +0.146 C 
ATOM      8  C   UNK A   1      -1.688   0.193   0.398  0.00  0.00    +0.246 C 
BRANCH   7   9
ATOM      9  S   UNK A   1      -1.975  -0.710  -2.910  0.00  0.00    -0.147 S 
ATOM     10  H   UNK A   1      -3.151  -0.961  -3.544  0.00  0.00    +0.104 HD
ENDBRANCH   7   9
BRANCH   5  11
ATOM     11  C   UNK A   2      -4.022  -0.707  -0.099  0.00  0.00    +0.189 C 
BRANCH  11  13
ATOM     12  O   UNK A   2      -4.812  -2.871   0.637  0.00  0.00    -0.248 OA
ATOM     13  C   UNK A   2      -3.860  -2.133   0.403  0.00  0.00    +0.333 C 
BRANCH  13  14
ATOM     14  O   UNK A   2      -2.578  -2.536   0.568  0.00  0.00    -0.479 OA
ATOM     15  H   UNK A   2      -1.874  -1.947   0.380  0.00  0.00    +0.295 HD
ENDBRANCH  13  14
ENDBRANCH  11  13
BRANCH  11  16
ATOM     16  C   UNK A   2      -4.798   0.119   0.923  0.00  0.00    +0.123 C 
BRANCH  16  17
ATOM     17  S   UNK A   2      -5.019   1.839   0.363  0.00  0.00    +0.045 S 
ATOM     18  O   UNK A   2      -5.927   1.799  -0.825  0.00  0.00    -0.256 OA
ATOM     19  C   UNK A   2      -6.002   2.356   1.790  0.00  0.00    +0.106 C 
ENDBRANCH  16  17
ENDBRANCH  11  16
ENDBRANCH   5  11
ENDBRANCH   1   6
BRANCH   1  21
ATOM     20  O   UNK A   1       1.421   0.947   0.787  0.00  0.00    -0.277 OA
ATOM     21  C   UNK A   1       1.405   0.416  -0.321  0.00  0.00    +0.207 C 
BRANCH  21  22
ATOM     22  C   UNK A   1       2.624  -0.226  -0.962  0.00  0.00    +0.083 C 
BRANCH  22  23
ATOM     23  C   UNK A   1       3.876  -0.175  -0.085  0.00  0.00    +0.008 C 
BRANCH  23  24
ATOM     24  C   UNK A   1       5.084  -0.842  -0.763  0.00  0.00    -0.011 C 
BRANCH  24  25
ATOM     25  C   UNK A   1       6.393  -0.772   0.038  0.00  0.00    +0.036 C 
BRANCH  25  26
ATOM     26  N   UNK A   1       6.329  -1.524   1.292  0.00  0.00    +0.389 N 
ATOM     27  H   UNK A   1       6.062  -2.489   1.096  0.00  0.00    -0.088 HD
ATOM     28  H   UNK A   1       5.636  -1.099   1.908  0.00  0.00    -0.088 HD
ATOM     29  H   UNK A   1       7.242  -1.509   1.744  0.00  0.00    -0.088 HD
ENDBRANCH  25  26
BRANCH  25  31
ATOM     30  O   UNK A   1       6.932   1.115   1.491  0.00  0.00    -0.253 OA
ATOM     31  C   UNK A   1       6.792   0.656   0.365  0.00  0.00    +0.293 C 
BRANCH  31  32
ATOM     32  O   UNK A   1       6.987   1.399  -0.757  0.00  0.00    -0.482 OA
ATOM     33  H   UNK A   1       6.870   1.011  -1.602  0.00  0.00    +0.295 HD
ENDBRANCH  31  32
ENDBRANCH  25  31
ENDBRANCH  24  25
ENDBRANCH  23  24
ENDBRANCH  22  23
ENDBRANCH  21  22
ENDBRANCH   1  21
TORSDOF 15
