REMARK  Name = 447966
REMARK  2 active torsions:
REMARK  status: ('A' for Active; 'I' for Inactive)
REMARK    1  A    between atoms: C_3  and  C_8
REMARK    2  A    between atoms: C_4  and  C_18
REMARK                            x       y       z     vdW  Elec       q    Type
REMARK                         _______ _______ _______ _____ _____    ______ ____
ROOT
ATOM      1  N   UNL     1       2.348  -2.110   0.599  0.00  0.00    -0.234 N 
ATOM      2  N   UNL     1       1.687  -3.280   0.575  0.00  0.00    -0.180 NA
ATOM      3  C   UNL     1       0.391  -1.570  -0.179  0.00  0.00    +0.037 C 
ATOM      4  C   UNL     1       1.611  -1.052   0.155  0.00  0.00    +0.084 C 
ATOM      5  C   UNL     1       0.487  -2.941   0.097  0.00  0.00    +0.119 C 
ATOM      6  H   UNL     1       3.279  -2.025   0.909  0.00  0.00    +0.174 HD
ENDROOT
BRANCH   3   8
ATOM      7  N   UNL     1      -2.798   0.658  -1.825  0.00  0.00    -0.248 NA
ATOM      8  C   UNL     1      -0.713  -0.802  -0.701  0.00  0.00    +0.002 C 
ATOM      9  C   UNL     1      -1.675  -0.205   0.125  0.00  0.00    -0.004 C 
ATOM     10  C   UNL     1      -2.715   0.526  -0.488  0.00  0.00    +0.060 C 
ATOM     11  C   UNL     1      -0.797  -0.668  -2.079  0.00  0.00    +0.020 C 
ATOM     12  C   UNL     1      -1.619  -0.322   1.524  0.00  0.00    +0.053 C 
ATOM     13  C   UNL     1      -3.670   1.119   0.333  0.00  0.00    +0.071 C 
ATOM     14  C   UNL     1      -1.850   0.066  -2.586  0.00  0.00    +0.098 C 
ATOM     15  C   UNL     1      -2.588   0.282   2.321  0.00  0.00    -0.026 C 
ATOM     16  C   UNL     1      -3.615   1.003   1.724  0.00  0.00    -0.024 C 
ENDBRANCH   3   8
BRANCH   4  18
ATOM     17  N   UNL     1       1.228   1.264   0.271  0.00  0.00    -0.243 NA
ATOM     18  C   UNL     1       2.146   0.287   0.104  0.00  0.00    +0.096 C 
ATOM     19  C   UNL     1       3.496   0.513  -0.100  0.00  0.00    +0.020 C 
ATOM     20  C   UNL     1       3.934   1.832  -0.135  0.00  0.00    +0.003 C 
ATOM     21  C   UNL     1       1.691   2.533   0.231  0.00  0.00    +0.099 C 
ATOM     22  C   UNL     1       3.021   2.867   0.033  0.00  0.00    +0.021 C 
ENDBRANCH   4  18
TORSDOF 2
