REMARK  Name = 1549100
REMARK  8 active torsions:
REMARK  status: ('A' for Active; 'I' for Inactive)
REMARK    1  A    between atoms: C_1  and  C_2
REMARK    2  A    between atoms: C_1  and  C_11
REMARK    3  A    between atoms: C_2  and  CA_3
REMARK    4  A    between atoms: CA_3  and  N_4
REMARK    5  A    between atoms: CA_3  and  C_10
REMARK    6  A    between atoms: C_11  and  CA_12
REMARK    7  A    between atoms: CA_12  and  N_13
REMARK    8  A    between atoms: CA_12  and  C_19
REMARK                            x       y       z     vdW  Elec       q    Type
REMARK                         _______ _______ _______ _____ _____    ______ ____
ROOT
ATOM      1  C   UNL     1       0.025  -0.668   0.110  0.00  0.00    -0.003 C 
ENDROOT
BRANCH   1   2
ATOM      2  C   UNL     1      -1.303  -1.212  -0.431  0.00  0.00    -0.011 C 
BRANCH   2   3
ATOM      3  CA  UNL     1      -2.513  -0.621   0.302  0.00  0.00    +0.040 C 
BRANCH   3   4
ATOM      4  N   UNL     1      -3.732  -1.252  -0.298  0.00  0.00    +0.389 N 
ATOM      5  H1  UNL     1      -3.646  -2.267  -0.255  0.00  0.00    -0.088 HD
ATOM      6  H2  UNL     1      -3.822  -0.959  -1.272  0.00  0.00    -0.088 HD
ATOM      7  H3  UNL     1      -4.558  -0.957   0.223  0.00  0.00    -0.088 HD
ENDBRANCH   3   4
BRANCH   3  10
ATOM      8  O   UNL     1      -2.602   1.435  -0.893  0.00  0.00    -0.248 OA
ATOM      9  OXT UNL     1      -2.641   1.468   1.392  0.00  0.00    -0.248 OA
ATOM     10  C   UNL     1      -2.599   0.912   0.257  0.00  0.00    +0.345 C 
ENDBRANCH   3  10
ENDBRANCH   2   3
ENDBRANCH   1   2
BRANCH   1  11
ATOM     11  C   UNL     1       1.213  -1.218  -0.692  0.00  0.00    -0.011 C 
BRANCH  11  12
ATOM     12  CA  UNL     1       2.587  -0.770  -0.176  0.00  0.00    +0.040 C 
BRANCH  12  13
ATOM     13  N   UNL     1       2.817  -1.377   1.173  0.00  0.00    +0.389 N 
ATOM     14  H1  UNL     1       2.626  -2.378   1.133  0.00  0.00    -0.088 HD
ATOM     15  H2  UNL     1       2.194  -0.939   1.852  0.00  0.00    -0.088 HD
ATOM     16  H3  UNL     1       3.786  -1.226   1.453  0.00  0.00    -0.088 HD
ENDBRANCH  12  13
BRANCH  12  19
ATOM     17  O   UNL     1       3.658   1.184   0.634  0.00  0.00    -0.248 OA
ATOM     18  OXT UNL     1       2.243   1.374  -1.145  0.00  0.00    -0.248 OA
ATOM     19  C   UNL     1       2.847   0.745  -0.231  0.00  0.00    +0.345 C 
ENDBRANCH  12  19
ENDBRANCH  11  12
ENDBRANCH   1  11
TORSDOF 8
