REMARK  Name = 447569
REMARK  5 active torsions:
REMARK  status: ('A' for Active; 'I' for Inactive)
REMARK    1  A    between atoms: CA_1  and  N_2
REMARK    2  A    between atoms: CA_1  and  C_7
REMARK    3  A    between atoms: CA_1  and  C_10
REMARK    4  A    between atoms: C_7  and  O_8
REMARK    5  A    between atoms: C_10  and  C_12
REMARK                            x       y       z     vdW  Elec       q    Type
REMARK                         _______ _______ _______ _____ _____    ______ ____
ROOT
ATOM      1  CA  UNL     1      -0.727   0.634  -0.495  0.00  0.00    +0.038 C 
ENDROOT
BRANCH   1   2
ATOM      2  N   UNL     1      -1.635   1.780  -0.436  0.00  0.00    +0.389 N 
ATOM      3  H1  UNL     1      -1.157   2.610  -0.787  0.00  0.00    -0.088 HD
ATOM      4  H2  UNL     1      -1.922   1.936   0.530  0.00  0.00    -0.088 HD
ATOM      5  H3  UNL     1      -2.457   1.593  -1.009  0.00  0.00    -0.088 HD
ENDBRANCH   1   2
BRANCH   1   7
ATOM      6  OXT UNL     1      -2.351  -0.529   0.910  0.00  0.00    -0.253 OA
ATOM      7  C   UNL     1      -1.495  -0.559   0.037  0.00  0.00    +0.293 C 
BRANCH   7   8
ATOM      8  O   UNL     1      -1.086  -1.702  -0.572  0.00  0.00    -0.482 OA
ATOM      9  H   UNL     1      -0.425  -1.669  -1.236  0.00  0.00    +0.295 HD
ENDBRANCH   7   8
ENDBRANCH   1   7
BRANCH   1  10
ATOM     10  C   UNL     1       0.517   0.913   0.354  0.00  0.00    +0.021 C 
BRANCH  10  12
ATOM     11  O   UNL     1       2.839   0.141   0.538  0.00  0.00    -0.351 OA
ATOM     12  C   UNL     1       1.475  -0.242   0.382  0.00  0.00    +0.143 C 
ATOM     13  C   UNL     1       2.462  -0.436  -0.719  0.00  0.00    +0.171 C 
ENDBRANCH  10  12
ENDBRANCH   1  10
TORSDOF 5
