REMARK  Name = 448672
REMARK  3 active torsions:
REMARK  status: ('A' for Active; 'I' for Inactive)
REMARK    1  A    between atoms: C_4  and  C_11
REMARK    2  A    between atoms: C_11  and  N_12
REMARK    3  A    between atoms: N_12  and  C_15
REMARK                            x       y       z     vdW  Elec       q    Type
REMARK                         _______ _______ _______ _____ _____    ______ ____
ROOT
ATOM      1  N   UNL     1       2.081  -1.062  -0.297  0.00  0.00    -0.341 NA
ATOM      2  N   UNL     1       2.162   1.248   0.385  0.00  0.00    -0.186 NA
ATOM      3  N   UNL     1       0.031  -2.252  -0.242  0.00  0.00    -0.332 N 
ATOM      4  C   UNL     1       0.095   0.047   0.441  0.00  0.00    +0.021 C 
ATOM      5  C   UNL     1       0.759  -1.056  -0.027  0.00  0.00    +0.183 C 
ATOM      6  C   UNL     1       0.838   1.183   0.634  0.00  0.00    +0.108 C 
ATOM      7  C   UNL     1       2.712   0.107  -0.071  0.00  0.00    +0.066 C 
ATOM      8  C   UNL     1       4.175   0.140  -0.358  0.00  0.00    +0.129 C 
ATOM      9  H   UNL     1       0.491  -3.055  -0.578  0.00  0.00    +0.145 HD
ATOM     10  H   UNL     1      -0.935  -2.280  -0.055  0.00  0.00    +0.145 HD
ENDROOT
BRANCH   4  11
ATOM     11  C   UNL     1      -1.379   0.049   0.741  0.00  0.00    -0.044 C 
BRANCH  11  12
ATOM     12  N   UNL     1      -2.143   0.438  -0.444  0.00  0.00    +0.388 N 
ATOM     13  C   UNL     1      -1.758   1.780  -0.881  0.00  0.00    -0.100 C 
ATOM     14  H   UNL     1      -1.932  -0.219  -1.195  0.00  0.00    -0.079 HD
BRANCH  12  15
ATOM     15  C   UNL     1      -3.578   0.383  -0.168  0.00  0.00    -0.077 C 
ATOM     16  C   UNL     1      -3.995  -1.005   0.288  0.00  0.00    -0.025 C 
ENDBRANCH  12  15
ENDBRANCH  11  12
ENDBRANCH   4  11
TORSDOF 3
