REMARK  Name = 1331
REMARK  8 active torsions:
REMARK  status: ('A' for Active; 'I' for Inactive)
REMARK    1  A    between atoms: C_1  and  C_7
REMARK    2  A    between atoms: C_2  and  C_16
REMARK    3  A    between atoms: C_7  and  C_8
REMARK    4  A    between atoms: C_8  and  S_9
REMARK    5  A    between atoms: S_9  and  C_12
REMARK    6  A    between atoms: C_16  and  C_17
REMARK    7  A    between atoms: C_17  and  S_18
REMARK    8  A    between atoms: S_18  and  C_21
REMARK                            x       y       z     vdW  Elec       q    Type
REMARK                         _______ _______ _______ _____ _____    ______ ____
ROOT
ATOM      1  C   UNL     1       1.209   1.695  -0.280  0.00  0.00    -0.022 C 
ATOM      2  C   UNL     1      -1.207   1.695  -0.281  0.00  0.00    -0.022 C 
ATOM      3  C   UNL     1       0.002   1.222  -0.793  0.00  0.00    -0.008 C 
ATOM      4  C   UNL     1       1.208   2.641   0.745  0.00  0.00    -0.004 C 
ATOM      5  C   UNL     1      -1.207   2.641   0.744  0.00  0.00    -0.004 C 
ATOM      6  C   UNL     1       0.000   3.114   1.257  0.00  0.00    -0.001 C 
ENDROOT
BRANCH   1   7
ATOM      7  C   UNL     1       2.501   1.190  -0.827  0.00  0.00    +0.038 C 
BRANCH   7   8
ATOM      8  C   UNL     1       3.064  -0.055  -0.120  0.00  0.00    +0.070 C 
BRANCH   8   9
ATOM      9  S   UNL     1       4.648  -0.601  -0.829  0.00  0.00    -0.081 S 
BRANCH   9  12
ATOM     10  N   UNL     1       6.175  -2.642  -0.167  0.00  0.00    -0.338 N 
ATOM     11  N   UNL     1       4.195  -2.389   1.095  0.00  0.00    -0.280 NA
ATOM     12  C   UNL     1       5.005  -2.016   0.156  0.00  0.00    +0.145 C 
ATOM     13  H   UNL     1       6.735  -2.293  -0.898  0.00  0.00    +0.144 HD
ATOM     14  H   UNL     1       6.459  -3.443   0.331  0.00  0.00    +0.144 HD
ATOM     15  H   UNL     1       3.369  -1.881   1.264  0.00  0.00    +0.189 HD
ENDBRANCH   9  12
ENDBRANCH   8   9
ENDBRANCH   7   8
ENDBRANCH   1   7
BRANCH   2  16
ATOM     16  C   UNL     1      -2.498   1.189  -0.830  0.00  0.00    +0.038 C 
BRANCH  16  17
ATOM     17  C   UNL     1      -3.062  -0.055  -0.124  0.00  0.00    +0.070 C 
BRANCH  17  18
ATOM     18  S   UNL     1      -4.626  -0.624  -0.859  0.00  0.00    -0.081 S 
BRANCH  18  21
ATOM     19  N   UNL     1      -6.170  -2.646  -0.179  0.00  0.00    -0.338 N 
ATOM     20  N   UNL     1      -4.228  -2.351   1.132  0.00  0.00    -0.280 NA
ATOM     21  C   UNL     1      -5.010  -2.007   0.160  0.00  0.00    +0.145 C 
ATOM     22  H   UNL     1      -6.709  -2.320  -0.935  0.00  0.00    +0.144 HD
ATOM     23  H   UNL     1      -6.465  -3.433   0.333  0.00  0.00    +0.144 HD
ATOM     24  H   UNL     1      -3.408  -1.835   1.310  0.00  0.00    +0.189 HD
ENDBRANCH  18  21
ENDBRANCH  17  18
ENDBRANCH  16  17
ENDBRANCH   2  16
TORSDOF 8
