REMARK  Name = 17754054
REMARK  10 active torsions:
REMARK  status: ('A' for Active; 'I' for Inactive)
REMARK    1  A    between atoms: C_1  and  C_2
REMARK    2  A    between atoms: C_1  and  C_12
REMARK    3  A    between atoms: C_2  and  C_3
REMARK    4  A    between atoms: C_3  and  N_4
REMARK    5  A    between atoms: C_3  and  C_9
REMARK    6  A    between atoms: C_9  and  O_10
REMARK    7  A    between atoms: C_12  and  C_13
REMARK    8  A    between atoms: C_13  and  N_14
REMARK    9  A    between atoms: N_14  and  C_18
REMARK   10  A    between atoms: C_18  and  O_19
REMARK                            x       y       z     vdW  Elec       q    Type
REMARK                         _______ _______ _______ _____ _____    ______ ____
ROOT
ATOM      1  C   UNK     1       0.338  -0.879  -0.403  0.00  0.00    +0.000 C 
ENDROOT
BRANCH   1   2
ATOM      2  C   UNK     1       1.627  -1.233   0.345  0.00  0.00    -0.011 C 
BRANCH   2   3
ATOM      3  C   UNK     1       2.855  -0.500  -0.211  0.00  0.00    +0.036 C 
BRANCH   3   4
ATOM      4  N   UNK     1       4.042  -0.897   0.550  0.00  0.00    +0.389 N 
ATOM      5  H   UNK     1       4.169  -1.907   0.480  0.00  0.00    -0.088 HD
ATOM      6  H   UNK     1       3.920  -0.638   1.529  0.00  0.00    -0.088 HD
ATOM      7  H   UNK     1       4.863  -0.424   0.173  0.00  0.00    -0.088 HD
ENDBRANCH   3   4
BRANCH   3   9
ATOM      8  O   UNK     1       3.021   1.652   0.921  0.00  0.00    -0.253 OA
ATOM      9  C   UNK     1       2.713   1.006  -0.072  0.00  0.00    +0.293 C 
BRANCH   9  10
ATOM     10  O   UNK     1       2.173   1.577  -1.180  0.00  0.00    -0.482 OA
ATOM     11  H   UNK     1       1.951   1.046  -1.920  0.00  0.00    +0.295 HD
ENDBRANCH   9  10
ENDBRANCH   3   9
ENDBRANCH   2   3
ENDBRANCH   1   2
BRANCH   1  12
ATOM     12  C   UNK     1      -0.905  -1.629   0.095  0.00  0.00    +0.020 C 
BRANCH  12  13
ATOM     13  C   UNK     1      -2.172  -1.384  -0.719  0.00  0.00    +0.074 C 
BRANCH  13  14
ATOM     14  N   UNK     1      -2.591  -0.012  -0.708  0.00  0.00    -0.338 NA
ATOM     15  H   UNK     1      -2.243   0.584  -1.411  0.00  0.00    +0.130 HD
ATOM     16  H   UNK     1      -1.969   0.397  -0.065  0.00  0.00    +0.130 HD
BRANCH  14  18
ATOM     17  O   UNK     1      -3.977  -0.069   1.164  0.00  0.00    -0.228 OA
ATOM     18  C   UNK     1      -3.454   0.524   0.229  0.00  0.00    +0.382 C 
BRANCH  18  19
ATOM     19  O   UNK     1      -3.670   1.845  -0.010  0.00  0.00    -0.467 OA
ATOM     20  H   UNK     1      -3.252   2.264  -0.736  0.00  0.00    +0.297 HD
ENDBRANCH  18  19
ENDBRANCH  14  18
ENDBRANCH  13  14
ENDBRANCH  12  13
ENDBRANCH   1  12
TORSDOF 10
