REMARK  Name = 5287974
REMARK  3 active torsions:
REMARK  status: ('A' for Active; 'I' for Inactive)
REMARK    1  A    between atoms: C_1  and  C_2
REMARK    2  A    between atoms: C_1  and  C_5
REMARK    3  A    between atoms: C_5  and  C_8
REMARK                            x       y       z     vdW  Elec       q    Type
REMARK                         _______ _______ _______ _____ _____    ______ ____
ROOT
ATOM      1  C   UNL     1      -0.383  -0.305  -1.011  0.00  0.00    +0.008 C 
ENDROOT
BRANCH   1   2
ATOM      2  C   UNL     1      -1.157   0.355   0.089  0.00  0.00    +0.000 C 
ATOM      3  C   UNL     1      -2.590   0.699  -0.147  0.00  0.00    +0.000 C 
ATOM      4  C   UNL     1      -2.227  -0.423   0.781  0.00  0.00    +0.000 C 
ENDBRANCH   1   2
BRANCH   1   5
ATOM      5  C   UNL     1       1.085  -0.567  -0.646  0.00  0.00    +0.065 C 
ATOM      6  C   UNL     1       1.235  -1.550   0.512  0.00  0.00    +0.008 C 
BRANCH   5   8
ATOM      7  O   UNL     1       2.292   1.030   0.744  0.00  0.00    -0.288 OA
ATOM      8  C   UNL     1       1.746   0.761  -0.322  0.00  0.00    +0.207 C 
ENDBRANCH   5   8
ENDBRANCH   1   5
TORSDOF 3
