REMARK  Name = 129891
REMARK  5 active torsions:
REMARK  status: ('A' for Active; 'I' for Inactive)
REMARK    1  A    between atoms: C_1  and  C_2
REMARK    2  A    between atoms: C_1  and  C_7
REMARK    3  A    between atoms: C_2  and  O_5
REMARK    4  A    between atoms: C_7  and  C_9
REMARK    5  A    between atoms: C_9  and  C_10
REMARK                            x       y       z     vdW  Elec       q    Type
REMARK                         _______ _______ _______ _____ _____    ______ ____
ROOT
ATOM      1  C   UNL     1      -0.773   0.548  -0.069  0.00  0.00    +0.035 C 
ENDROOT
BRANCH   1   2
ATOM      2  C   UNL     1      -2.207  -0.014  -0.003  0.00  0.00    +0.089 C 
ATOM      3  C   UNL     1      -2.538  -0.914  -1.196  0.00  0.00    +0.029 C 
ATOM      4  C   UNL     1      -2.479  -0.752   1.308  0.00  0.00    +0.029 C 
BRANCH   2   5
ATOM      5  O   UNL     1      -3.107   1.102  -0.039  0.00  0.00    -0.387 OA
ATOM      6  H   UNL     1      -2.969   1.602  -0.859  0.00  0.00    +0.210 HD
ENDBRANCH   2   5
ENDBRANCH   1   2
BRANCH   1   7
ATOM      7  C   UNL     1       0.344  -0.493  -0.007  0.00  0.00    +0.067 C 
BRANCH   7   9
ATOM      8  O   UNL     1       1.895   1.359  -0.011  0.00  0.00    -0.296 OA
ATOM      9  C   UNL     1       1.729   0.140  -0.001  0.00  0.00    +0.151 C 
BRANCH   9  10
ATOM     10  C   UNL     1       2.894  -0.836   0.021  0.00  0.00    +0.065 C 
ATOM     11  C   UNL     1       4.243  -0.140  -0.003  0.00  0.00    +0.008 C 
ENDBRANCH   9  10
ENDBRANCH   7   9
ENDBRANCH   1   7
TORSDOF 5
