REMARK  Name = 5287587
REMARK  7 active torsions:
REMARK  status: ('A' for Active; 'I' for Inactive)
REMARK    1  A    between atoms: CA_1  and  N_2
REMARK    2  A    between atoms: CA_1  and  C_7
REMARK    3  A    between atoms: CA_1  and  C_10
REMARK    4  A    between atoms: C_7  and  O_8
REMARK    5  A    between atoms: C_10  and  C_11
REMARK    6  A    between atoms: C_11  and  C_12
REMARK    7  A    between atoms: C_12  and  O_13
REMARK                            x       y       z     vdW  Elec       q    Type
REMARK                         _______ _______ _______ _____ _____    ______ ____
ROOT
ATOM      1  CA  UNL     1       1.068   0.655   0.502  0.00  0.00    +0.036 C 
ENDROOT
BRANCH   1   2
ATOM      2  N   UNL     1       2.051   1.679   0.140  0.00  0.00    +0.389 N 
ATOM      3  H1  UNL     1       1.749   2.584   0.501  0.00  0.00    -0.088 HD
ATOM      4  H2  UNL     1       2.132   1.729  -0.876  0.00  0.00    -0.088 HD
ATOM      5  H3  UNL     1       2.957   1.438   0.541  0.00  0.00    -0.088 HD
ENDBRANCH   1   2
BRANCH   1   7
ATOM      6  OXT UNL     1       2.197  -0.793  -1.101  0.00  0.00    -0.253 OA
ATOM      7  C   UNL     1       1.566  -0.666  -0.059  0.00  0.00    +0.293 C 
BRANCH   7   8
ATOM      8  O   UNL     1       1.256  -1.717   0.743  0.00  0.00    -0.482 OA
ATOM      9  H   UNL     1       0.771  -1.576   1.533  0.00  0.00    +0.295 HD
ENDBRANCH   7   8
ENDBRANCH   1   7
BRANCH   1  10
ATOM     10  C   UNL     1      -0.298   1.034  -0.083  0.00  0.00    -0.008 C 
BRANCH  10  11
ATOM     11  C   UNL     1      -1.387  -0.001   0.230  0.00  0.00    +0.030 C 
BRANCH  11  12
ATOM     12  C   UNL     1      -2.744   0.403  -0.335  0.00  0.00    +0.137 C 
BRANCH  12  13
ATOM     13  O   UNL     1      -3.710  -0.595  -0.036  0.00  0.00    -0.382 OA
ATOM     14  H   UNL     1      -4.570  -0.331  -0.398  0.00  0.00    +0.210 HD
ENDBRANCH  12  13
ENDBRANCH  11  12
ENDBRANCH  10  11
ENDBRANCH   1  10
TORSDOF 7
