REMARK  Name = 17753774
REMARK  1 active torsions:
REMARK  status: ('A' for Active; 'I' for Inactive)
REMARK    1  A    between atoms: C_1  and  N_9
REMARK                            x       y       z     vdW  Elec       q    Type
REMARK                         _______ _______ _______ _____ _____    ______ ____
ROOT
ATOM      1  C   UNL     1       0.049   0.926  -0.193  0.00  0.00    +0.018 C 
ATOM      2  C   UNL     1       1.266   0.004  -0.159  0.00  0.00    -0.011 C 
ATOM      3  C   UNL     1      -1.289   0.187  -0.176  0.00  0.00    -0.011 C 
ATOM      4  C   UNL     1       1.140  -1.316   0.068  0.00  0.00    -0.003 C 
ATOM      5  C   UNL     1      -1.285  -1.226   0.165  0.00  0.00    -0.003 C 
ATOM      6  C   UNL     1       2.610   0.625  -0.419  0.00  0.00    +0.032 C 
ATOM      7  C   UNL     1      -0.147  -1.922   0.293  0.00  0.00    -0.001 C 
ATOM      8  C   UNL     1      -2.440   0.812  -0.478  0.00  0.00    +0.032 C 
ENDROOT
BRANCH   1   9
ATOM      9  N   UNL     1       0.096   1.910   0.899  0.00  0.00    -0.416 NA
ATOM     10  H   UNL     1       0.993   2.397   0.879  0.00  0.00    +0.121 HD
ATOM     11  H   UNL     1      -0.011   1.431   1.793  0.00  0.00    +0.121 HD
ATOM     12  H   UNL     1      -0.660   2.585   0.782  0.00  0.00    +0.121 HD
ENDBRANCH   1   9
TORSDOF 1
