REMARK  Name = 64727
REMARK  14 active torsions:
REMARK  status: ('A' for Active; 'I' for Inactive)
REMARK    1  A    between atoms: C_2  and  C_20
REMARK    2  A    between atoms: C_3  and  O_13
REMARK    3  A    between atoms: O_13  and  C_15
REMARK    4  A    between atoms: C_15  and  C_16
REMARK    5  A    between atoms: C_16  and  C_18
REMARK    6  A    between atoms: C_20  and  C_21
REMARK    7  A    between atoms: C_21  and  C_22
REMARK    8  A    between atoms: C_22  and  O_23
REMARK    9  A    between atoms: C_22  and  C_25
REMARK   10  A    between atoms: C_25  and  C_26
REMARK   11  A    between atoms: C_26  and  O_27
REMARK   12  A    between atoms: C_26  and  C_29
REMARK   13  A    between atoms: C_29  and  C_31
REMARK   14  A    between atoms: C_31  and  O_32
REMARK                            x       y       z     vdW  Elec       q    Type
REMARK                         _______ _______ _______ _____ _____    ______ ____
ROOT
ATOM      1  C   UNL     1       1.113   1.509   0.369  0.00  0.00    +0.062 C 
ATOM      2  C   UNL     1       0.143   0.922  -0.698  0.00  0.00    +0.012 C 
ATOM      3  C   UNL     1       1.998   0.438   1.048  0.00  0.00    +0.173 C 
ATOM      4  C   UNL     1      -0.737   2.038  -1.335  0.00  0.00    +0.022 C 
ATOM      5  C   UNL     1       1.948   2.640  -0.223  0.00  0.00    -0.024 C 
ATOM      6  C   UNL     1       3.063   1.082   1.941  0.00  0.00    +0.048 C 
ATOM      7  C   UNL     1       3.964   2.082   1.194  0.00  0.00    +0.025 C 
ATOM      8  C   UNL     1       3.217   2.878   0.157  0.00  0.00    -0.030 C 
ATOM      9  C   UNL     1       0.100   3.228  -1.728  0.00  0.00    -0.027 C 
ATOM     10  C   UNL     1       1.317   3.477  -1.229  0.00  0.00    -0.009 C 
ATOM     11  C   UNL     1      -1.898   2.513  -0.455  0.00  0.00    +0.005 C 
ATOM     12  C   UNL     1       5.177   1.401   0.555  0.00  0.00    +0.005 C 
ENDROOT
BRANCH   3  13
ATOM     13  O   UNL     1       2.611  -0.394   0.069  0.00  0.00    -0.452 OA
BRANCH  13  15
ATOM     14  O   UNL     1       3.617  -1.631   1.736  0.00  0.00    -0.250 OA
ATOM     15  C   UNL     1       3.403  -1.401   0.553  0.00  0.00    +0.316 C 
BRANCH  15  16
ATOM     16  C   UNL     1       4.008  -2.181  -0.601  0.00  0.00    +0.099 C 
ATOM     17  C   UNL     1       5.525  -2.025  -0.543  0.00  0.00    +0.012 C 
BRANCH  16  18
ATOM     18  C   UNL     1       3.606  -3.662  -0.549  0.00  0.00    +0.011 C 
ATOM     19  C   UNL     1       2.097  -3.861  -0.617  0.00  0.00    +0.001 C 
ENDBRANCH  16  18
ENDBRANCH  15  16
ENDBRANCH  13  15
ENDBRANCH   3  13
BRANCH   2  20
ATOM     20  C   UNL     1      -0.710  -0.231  -0.158  0.00  0.00    +0.003 C 
BRANCH  20  21
ATOM     21  C   UNL     1      -1.501  -0.898  -1.283  0.00  0.00    +0.029 C 
BRANCH  21  22
ATOM     22  C   UNL     1      -2.310  -2.120  -0.830  0.00  0.00    +0.113 C 
BRANCH  22  23
ATOM     23  O   UNL     1      -1.392  -3.131  -0.406  0.00  0.00    -0.384 OA
ATOM     24  H   UNL     1      -0.752  -3.304  -1.114  0.00  0.00    +0.210 HD
ENDBRANCH  22  23
BRANCH  22  25
ATOM     25  C   UNL     1      -3.313  -1.864   0.306  0.00  0.00    +0.059 C 
BRANCH  25  26
ATOM     26  C   UNL     1      -4.376  -0.800   0.009  0.00  0.00    +0.124 C 
BRANCH  26  27
ATOM     27  O   UNL     1      -5.166  -1.210  -1.104  0.00  0.00    -0.384 OA
ATOM     28  H   UNL     1      -4.595  -1.331  -1.879  0.00  0.00    +0.210 HD
ENDBRANCH  26  27
BRANCH  26  29
ATOM     29  C   UNL     1      -5.305  -0.619   1.210  0.00  0.00    +0.139 C 
BRANCH  29  31
ATOM     30  O   UNL     1      -6.255   1.335   0.151  0.00  0.00    -0.250 OA
ATOM     31  C   UNL     1      -6.394   0.383   0.908  0.00  0.00    +0.316 C 
BRANCH  31  32
ATOM     32  O   UNL     1      -7.553   0.105   1.554  0.00  0.00    -0.480 OA
ATOM     33  H   UNL     1      -7.606  -0.637   2.124  0.00  0.00    +0.295 HD
ENDBRANCH  31  32
ENDBRANCH  29  31
ENDBRANCH  26  29
ENDBRANCH  25  26
ENDBRANCH  22  25
ENDBRANCH  21  22
ENDBRANCH  20  21
ENDBRANCH   2  20
TORSDOF 14
