REMARK  Name = 86
REMARK  4 active torsions:
REMARK  status: ('A' for Active; 'I' for Inactive)
REMARK    1  A    between atoms: C_1  and  N_7
REMARK    2  A    between atoms: C_2  and  C_13
REMARK    3  A    between atoms: C_3  and  O_10
REMARK    4  A    between atoms: C_13  and  O_14
REMARK                            x       y       z     vdW  Elec       q    Type
REMARK                         _______ _______ _______ _____ _____    ______ ____
ROOT
ATOM      1  C   UNL     1      -0.405   0.718   0.044  0.00  0.00    +0.082 C 
ATOM      2  C   UNL     1       0.598  -0.248  -0.038  0.00  0.00    +0.091 C 
ATOM      3  C   UNL     1      -1.746   0.334   0.038  0.00  0.00    +0.147 C 
ATOM      4  C   UNL     1       0.259  -1.599  -0.126  0.00  0.00    +0.008 C 
ATOM      5  C   UNL     1      -2.084  -1.017  -0.051  0.00  0.00    +0.038 C 
ATOM      6  C   UNL     1      -1.082  -1.983  -0.133  0.00  0.00    +0.003 C 
ENDROOT
BRANCH   1   7
ATOM      7  N   UNL     1      -0.069   2.089   0.134  0.00  0.00    -0.354 N 
ATOM      8  H   UNL     1       0.876   2.365   0.139  0.00  0.00    +0.142 HD
ATOM      9  H   UNL     1      -0.780   2.767   0.192  0.00  0.00    +0.142 HD
ENDBRANCH   1   7
BRANCH   3  10
ATOM     10  O   UNL     1      -2.742   1.261   0.117  0.00  0.00    -0.504 OA
ATOM     11  H   UNL     1      -2.531   2.172   0.177  0.00  0.00    +0.292 HD
ENDBRANCH   3  10
BRANCH   2  13
ATOM     12  O   UNL     1       2.472   1.174  -0.472  0.00  0.00    -0.245 OA
ATOM     13  C   UNL     1       2.008   0.118  -0.033  0.00  0.00    +0.339 C 
BRANCH  13  14
ATOM     14  O   UNL     1       2.792  -0.847   0.520  0.00  0.00    -0.477 OA
ATOM     15  H   UNL     1       2.404  -1.636   0.843  0.00  0.00    +0.295 HD
ENDBRANCH  13  14
ENDBRANCH   2  13
TORSDOF 4
