REMARK  Name = 657043
REMARK  6 active torsions:
REMARK  status: ('A' for Active; 'I' for Inactive)
REMARK    1  A    between atoms: C_2  and  O_13
REMARK    2  A    between atoms: C_3  and  O_15
REMARK    3  A    between atoms: C_4  and  O_17
REMARK    4  A    between atoms: C_5  and  C_19
REMARK    5  A    between atoms: C_6  and  C_10
REMARK    6  A    between atoms: C_19  and  O_20
REMARK                            x       y       z     vdW  Elec       q    Type
REMARK                         _______ _______ _______ _____ _____    ______ ____
ROOT
ATOM      1  O   UNL     1       0.549   0.982  -0.157  0.00  0.00    -0.342 OA
ATOM      2  C   UNL     1       1.990  -1.478   0.234  0.00  0.00    +0.169 C 
ATOM      3  C   UNL     1       2.671  -0.190  -0.230  0.00  0.00    +0.169 C 
ATOM      4  C   UNL     1       0.493  -1.462  -0.087  0.00  0.00    +0.176 C 
ATOM      5  C   UNL     1       1.910   1.039   0.272  0.00  0.00    +0.174 C 
ATOM      6  C   UNL     1      -0.152  -0.147   0.372  0.00  0.00    +0.222 C 
ENDROOT
BRANCH   6  10
ATOM      7  O   UNL     1      -2.527   0.131   0.868  0.00  0.00    -0.421 OA
ATOM      8  N   UNL     1      -2.062  -0.039  -1.314  0.00  0.00    -0.109 NA
ATOM      9  N   UNL     1      -3.429   0.111  -1.179  0.00  0.00    -0.112 NA
ATOM     10  C   UNL     1      -1.589  -0.020  -0.099  0.00  0.00    +0.255 A 
ATOM     11  C   UNL     1      -3.655   0.207   0.110  0.00  0.00    +0.227 A 
ATOM     12  C   UNL     1      -4.925   0.382   0.827  0.00  0.00    +0.097 C 
ENDBRANCH   6  10
BRANCH   2  13
ATOM     13  O   UNL     1       2.609  -2.573  -0.444  0.00  0.00    -0.379 OA
ATOM     14  H   UNL     1       3.557  -2.584  -0.241  0.00  0.00    +0.211 HD
ENDBRANCH   2  13
BRANCH   3  15
ATOM     15  O   UNL     1       4.003  -0.156   0.274  0.00  0.00    -0.379 OA
ATOM     16  H   UNL     1       4.489  -0.934  -0.043  0.00  0.00    +0.211 HD
ENDBRANCH   3  15
BRANCH   4  17
ATOM     17  O   UNL     1      -0.142  -2.543   0.596  0.00  0.00    -0.379 OA
ATOM     18  H   UNL     1       0.257  -3.382   0.314  0.00  0.00    +0.211 HD
ENDBRANCH   4  17
BRANCH   5  19
ATOM     19  C   UNL     1       2.507   2.333  -0.270  0.00  0.00    +0.169 C 
BRANCH  19  20
ATOM     20  O   UNL     1       1.749   3.422   0.226  0.00  0.00    -0.379 OA
ATOM     21  H   UNL     1       2.118   4.253  -0.111  0.00  0.00    +0.211 HD
ENDBRANCH  19  20
ENDBRANCH   5  19
TORSDOF 6
