REMARK  Name = 5172
REMARK  4 active torsions:
REMARK  status: ('A' for Active; 'I' for Inactive)
REMARK    1  A    between atoms: N_1  and  C_22
REMARK    2  A    between atoms: C_3  and  C_9
REMARK    3  A    between atoms: C_5  and  C_16
REMARK    4  A    between atoms: C_22  and  C_23
REMARK                            x       y       z     vdW  Elec       q    Type
REMARK                         _______ _______ _______ _____ _____    ______ ____
ROOT
ATOM      1  N   UNL     1      -1.475  -1.737   0.397  0.00  0.00    -0.243 NA
ATOM      2  N   UNL     1       0.419  -2.825  -0.002  0.00  0.00    -0.255 NA
ATOM      3  C   UNL     1      -0.500  -0.782   0.341  0.00  0.00    +0.153 C 
ATOM      4  C   UNL     1      -0.876  -2.948   0.186  0.00  0.00    +0.201 C 
ATOM      5  C   UNL     1       0.657  -1.479   0.095  0.00  0.00    +0.077 C 
ENDROOT
BRANCH   3   9
ATOM      6  N   UNL     1      -1.032   1.295  -0.618  0.00  0.00    -0.340 NA
ATOM      7  N   UNL     1      -1.244   3.302   0.698  0.00  0.00    -0.170 NA
ATOM      8  N   UNL     1      -1.565   3.346  -1.625  0.00  0.00    -0.293 N 
ATOM      9  C   UNL     1      -0.749   0.630   0.519  0.00  0.00    +0.143 C 
ATOM     10  C   UNL     1      -0.695   1.215   1.764  0.00  0.00    +0.052 C 
ATOM     11  C   UNL     1      -0.954   2.570   1.794  0.00  0.00    +0.114 C 
ATOM     12  C   UNL     1      -1.266   2.611  -0.457  0.00  0.00    +0.141 C 
ATOM     13  H   UNL     1      -1.595   2.892  -2.499  0.00  0.00    +0.155 HD
ATOM     14  H   UNL     1      -1.745   4.312  -1.567  0.00  0.00    +0.155 HD
ENDBRANCH   3   9
BRANCH   5  16
ATOM     15  F   UNL     1       5.723   0.757  -0.463  0.00  0.00    -0.204 F 
ATOM     16  C   UNL     1       1.964  -0.902  -0.049  0.00  0.00    +0.015 C 
ATOM     17  C   UNL     1       2.781  -0.739   1.069  0.00  0.00    +0.004 C 
ATOM     18  C   UNL     1       2.416  -0.505  -1.307  0.00  0.00    +0.004 C 
ATOM     19  C   UNL     1       4.051  -0.179   0.929  0.00  0.00    +0.030 C 
ATOM     20  C   UNL     1       3.686   0.055  -1.447  0.00  0.00    +0.030 C 
ATOM     21  C   UNL     1       4.503   0.218  -0.329  0.00  0.00    +0.140 C 
ENDBRANCH   5  16
BRANCH   1  22
ATOM     22  C   UNL     1      -2.886  -1.534   0.634  0.00  0.00    +0.075 C 
BRANCH  22  23
ATOM     23  C   UNL     1      -3.645  -1.321  -0.635  0.00  0.00    +0.016 C 
ATOM     24  C   UNL     1      -5.120  -1.084  -0.564  0.00  0.00    +0.001 C 
ATOM     25  C   UNL     1      -4.194   0.039  -0.929  0.00  0.00    +0.001 C 
ENDBRANCH  22  23
ENDBRANCH   1  22
TORSDOF 4
