REMARK  Name = 159961
REMARK  7 active torsions:
REMARK  status: ('A' for Active; 'I' for Inactive)
REMARK    1  A    between atoms: N_1  and  C_13
REMARK    2  A    between atoms: C_13  and  C_14
REMARK    3  A    between atoms: C_14  and  O_15
REMARK    4  A    between atoms: C_14  and  C_17
REMARK    5  A    between atoms: C_17  and  O_18
REMARK    6  A    between atoms: C_17  and  C_21
REMARK    7  A    between atoms: C_21  and  O_22
REMARK                            x       y       z     vdW  Elec       q    Type
REMARK                         _______ _______ _______ _____ _____    ______ ____
ROOT
ATOM      1  N   UNL     1       0.564   0.600  -0.753  0.00  0.00    -0.269 N 
ATOM      2  N   UNL     1       2.296   1.853  -0.195  0.00  0.00    -0.242 NA
ATOM      3  N   UNL     1       1.441  -1.610  -0.272  0.00  0.00    -0.228 NA
ATOM      4  N   UNL     1       3.727  -1.470   0.572  0.00  0.00    -0.229 NA
ATOM      5  C   UNL     1       1.512  -0.272  -0.338  0.00  0.00    +0.151 C 
ATOM      6  C   UNL     1       2.590   0.528   0.008  0.00  0.00    +0.140 C 
ATOM      7  C   UNL     1       1.062   1.859  -0.656  0.00  0.00    +0.221 C 
ATOM      8  C   UNL     1       3.728  -0.119   0.478  0.00  0.00    +0.143 C 
ATOM      9  C   UNL     1       2.599  -2.122   0.196  0.00  0.00    +0.253 C 
ATOM     10  N   UNL     1       4.867   0.615   0.854  0.00  0.00    -0.342 N 
ATOM     11  H   UNL     1       5.667   0.146   1.185  0.00  0.00    +0.144 HD
ATOM     12  H   UNL     1       4.864   1.597   0.786  0.00  0.00    +0.144 HD
ENDROOT
BRANCH   1  13
ATOM     13  C   UNL     1      -0.777   0.254  -1.229  0.00  0.00    +0.126 C 
BRANCH  13  14
ATOM     14  C   UNL     1      -1.806   0.211  -0.090  0.00  0.00    +0.168 C 
BRANCH  14  15
ATOM     15  O   UNL     1      -1.823   1.476   0.568  0.00  0.00    -0.380 OA
ATOM     16  H   UNL     1      -0.928   1.697   0.868  0.00  0.00    +0.211 HD
ENDBRANCH  14  15
BRANCH  14  17
ATOM     17  C   UNL     1      -3.223  -0.139  -0.565  0.00  0.00    +0.238 C 
BRANCH  17  18
ATOM     18  O   UNL     1      -3.192  -1.437  -1.146  0.00  0.00    -0.373 OA
ATOM     19  H   UNL     1      -2.540  -1.454  -1.864  0.00  0.00    +0.211 HD
ENDBRANCH  17  18
BRANCH  17  21
ATOM     20  O   UNL     1      -4.875  -1.145   0.912  0.00  0.00    -0.248 OA
ATOM     21  C   UNL     1      -4.253  -0.154   0.551  0.00  0.00    +0.344 C 
BRANCH  21  22
ATOM     22  O   UNL     1      -4.436   1.073   1.103  0.00  0.00    -0.478 OA
ATOM     23  H   UNL     1      -3.937   1.804   0.796  0.00  0.00    +0.295 HD
ENDBRANCH  21  22
ENDBRANCH  17  21
ENDBRANCH  14  17
ENDBRANCH  13  14
ENDBRANCH   1  13
TORSDOF 7
