REMARK  Name = 444808
REMARK  2 active torsions:
REMARK  status: ('A' for Active; 'I' for Inactive)
REMARK    1  A    between atoms: C_2  and  C_8
REMARK    2  A    between atoms: C_8  and  S_9
REMARK                            x       y       z     vdW  Elec       q    Type
REMARK                         _______ _______ _______ _____ _____    ______ ____
ROOT
ATOM      1  I   UNL     1       1.224  -2.567   0.112  0.00  0.00    -0.043 I 
ATOM      2  C   UNL     1       0.373   0.374   0.316  0.00  0.00    -0.006 C 
ATOM      3  C   UNL     1      -0.070  -0.924   0.061  0.00  0.00    +0.027 C 
ATOM      4  C   UNL     1      -0.526   1.440   0.269  0.00  0.00    -0.003 C 
ATOM      5  C   UNL     1      -1.412  -1.156  -0.242  0.00  0.00    +0.005 C 
ATOM      6  C   UNL     1      -1.868   1.208  -0.034  0.00  0.00    -0.000 C 
ATOM      7  C   UNL     1      -2.311  -0.090  -0.289  0.00  0.00    +0.000 C 
ENDROOT
BRANCH   2   8
ATOM      8  C   UNL     1       1.799   0.683   0.644  0.00  0.00    +0.080 C 
BRANCH   8   9
ATOM      9  S   UNL     1       2.790   1.033  -0.838  0.00  0.00    -0.163 S 
ATOM     10  H   UNL     1       4.072   1.305  -0.473  0.00  0.00    +0.103 HD
ENDBRANCH   8   9
ENDBRANCH   2   8
TORSDOF 2
