REMARK  Name = 445935
REMARK  5 active torsions:
REMARK  status: ('A' for Active; 'I' for Inactive)
REMARK    1  A    between atoms: C_2  and  O_6
REMARK    2  A    between atoms: C_3  and  C_12
REMARK    3  A    between atoms: C_4  and  O_8
REMARK    4  A    between atoms: C_5  and  O_10
REMARK    5  A    between atoms: C_12  and  O_13
REMARK                            x       y       z     vdW  Elec       q    Type
REMARK                         _______ _______ _______ _____ _____    ______ ____
ROOT
ATOM      1  O   UNL     1      -0.323   1.171   0.060  0.00  0.00    -0.326 OA
ATOM      2  C   UNL     1       0.318  -1.103   0.401  0.00  0.00    +0.172 C 
ATOM      3  C   UNL     1      -0.804  -0.083   0.578  0.00  0.00    +0.176 C 
ATOM      4  C   UNL     1       1.202  -0.486  -0.664  0.00  0.00    +0.196 C 
ATOM      5  C   UNL     1       1.013   1.006  -0.436  0.00  0.00    +0.262 C 
ENDROOT
BRANCH   2   6
ATOM      6  O   UNL     1       1.048  -1.223   1.620  0.00  0.00    -0.379 OA
ATOM      7  H   UNL     1       0.481  -1.618   2.299  0.00  0.00    +0.211 HD
ENDBRANCH   2   6
BRANCH   4   8
ATOM      8  O   UNL     1       0.700  -0.843  -1.946  0.00  0.00    -0.378 OA
ATOM      9  H   UNL     1       0.823  -1.795  -2.087  0.00  0.00    +0.211 HD
ENDBRANCH   4   8
BRANCH   5  10
ATOM     10  O   UNL     1       1.962   1.456   0.524  0.00  0.00    -0.358 OA
ATOM     11  H   UNL     1       1.845   2.407   0.673  0.00  0.00    +0.213 HD
ENDBRANCH   5  10
BRANCH   3  12
ATOM     12  C   UNL     1      -2.069  -0.446  -0.188  0.00  0.00    +0.169 C 
BRANCH  12  13
ATOM     13  O   UNL     1      -3.047   0.552   0.051  0.00  0.00    -0.379 OA
ATOM     14  H   UNL     1      -3.858   0.331  -0.433  0.00  0.00    +0.211 HD
ENDBRANCH  12  13
ENDBRANCH   3  12
TORSDOF 5
