REMARK  Name = 445027
REMARK  7 active torsions:
REMARK  status: ('A' for Active; 'I' for Inactive)
REMARK    1  A    between atoms: C_4  and  C_10
REMARK    2  A    between atoms: C_10  and  C_11
REMARK    3  A    between atoms: C_11  and  C_12
REMARK    4  A    between atoms: C_12  and  C_13
REMARK    5  A    between atoms: C_13  and  C_14
REMARK    6  A    between atoms: C_14  and  C_16
REMARK    7  A    between atoms: C_16  and  O_17
REMARK                            x       y       z     vdW  Elec       q    Type
REMARK                         _______ _______ _______ _____ _____    ______ ____
ROOT
ATOM      1  O   UNL     1       4.383  -2.219  -0.617  0.00  0.00    -0.253 OA
ATOM      2  N   UNL     1       2.501  -0.990   0.055  0.00  0.00    -0.289 N 
ATOM      3  N   UNL     1       4.519   0.012   0.094  0.00  0.00    -0.289 N 
ATOM      4  C   UNL     1       2.262   0.297   0.675  0.00  0.00    +0.091 C 
ATOM      5  C   UNL     1       3.585   1.061   0.459  0.00  0.00    +0.091 C 
ATOM      6  C   UNL     1       3.564   2.133  -0.624  0.00  0.00    +0.023 C 
ATOM      7  C   UNL     1       3.864  -1.190  -0.209  0.00  0.00    +0.301 C 
ATOM      8  H   UNL     1       1.795  -1.643  -0.156  0.00  0.00    +0.151 HD
ATOM      9  H   UNL     1       5.496   0.130   0.063  0.00  0.00    +0.151 HD
ENDROOT
BRANCH   4  10
ATOM     10  C   UNL     1       0.992   0.948   0.154  0.00  0.00    +0.021 C 
BRANCH  10  11
ATOM     11  C   UNL     1      -0.267   0.113   0.400  0.00  0.00    +0.002 C 
BRANCH  11  12
ATOM     12  C   UNL     1      -1.540   0.759  -0.151  0.00  0.00    +0.001 C 
BRANCH  12  13
ATOM     13  C   UNL     1      -2.772  -0.100   0.155  0.00  0.00    +0.012 C 
BRANCH  13  14
ATOM     14  C   UNL     1      -4.068   0.537  -0.348  0.00  0.00    +0.109 C 
BRANCH  14  16
ATOM     15  O   UNL     1      -5.297  -1.400   0.471  0.00  0.00    -0.250 OA
ATOM     16  C   UNL     1      -5.295  -0.299  -0.061  0.00  0.00    +0.314 C 
BRANCH  16  17
ATOM     17  O   UNL     1      -6.431   0.336  -0.452  0.00  0.00    -0.480 OA
ATOM     18  H   UNL     1      -6.381   1.180  -0.857  0.00  0.00    +0.295 HD
ENDBRANCH  16  17
ENDBRANCH  14  16
ENDBRANCH  13  14
ENDBRANCH  12  13
ENDBRANCH  11  12
ENDBRANCH  10  11
ENDBRANCH   4  10
TORSDOF 7
