REMARK  Name = 445503
REMARK  6 active torsions:
REMARK  status: ('A' for Active; 'I' for Inactive)
REMARK    1  A    between atoms: N_1  and  S_14
REMARK    2  A    between atoms: C_2  and  C_8
REMARK    3  A    between atoms: N_7  and  C_10
REMARK    4  A    between atoms: C_10  and  C_11
REMARK    5  A    between atoms: C_11  and  S_12
REMARK    6  A    between atoms: S_14  and  C_17
REMARK                            x       y       z     vdW  Elec       q    Type
REMARK                         _______ _______ _______ _____ _____    ______ ____
ROOT
ATOM      1  N   UNL     1       0.341  -1.229   0.502  0.00  0.00    -0.148 NA
ATOM      2  C   UNL     1       0.986  -0.616  -0.692  0.00  0.00    +0.155 C 
ATOM      3  C   UNL     1       0.603  -1.504  -1.871  0.00  0.00    +0.029 C 
ATOM      4  C   UNL     1       0.266  -2.840  -1.231  0.00  0.00    +0.021 C 
ATOM      5  C   UNL     1      -0.420  -2.429   0.061  0.00  0.00    +0.096 C 
ENDROOT
BRANCH   2   8
ATOM      6  O   UNL     1       2.950  -1.515   0.311  0.00  0.00    -0.274 OA
ATOM      7  N   UNL     1       3.128   0.394  -1.009  0.00  0.00    -0.302 N 
ATOM      8  C   UNL     1       2.450  -0.650  -0.404  0.00  0.00    +0.239 C 
ATOM      9  H   UNL     1       2.615   1.027  -1.562  0.00  0.00    +0.150 HD
BRANCH   7  10
ATOM     10  C   UNL     1       4.551   0.600  -0.868  0.00  0.00    +0.101 C 
BRANCH  10  11
ATOM     11  C   UNL     1       4.910   1.485   0.318  0.00  0.00    +0.075 C 
BRANCH  11  12
ATOM     12  S   UNL     1       4.205   3.155   0.168  0.00  0.00    -0.166 S 
ATOM     13  H   UNL     1       4.558   3.896   1.252  0.00  0.00    +0.102 HD
ENDBRANCH  11  12
ENDBRANCH  10  11
ENDBRANCH   7  10
ENDBRANCH   2   8
BRANCH   1  14
ATOM     14  S   UNL     1      -0.409  -0.194   1.624  0.00  0.00    +0.064 S 
ATOM     15  O   UNL     1       0.403   0.994   1.806  0.00  0.00    -0.153 OA
ATOM     16  O   UNL     1      -0.851  -0.967   2.771  0.00  0.00    -0.153 OA
BRANCH  14  17
ATOM     17  C   UNL     1      -1.847   0.279   0.711  0.00  0.00    +0.122 C 
ATOM     18  C   UNL     1      -3.000  -0.478   0.825  0.00  0.00    +0.020 C 
ATOM     19  C   UNL     1      -1.794   1.400  -0.100  0.00  0.00    +0.020 C 
ATOM     20  C   UNL     1      -4.134  -0.104   0.104  0.00  0.00    -0.003 C 
ATOM     21  C   UNL     1      -2.928   1.774  -0.820  0.00  0.00    -0.003 C 
ATOM     22  C   UNL     1      -4.098   1.022  -0.718  0.00  0.00    -0.022 C 
ATOM     23  C   UNL     1      -5.312   1.423  -1.487  0.00  0.00    +0.031 C 
ENDBRANCH  14  17
ENDBRANCH   1  14
TORSDOF 6
