REMARK  Name = 17753922
REMARK  7 active torsions:
REMARK  status: ('A' for Active; 'I' for Inactive)
REMARK    1  A    between atoms: C_1  and  N_2
REMARK    2  A    between atoms: C_1  and  C_7
REMARK    3  A    between atoms: C_1  and  C_10
REMARK    4  A    between atoms: C_7  and  O_8
REMARK    5  A    between atoms: C_10  and  S_11
REMARK    6  A    between atoms: S_11  and  C_12
REMARK    7  A    between atoms: C_12  and  C_14
REMARK                            x       y       z     vdW  Elec       q    Type
REMARK                         _______ _______ _______ _____ _____    ______ ____
ROOT
ATOM      1  C   UNK     1      -1.608   0.641  -0.236  0.00  0.00    +0.047 C 
ENDROOT
BRANCH   1   2
ATOM      2  N   UNK     1      -2.428   1.848  -0.363  0.00  0.00    +0.389 N 
ATOM      3  H   UNK     1      -1.827   2.671  -0.343  0.00  0.00    -0.088 HD
ATOM      4  H   UNK     1      -3.091   1.892   0.411  0.00  0.00    -0.088 HD
ATOM      5  H   UNK     1      -2.938   1.820  -1.246  0.00  0.00    -0.088 HD
ENDBRANCH   1   2
BRANCH   1   7
ATOM      6  O   UNK     1      -3.677  -0.535   0.197  0.00  0.00    -0.253 OA
ATOM      7  C   UNK     1      -2.544  -0.553  -0.271  0.00  0.00    +0.294 C 
BRANCH   7   8
ATOM      8  O   UNK     1      -1.999  -1.659  -0.838  0.00  0.00    -0.482 OA
ATOM      9  H   UNK     1      -1.129  -1.628  -1.183  0.00  0.00    +0.295 HD
ENDBRANCH   7   8
ENDBRANCH   1   7
BRANCH   1  10
ATOM     10  C   UNK     1      -0.790   0.699   1.055  0.00  0.00    +0.047 C 
BRANCH  10  11
ATOM     11  S   UNK     1       0.623  -0.450   1.017  0.00  0.00    -0.134 S 
BRANCH  11  12
ATOM     12  C   UNK     1       1.780   0.597   0.107  0.00  0.00    +0.122 C 
BRANCH  12  14
ATOM     13  O   UNK     1       3.377  -1.222   0.287  0.00  0.00    -0.295 OA
ATOM     14  C   UNK     1       3.116  -0.086  -0.106  0.00  0.00    +0.162 C 
ATOM     15  C   UNK     1       4.150   0.721  -0.851  0.00  0.00    +0.073 C 
ENDBRANCH  12  14
ENDBRANCH  11  12
ENDBRANCH  10  11
ENDBRANCH   1  10
TORSDOF 7
