REMARK  Name = 448166
REMARK  2 active torsions:
REMARK  status: ('A' for Active; 'I' for Inactive)
REMARK    1  A    between atoms: N_2  and  C_7
REMARK    2  A    between atoms: C_3  and  O_5
REMARK                            x       y       z     vdW  Elec       q    Type
REMARK                         _______ _______ _______ _____ _____    ______ ____
ROOT
ATOM      1  O   UNL     1       0.200  -1.196   0.000  0.00  0.00    -0.226 OA
ATOM      2  N   UNL     1      -0.616   0.975   0.000  0.00  0.00    -0.271 N 
ATOM      3  C   UNL     1       0.376   0.018   0.000  0.00  0.00    +0.402 C 
ATOM      4  H   UNL     1      -0.347   1.922   0.000  0.00  0.00    +0.153 HD
ENDROOT
BRANCH   3   5
ATOM      5  O   UNL     1       1.601   0.624   0.000  0.00  0.00    -0.431 OA
ATOM      6  C   UNL     1       2.732  -0.255   0.000  0.00  0.00    +0.257 C 
ENDBRANCH   3   5
BRANCH   2   7
ATOM      7  C   UNL     1      -2.028   0.668   0.000  0.00  0.00    +0.093 C 
ATOM      8  C   UNL     1      -2.263  -0.833   0.000  0.00  0.00    +0.023 C 
ENDBRANCH   2   7
TORSDOF 2
