REMARK  Name = 444698
REMARK  5 active torsions:
REMARK  status: ('A' for Active; 'I' for Inactive)
REMARK    1  A    between atoms: S_1  and  N_4
REMARK    2  A    between atoms: S_1  and  C_18
REMARK    3  A    between atoms: C_5  and  C_15
REMARK    4  A    between atoms: C_15  and  O_16
REMARK    5  A    between atoms: C_21  and  C_24
REMARK                            x       y       z     vdW  Elec       q    Type
REMARK                         _______ _______ _______ _____ _____    ______ ____
ROOT
ATOM      1  S   UNL     1       0.796   2.006   0.941  0.00  0.00    +0.064 S 
ATOM      2  O   UNL     1       0.863   3.170   0.081  0.00  0.00    -0.153 OA
ATOM      3  O   UNL     1       0.847   2.117   2.384  0.00  0.00    -0.153 OA
ENDROOT
BRANCH   1   4
ATOM      4  N   UNL     1       1.970   0.876   0.422  0.00  0.00    -0.141 NA
ATOM      5  C   UNL     1       2.341   0.906  -1.022  0.00  0.00    +0.182 C 
ATOM      6  C   UNL     1       2.647  -0.463  -1.634  0.00  0.00    +0.055 C 
ATOM      7  C   UNL     1       1.937  -0.456   1.088  0.00  0.00    +0.122 C 
ATOM      8  C   UNL     1       3.412  -1.362  -0.702  0.00  0.00    -0.023 C 
ATOM      9  C   UNL     1       3.059  -1.357   0.655  0.00  0.00    -0.008 C 
ATOM     10  C   UNL     1       4.413  -2.225  -1.159  0.00  0.00    -0.004 C 
ATOM     11  C   UNL     1       3.708  -2.214   1.547  0.00  0.00    -0.003 C 
ATOM     12  C   UNL     1       5.068  -3.068  -0.261  0.00  0.00    -0.000 C 
ATOM     13  C   UNL     1       4.716  -3.063   1.089  0.00  0.00    -0.000 C 
BRANCH   5  15
ATOM     14  O   UNL     1       4.382   1.886  -0.176  0.00  0.00    -0.249 OA
ATOM     15  C   UNL     1       3.545   1.796  -1.063  0.00  0.00    +0.330 C 
BRANCH  15  16
ATOM     16  O   UNL     1       3.584   2.497  -2.222  0.00  0.00    -0.479 OA
ATOM     17  H   UNL     1       2.909   2.381  -2.862  0.00  0.00    +0.295 HD
ENDBRANCH  15  16
ENDBRANCH   5  15
ENDBRANCH   1   4
BRANCH   1  18
ATOM     18  C   UNL     1      -0.815   1.294   0.622  0.00  0.00    +0.122 C 
ATOM     19  C   UNL     1      -1.400   0.533   1.604  0.00  0.00    +0.020 C 
ATOM     20  C   UNL     1      -1.407   1.535  -0.594  0.00  0.00    +0.020 C 
ATOM     21  C   UNL     1      -3.286   0.202   0.132  0.00  0.00    +0.000 C 
ATOM     22  C   UNL     1      -2.655  -0.022   1.355  0.00  0.00    +0.001 C 
ATOM     23  C   UNL     1      -2.662   0.980  -0.843  0.00  0.00    +0.001 C 
BRANCH  21  24
ATOM     24  C   UNL     1      -4.588  -0.374  -0.126  0.00  0.00    +0.000 C 
ATOM     25  C   UNL     1      -4.690  -1.640  -0.702  0.00  0.00    +0.000 C 
ATOM     26  C   UNL     1      -5.742   0.338   0.202  0.00  0.00    +0.000 C 
ATOM     27  C   UNL     1      -5.946  -2.194  -0.951  0.00  0.00    +0.000 C 
ATOM     28  C   UNL     1      -6.998  -0.216  -0.046  0.00  0.00    +0.000 C 
ATOM     29  C   UNL     1      -7.100  -1.483  -0.623  0.00  0.00    +0.000 C 
ENDBRANCH  21  24
ENDBRANCH   1  18
TORSDOF 5
