REMARK  Name = 656966
REMARK  5 active torsions:
REMARK  status: ('A' for Active; 'I' for Inactive)
REMARK    1  A    between atoms: N_1  and  C_8
REMARK    2  A    between atoms: C_4  and  C_18
REMARK    3  A    between atoms: C_13  and  N_14
REMARK    4  A    between atoms: C_18  and  O_19
REMARK    5  A    between atoms: O_19  and  C_20
REMARK                            x       y       z     vdW  Elec       q    Type
REMARK                         _______ _______ _______ _____ _____    ______ ____
ROOT
ATOM      1  N   UNL     1       0.572  -0.312  -0.137  0.00  0.00    -0.234 N 
ATOM      2  N   UNL     1       0.027  -1.524  -0.375  0.00  0.00    -0.170 NA
ATOM      3  C   UNL     1      -0.366   0.683  -0.024  0.00  0.00    +0.068 A 
ATOM      4  C   UNL     1      -1.588   0.081  -0.199  0.00  0.00    +0.104 A 
ATOM      5  C   UNL     1      -1.285  -1.277  -0.411  0.00  0.00    +0.087 A 
ATOM      6  C   UNL     1      -0.009   2.093   0.237  0.00  0.00    +0.052 C 
ATOM      7  C   UNL     1      -2.224  -2.386  -0.654  0.00  0.00    +0.054 C 
ENDROOT
BRANCH   1   8
ATOM      8  C   UNL     1       1.944  -0.175  -0.030  0.00  0.00    +0.083 C 
ATOM      9  C   UNL     1       2.555   1.022  -0.404  0.00  0.00    +0.020 C 
ATOM     10  C   UNL     1       2.716  -1.232   0.450  0.00  0.00    +0.020 C 
ATOM     11  C   UNL     1       3.939   1.161  -0.296  0.00  0.00    +0.016 C 
ATOM     12  C   UNL     1       4.099  -1.093   0.557  0.00  0.00    +0.016 C 
ATOM     13  C   UNL     1       4.711   0.103   0.184  0.00  0.00    +0.042 C 
BRANCH  13  14
ATOM     14  N   UNL     1       6.111   0.245   0.293  0.00  0.00    -0.357 N 
ATOM     15  H   UNL     1       6.542   1.089   0.029  0.00  0.00    +0.142 HD
ATOM     16  H   UNL     1       6.656  -0.502   0.632  0.00  0.00    +0.142 HD
ENDBRANCH  13  14
ENDBRANCH   1   8
BRANCH   4  18
ATOM     17  O   UNL     1      -3.052   1.919  -0.497  0.00  0.00    -0.245 OA
ATOM     18  C   UNL     1      -2.862   0.735  -0.163  0.00  0.00    +0.344 C 
BRANCH  18  19
ATOM     19  O   UNL     1      -3.899  -0.064   0.280  0.00  0.00    -0.445 OA
BRANCH  19  20
ATOM     20  C   UNL     1      -5.202   0.527   0.341  0.00  0.00    +0.209 C 
ATOM     21  C   UNL     1      -6.188  -0.504   0.847  0.00  0.00    +0.051 C 
ENDBRANCH  19  20
ENDBRANCH  18  19
ENDBRANCH   4  18
TORSDOF 5
