REMARK  Name = 445720
REMARK  5 active torsions:
REMARK  status: ('A' for Active; 'I' for Inactive)
REMARK    1  A    between atoms: C_7  and  O_15
REMARK    2  A    between atoms: C_8  and  O_17
REMARK    3  A    between atoms: C_9  and  O_19
REMARK    4  A    between atoms: C_10  and  C_21
REMARK    5  A    between atoms: C_21  and  O_22
REMARK                            x       y       z     vdW  Elec       q    Type
REMARK                         _______ _______ _______ _____ _____    ______ ____
ROOT
ATOM      1  O   UNL     1      -0.468  -0.992  -0.681  0.00  0.00    -0.330 OA
ATOM      2  O   UNL     1       0.627   0.017   2.009  0.00  0.00    -0.270 OA
ATOM      3  O   UNL     1       3.807  -0.335  -1.293  0.00  0.00    -0.252 OA
ATOM      4  N   UNL     1       1.502   0.002  -1.351  0.00  0.00    -0.261 N 
ATOM      5  N   UNL     1       2.489  -0.211   0.632  0.00  0.00    -0.209 N 
ATOM      6  C   UNL     1       0.387   0.107  -0.428  0.00  0.00    +0.251 C 
ATOM      7  C   UNL     1      -0.324   1.453  -0.606  0.00  0.00    +0.191 C 
ATOM      8  C   UNL     1      -1.645   1.506   0.157  0.00  0.00    +0.171 C 
ATOM      9  C   UNL     1      -2.489   0.268  -0.140  0.00  0.00    +0.169 C 
ATOM     10  C   UNL     1      -1.677  -1.010   0.078  0.00  0.00    +0.176 C 
ATOM     11  C   UNL     1       1.151  -0.029   0.904  0.00  0.00    +0.278 C 
ATOM     12  C   UNL     1       2.731  -0.199  -0.725  0.00  0.00    +0.312 C 
ATOM     13  C   UNL     1       3.525  -0.386   1.632  0.00  0.00    +0.125 C 
ATOM     14  H   UNL     1       1.400   0.066  -2.328  0.00  0.00    +0.154 HD
ENDROOT
BRANCH   7  15
ATOM     15  O   UNL     1       0.499   2.533  -0.168  0.00  0.00    -0.378 OA
ATOM     16  H   UNL     1       1.343   2.510  -0.646  0.00  0.00    +0.211 HD
ENDBRANCH   7  15
BRANCH   8  17
ATOM     17  O   UNL     1      -2.381   2.659  -0.259  0.00  0.00    -0.379 OA
ATOM     18  H   UNL     1      -1.861   3.457  -0.078  0.00  0.00    +0.211 HD
ENDBRANCH   8  17
BRANCH   9  19
ATOM     19  O   UNL     1      -3.624   0.254   0.722  0.00  0.00    -0.379 OA
ATOM     20  H   UNL     1      -4.142   1.063   0.587  0.00  0.00    +0.211 HD
ENDBRANCH   9  19
BRANCH  10  21
ATOM     21  C   UNL     1      -2.460  -2.249  -0.351  0.00  0.00    +0.169 C 
BRANCH  21  22
ATOM     22  O   UNL     1      -1.651  -3.390  -0.134  0.00  0.00    -0.379 OA
ATOM     23  H   UNL     1      -2.136  -4.186  -0.402  0.00  0.00    +0.211 HD
ENDBRANCH  21  22
ENDBRANCH  10  21
TORSDOF 5
