REMARK  Name = 5288606
REMARK  0 active torsions:
REMARK  status: ('A' for Active; 'I' for Inactive)
REMARK                            x       y       z     vdW  Elec       q    Type
REMARK                         _______ _______ _______ _____ _____    ______ ____
ROOT
ATOM      1  I   UNL     1      -4.090   0.825  -0.036  0.00  0.00    -0.043 I 
ATOM      2  N   UNL     1       2.680   1.031   0.344  0.00  0.00    +0.387 N 
ATOM      3  C   UNL     1       1.933  -1.290   0.065  0.00  0.00    +0.003 C 
ATOM      4  C   UNL     1       0.513  -0.786   0.015  0.00  0.00    -0.030 C 
ATOM      5  C   UNL     1       2.950  -0.226  -0.352  0.00  0.00    -0.077 C 
ATOM      6  C   UNL     1       0.253   0.595  -0.010  0.00  0.00    -0.047 C 
ATOM      7  C   UNL     1       1.389   1.586  -0.079  0.00  0.00    -0.055 C 
ATOM      8  C   UNL     1      -0.555  -1.692   0.054  0.00  0.00    -0.004 C 
ATOM      9  C   UNL     1      -1.072   1.048  -0.035  0.00  0.00    -0.001 C 
ATOM     10  C   UNL     1      -1.871  -1.230   0.040  0.00  0.00    +0.005 C 
ATOM     11  C   UNL     1      -2.129   0.139  -0.006  0.00  0.00    +0.030 C 
ATOM     12  H   UNL     1       3.420   1.699   0.128  0.00  0.00    -0.084 HD
ATOM     13  H   UNL     1       2.650   0.852   1.348  0.00  0.00    -0.084 HD
ENDROOT
TORSDOF 0
