REMARK  Name = 6030
REMARK  8 active torsions:
REMARK  status: ('A' for Active; 'I' for Inactive)
REMARK    1  A    between atoms: C_2  and  O_15
REMARK    2  A    between atoms: C_3  and  O_17
REMARK    3  A    between atoms: C_4  and  C_19
REMARK    4  A    between atoms: C_5  and  N_8
REMARK    5  A    between atoms: C_19  and  O_20
REMARK    6  A    between atoms: O_20  and  P_21
REMARK    7  A    between atoms: P_21  and  O_23
REMARK    8  A    between atoms: P_21  and  O_25
REMARK                            x       y       z     vdW  Elec       q    Type
REMARK                         _______ _______ _______ _____ _____    ______ ____
ROOT
ATOM      1  O   UNL     1       0.358   0.974  -1.132  0.00  0.00    -0.333 OA
ATOM      2  C   UNL     1       0.733   2.704   0.442  0.00  0.00    +0.171 C 
ATOM      3  C   UNL     1      -0.554   1.993   0.803  0.00  0.00    +0.187 C 
ATOM      4  C   UNL     1       1.419   1.685  -0.457  0.00  0.00    +0.176 C 
ATOM      5  C   UNL     1      -0.893   1.277  -0.493  0.00  0.00    +0.229 C 
ENDROOT
BRANCH   5   8
ATOM      6  O   UNL     1      -3.708   1.052  -0.541  0.00  0.00    -0.252 OA
ATOM      7  O   UNL     1      -3.545  -3.463   0.368  0.00  0.00    -0.270 OA
ATOM      8  N   UNL     1      -1.612   0.055  -0.273  0.00  0.00    -0.217 N 
ATOM      9  N   UNL     1      -3.625  -1.196  -0.088  0.00  0.00    -0.236 N 
ATOM     10  C   UNL     1      -3.026   0.050  -0.318  0.00  0.00    +0.315 C 
ATOM     11  C   UNL     1      -0.918  -1.122  -0.016  0.00  0.00    +0.076 C 
ATOM     12  C   UNL     1      -1.503  -2.302   0.201  0.00  0.00    +0.074 C 
ATOM     13  C   UNL     1      -2.976  -2.393   0.172  0.00  0.00    +0.254 C 
ATOM     14  H   UNL     1      -4.608  -1.224  -0.114  0.00  0.00    +0.159 HD
ENDBRANCH   5   8
BRANCH   2  15
ATOM     15  O   UNL     1       0.455   3.865  -0.341  0.00  0.00    -0.379 OA
ATOM     16  H   UNL     1       0.016   4.530   0.212  0.00  0.00    +0.211 HD
ENDBRANCH   2  15
BRANCH   3  17
ATOM     17  O   UNL     1      -1.567   2.890   1.209  0.00  0.00    -0.378 OA
ATOM     18  H   UNL     1      -1.305   3.321   2.038  0.00  0.00    +0.211 HD
ENDBRANCH   3  17
BRANCH   4  19
ATOM     19  C   UNL     1       2.255   0.670   0.311  0.00  0.00    +0.186 C 
BRANCH  19  20
ATOM     20  O   UNL     1       2.837  -0.232  -0.614  0.00  0.00    -0.271 OA
BRANCH  20  21
ATOM     21  P   UNL     1       3.781  -1.418  -0.046  0.00  0.00    +0.473 P 
ATOM     22  O   UNL     1       4.355  -2.327  -1.094  0.00  0.00    -0.227 OA
BRANCH  21  23
ATOM     23  O   UNL     1       2.859  -2.143   1.068  0.00  0.00    -0.303 OA
ATOM     24  H   UNL     1       2.535  -1.481   1.699  0.00  0.00    +0.222 HD
ENDBRANCH  21  23
BRANCH  21  25
ATOM     25  O   UNL     1       4.874  -0.619   0.838  0.00  0.00    -0.303 OA
ATOM     26  H   UNL     1       4.418  -0.059   1.486  0.00  0.00    +0.222 HD
ENDBRANCH  21  25
ENDBRANCH  20  21
ENDBRANCH  19  20
ENDBRANCH   4  19
TORSDOF 8
