REMARK  Name = 66762
REMARK  2 active torsions:
REMARK  status: ('A' for Active; 'I' for Inactive)
REMARK    1  A    between atoms: C_4  and  C_11
REMARK    2  A    between atoms: C_11  and  N_12
REMARK                            x       y       z     vdW  Elec       q    Type
REMARK                         _______ _______ _______ _____ _____    ______ ____
ROOT
ATOM      1  N   UNL     1       1.111  -1.062  -0.080  0.00  0.00    -0.341 NA
ATOM      2  N   UNL     1       1.301   1.336   0.072  0.00  0.00    -0.186 NA
ATOM      3  N   UNL     1      -1.010  -2.106   0.109  0.00  0.00    -0.332 N 
ATOM      4  C   UNL     1      -0.855   0.284   0.264  0.00  0.00    +0.020 C 
ATOM      5  C   UNL     1      -0.220  -0.930   0.096  0.00  0.00    +0.183 C 
ATOM      6  C   UNL     1      -0.036   1.394   0.243  0.00  0.00    +0.108 C 
ATOM      7  C   UNL     1       1.801   0.095  -0.081  0.00  0.00    +0.066 C 
ATOM      8  C   UNL     1       3.276  -0.010  -0.273  0.00  0.00    +0.129 C 
ATOM      9  H   UNL     1      -0.584  -2.986  -0.009  0.00  0.00    +0.145 HD
ATOM     10  H   UNL     1      -1.984  -2.044   0.235  0.00  0.00    +0.145 HD
ENDROOT
BRANCH   4  11
ATOM     11  C   UNL     1      -2.322   0.424   0.458  0.00  0.00    -0.053 C 
BRANCH  11  12
ATOM     12  N   UNL     1      -3.045   0.575  -0.809  0.00  0.00    +0.383 N 
ATOM     13  H   UNL     1      -4.043   0.667  -0.622  0.00  0.00    -0.089 HD
ATOM     14  H   UNL     1      -2.883  -0.245  -1.393  0.00  0.00    -0.089 HD
ATOM     15  H   UNL     1      -2.711   1.408  -1.293  0.00  0.00    -0.089 HD
ENDBRANCH  11  12
ENDBRANCH   4  11
TORSDOF 2
