REMARK  Name = 3382784
REMARK  6 active torsions:
REMARK  status: ('A' for Active; 'I' for Inactive)
REMARK    1  A    between atoms: C_1  and  C_6
REMARK    2  A    between atoms: C_1  and  C_15
REMARK    3  A    between atoms: N_5  and  C_8
REMARK    4  A    between atoms: C_18  and  O_21
REMARK    5  A    between atoms: C_19  and  O_23
REMARK    6  A    between atoms: C_20  and  O_25
REMARK                            x       y       z     vdW  Elec       q    Type
REMARK                         _______ _______ _______ _____ _____    ______ ____
ROOT
ATOM      1  C   UNL     1      -0.996   0.297   1.613  0.00  0.00    +0.058 C 
ENDROOT
BRANCH   1   5
ATOM      2  N   UNL     1      -3.704   1.432  -0.763  0.00  0.00    -0.344 NA
ATOM      3  N   UNL     1      -4.132  -0.846  -0.139  0.00  0.00    -0.359 NA
ATOM      4  N   UNL     1      -5.877   0.455  -1.052  0.00  0.00    -0.322 N 
ATOM      5  C   UNL     1      -2.159   0.346   0.675  0.00  0.00    +0.041 C 
ATOM      6  C   UNL     1      -2.640   1.487   0.166  0.00  0.00    +0.047 C 
ATOM      7  C   UNL     1      -2.827  -0.928   0.282  0.00  0.00    +0.196 C 
ATOM      8  C   UNL     1      -4.591   0.268  -0.625  0.00  0.00    +0.221 C 
ATOM      9  H   UNL     1      -3.841   2.122  -1.452  0.00  0.00    +0.132 HD
ATOM     10  H   UNL     1      -3.127   0.848  -1.307  0.00  0.00    +0.132 HD
ATOM     11  H   UNL     1      -6.155   1.329  -1.409  0.00  0.00    +0.146 HD
ATOM     12  H   UNL     1      -6.525  -0.285  -1.001  0.00  0.00    +0.146 HD
BRANCH   7  13
ATOM     13  N   UNL     1      -2.293  -2.101   0.363  0.00  0.00    -0.238 NA
ATOM     14  H   UNL     1      -2.803  -2.895   0.083  0.00  0.00    +0.173 HD
ENDBRANCH   7  13
ENDBRANCH   1   5
BRANCH   1  15
ATOM     15  C   UNL     1       0.320   0.209   0.891  0.00  0.00    -0.011 C 
ATOM     16  C   UNL     1       0.852  -1.037   0.585  0.00  0.00    +0.036 C 
ATOM     17  C   UNL     1       0.989   1.374   0.540  0.00  0.00    +0.036 C 
ATOM     18  C   UNL     1       2.210   1.292  -0.129  0.00  0.00    +0.175 C 
ATOM     19  C   UNL     1       2.073  -1.119  -0.084  0.00  0.00    +0.175 C 
ATOM     20  C   UNL     1       2.752   0.046  -0.441  0.00  0.00    +0.206 C 
BRANCH  18  21
ATOM     21  O   UNL     1       2.863   2.438  -0.472  0.00  0.00    -0.468 OA
ATOM     22  C   UNL     1       3.784   2.969   0.480  0.00  0.00    +0.253 C 
ENDBRANCH  18  21
BRANCH  19  23
ATOM     23  O   UNL     1       2.591  -2.343  -0.384  0.00  0.00    -0.468 OA
ATOM     24  C   UNL     1       1.833  -3.483   0.017  0.00  0.00    +0.253 C 
ENDBRANCH  19  23
BRANCH  20  25
ATOM     25  O   UNL     1       3.946  -0.034  -1.095  0.00  0.00    -0.465 OA
ATOM     26  C   UNL     1       5.004  -0.719  -0.428  0.00  0.00    +0.253 C 
ENDBRANCH  20  25
ENDBRANCH   1  15
TORSDOF 6
