REMARK  Name = 3991
REMARK  5 active torsions:
REMARK  status: ('A' for Active; 'I' for Inactive)
REMARK    1  A    between atoms: C_1  and  N_7
REMARK    2  A    between atoms: C_3  and  C_11
REMARK    3  A    between atoms: C_11  and  C_15
REMARK    4  A    between atoms: C_11  and  O_16
REMARK    5  A    between atoms: C_11  and  O_18
REMARK                            x       y       z     vdW  Elec       q    Type
REMARK                         _______ _______ _______ _____ _____    ______ ____
ROOT
ATOM      1  C   UNL     1      -1.772   0.253   0.013  0.00  0.00    +0.034 C 
ATOM      2  C   UNL     1      -0.584  -0.307  -0.317  0.00  0.00    +0.014 C 
ATOM      3  C   UNL     1       0.530   0.533  -0.321  0.00  0.00    +0.038 C 
ATOM      4  C   UNL     1      -1.982   1.551   0.340  0.00  0.00    +0.013 C 
ATOM      5  C   UNL     1       0.388   1.882   0.005  0.00  0.00    +0.001 C 
ATOM      6  C   UNL     1      -0.868   2.391   0.335  0.00  0.00    +0.001 C 
ENDROOT
BRANCH   1   7
ATOM      7  N   UNL     1      -2.994  -0.668   0.020  0.00  0.00    -0.351 NA
ATOM      8  C   UNL     1      -4.013  -0.139  -0.985  0.00  0.00    +0.096 C 
ATOM      9  C   UNL     1      -3.583  -0.693   1.428  0.00  0.00    +0.096 C 
ATOM     10  C   UNL     1      -2.639  -2.101  -0.372  0.00  0.00    +0.096 C 
ENDBRANCH   1   7
BRANCH   3  11
ATOM     11  C   UNL     1       1.873  -0.011  -0.674  0.00  0.00    +0.292 C 
BRANCH  11  15
ATOM     12  F   UNL     1       1.944  -1.517   1.184  0.00  0.00    -0.165 F 
ATOM     13  F   UNL     1       3.838  -1.016   0.229  0.00  0.00    -0.165 F 
ATOM     14  F   UNL     1       2.812   0.462   1.466  0.00  0.00    -0.165 F 
ATOM     15  C   UNL     1       2.624  -0.526   0.563  0.00  0.00    +0.449 C 
ENDBRANCH  11  15
BRANCH  11  16
ATOM     16  O   UNL     1       2.678   1.002  -1.303  0.00  0.00    -0.355 OA
ATOM     17  H   UNL     1       2.784   1.752  -0.697  0.00  0.00    +0.213 HD
ENDBRANCH  11  16
BRANCH  11  18
ATOM     18  O   UNL     1       1.747  -1.095  -1.611  0.00  0.00    -0.355 OA
ATOM     19  H   UNL     1       1.208  -1.800  -1.219  0.00  0.00    +0.213 HD
ENDBRANCH  11  18
ENDBRANCH   3  11
TORSDOF 5
