REMARK  Name = 126
REMARK  2 active torsions:
REMARK  status: ('A' for Active; 'I' for Inactive)
REMARK    1  A    between atoms: C_1  and  C_10
REMARK    2  A    between atoms: C_4  and  O_7
REMARK                            x       y       z     vdW  Elec       q    Type
REMARK                         _______ _______ _______ _____ _____    ______ ____
ROOT
ATOM      1  C   UNL     1      -0.971   0.236   0.000  0.00  0.00    +0.042 C 
ATOM      2  C   UNL     1      -0.131   1.349   0.000  0.00  0.00    +0.006 C 
ATOM      3  C   UNL     1      -0.427  -1.049   0.000  0.00  0.00    +0.006 C 
ATOM      4  C   UNL     1       1.797  -0.106   0.000  0.00  0.00    +0.134 C 
ATOM      5  C   UNL     1       1.253   1.178   0.000  0.00  0.00    +0.037 C 
ATOM      6  C   UNL     1       0.957  -1.220   0.000  0.00  0.00    +0.037 C 
ENDROOT
BRANCH   4   7
ATOM      7  O   UNL     1       3.148  -0.273  -0.001  0.00  0.00    -0.506 OA
ATOM      8  H   UNL     1       3.712   0.475  -0.001  0.00  0.00    +0.292 HD
ENDBRANCH   4   7
BRANCH   1  10
ATOM      9  O   UNL     1      -3.210  -0.529  -0.001  0.00  0.00    -0.283 OA
ATOM     10  C   UNL     1      -2.415   0.414   0.000  0.00  0.00    +0.234 C 
ENDBRANCH   1  10
TORSDOF 2
