REMARK  Name = 5288331
REMARK  4 active torsions:
REMARK  status: ('A' for Active; 'I' for Inactive)
REMARK    1  A    between atoms: C_2  and  O_7
REMARK    2  A    between atoms: C_3  and  O_9
REMARK    3  A    between atoms: C_6  and  C_12
REMARK    4  A    between atoms: C_12  and  O_13
REMARK                            x       y       z     vdW  Elec       q    Type
REMARK                         _______ _______ _______ _____ _____    ______ ____
ROOT
ATOM      1  O   UNL     1      -0.269  -1.231  -0.455  0.00  0.00    -0.467 OA
ATOM      2  C   UNL     1       2.022  -0.473   0.060  0.00  0.00    +0.185 C 
ATOM      3  C   UNL     1       1.536   0.966   0.254  0.00  0.00    +0.166 C 
ATOM      4  C   UNL     1       1.099  -1.236  -0.888  0.00  0.00    +0.238 C 
ATOM      5  C   UNL     1       0.040   1.042   0.284  0.00  0.00    +0.049 C 
ATOM      6  C   UNL     1      -0.732  -0.008  -0.031  0.00  0.00    +0.212 C 
ENDROOT
BRANCH   2   7
ATOM      7  O   UNL     1       2.036  -1.154   1.313  0.00  0.00    -0.378 OA
ATOM      8  H   UNL     1       2.618  -0.685   1.930  0.00  0.00    +0.211 HD
ENDBRANCH   2   7
BRANCH   3   9
ATOM      9  O   UNL     1       1.984   1.779  -0.826  0.00  0.00    -0.377 OA
ATOM     10  H   UNL     1       2.952   1.751  -0.872  0.00  0.00    +0.211 HD
ENDBRANCH   3   9
BRANCH   6  12
ATOM     11  O   UNL     1      -2.738   1.168   0.461  0.00  0.00    -0.242 OA
ATOM     12  C   UNL     1      -2.182   0.149   0.092  0.00  0.00    +0.372 C 
BRANCH  12  13
ATOM     13  O   UNL     1      -2.795  -1.001  -0.263  0.00  0.00    -0.475 OA
ATOM     14  H   UNL     1      -2.285  -1.738  -0.535  0.00  0.00    +0.296 HD
ENDBRANCH  12  13
ENDBRANCH   6  12
TORSDOF 4
