REMARK  Name = 6992039
REMARK  8 active torsions:
REMARK  status: ('A' for Active; 'I' for Inactive)
REMARK    1  A    between atoms: C_1  and  N_2
REMARK    2  A    between atoms: C_1  and  C_8
REMARK    3  A    between atoms: C_1  and  C_10
REMARK    4  A    between atoms: C_1  and  C_13
REMARK    5  A    between atoms: C_10  and  O_11
REMARK    6  A    between atoms: C_13  and  C_14
REMARK    7  A    between atoms: C_14  and  C_15
REMARK    8  A    between atoms: C_15  and  N_16
REMARK                            x       y       z     vdW  Elec       q    Type
REMARK                         _______ _______ _______ _____ _____    ______ ____
ROOT
ATOM      1  C   UNL     1       0.620  -0.220   0.390  0.00  0.00    +0.105 C 
ENDROOT
BRANCH   1   2
ATOM      2  N   UNL     1       0.579  -0.003   1.843  0.00  0.00    +0.393 N 
ATOM      3  H   UNL     1       0.486  -0.900   2.318  0.00  0.00    -0.088 HD
ATOM      4  H   UNL     1      -0.218   0.590   2.076  0.00  0.00    -0.088 HD
ATOM      5  H   UNL     1       1.440   0.454   2.143  0.00  0.00    -0.088 HD
ENDBRANCH   1   2
BRANCH   1   8
ATOM      6  F   UNL     1       2.011  -1.232  -1.247  0.00  0.00    -0.200 F 
ATOM      7  F   UNL     1       2.971  -0.486   0.558  0.00  0.00    -0.200 F 
ATOM      8  C   UNL     1       1.846  -1.087   0.092  0.00  0.00    +0.311 C 
ENDBRANCH   1   8
BRANCH   1  10
ATOM      9  O   UNL     1       0.854   2.221   0.355  0.00  0.00    -0.252 OA
ATOM     10  C   UNL     1       0.759   1.164  -0.260  0.00  0.00    +0.300 C 
BRANCH  10  11
ATOM     11  O   UNL     1       0.746   1.123  -1.618  0.00  0.00    -0.481 OA
ATOM     12  H   UNL     1       0.673   0.300  -2.060  0.00  0.00    +0.295 HD
ENDBRANCH  10  11
ENDBRANCH   1  10
BRANCH   1  13
ATOM     13  C   UNL     1      -0.710  -0.861  -0.074  0.00  0.00    -0.006 C 
BRANCH  13  14
ATOM     14  C   UNL     1      -1.973  -0.044   0.242  0.00  0.00    -0.025 C 
BRANCH  14  15
ATOM     15  C   UNL     1      -3.258  -0.683  -0.294  0.00  0.00    -0.086 C 
BRANCH  15  16
ATOM     16  N   UNL     1      -4.444   0.107   0.014  0.00  0.00    +0.380 N 
ATOM     17  H   UNL     1      -5.270  -0.358  -0.363  0.00  0.00    -0.089 HD
ATOM     18  H   UNL     1      -4.354   1.033  -0.406  0.00  0.00    -0.089 HD
ATOM     19  H   UNL     1      -4.537   0.200   1.025  0.00  0.00    -0.089 HD
ENDBRANCH  15  16
ENDBRANCH  14  15
ENDBRANCH  13  14
ENDBRANCH   1  13
TORSDOF 8
