REMARK  Name = 17523
REMARK  1 active torsions:
REMARK  status: ('A' for Active; 'I' for Inactive)
REMARK    1  A    between atoms: C_4  and  S_7
REMARK                            x       y       z     vdW  Elec       q    Type
REMARK                         _______ _______ _______ _____ _____    ______ ____
ROOT
ATOM      1  N   UNL     1       0.302  -1.193   0.000  0.00  0.00    -0.238 NA
ATOM      2  C   UNL     1       0.200   1.222   0.000  0.00  0.00    +0.025 C 
ATOM      3  C   UNL     1      -1.190   1.171   0.000  0.00  0.00    +0.004 C 
ATOM      4  C   UNL     1       0.893   0.023   0.001  0.00  0.00    +0.103 C 
ATOM      5  C   UNL     1      -1.834  -0.062   0.000  0.00  0.00    +0.021 C 
ATOM      6  C   UNL     1      -1.049  -1.204   0.000  0.00  0.00    +0.099 C 
ENDROOT
BRANCH   4   7
ATOM      7  S   UNL     1       2.677   0.042  -0.001  0.00  0.00    -0.123 S 
ATOM      8  H   UNL     1       3.145  -1.235   0.000  0.00  0.00    +0.109 HD
ENDBRANCH   4   7
TORSDOF 1
