REMARK  Name = 4628690
REMARK  6 active torsions:
REMARK  status: ('A' for Active; 'I' for Inactive)
REMARK    1  A    between atoms: P_1  and  O_3
REMARK    2  A    between atoms: P_1  and  O_5
REMARK    3  A    between atoms: P_1  and  C_7
REMARK    4  A    between atoms: C_7  and  C_8
REMARK    5  A    between atoms: C_8  and  C_9
REMARK    6  A    between atoms: C_9  and  C_12
REMARK                            x       y       z     vdW  Elec       q    Type
REMARK                         _______ _______ _______ _____ _____    ______ ____
ROOT
ATOM      1  P   UNL     1      -2.146  -0.037   0.011  0.00  0.00    +0.337 P 
ATOM      2  O   UNL     1      -2.639  -1.234   0.742  0.00  0.00    -0.258 OA
ENDROOT
BRANCH   1   3
ATOM      3  O   UNL     1      -2.933   0.348  -1.339  0.00  0.00    -0.324 OA
ATOM      4  H   UNL     1      -3.876   0.458  -1.144  0.00  0.00    +0.220 HD
ENDBRANCH   1   3
BRANCH   1   5
ATOM      5  O   UNL     1      -2.104   1.340   0.844  0.00  0.00    -0.324 OA
ATOM      6  H   UNL     1      -2.985   1.526   1.206  0.00  0.00    +0.220 HD
ENDBRANCH   1   5
BRANCH   1   7
ATOM      7  C   UNL     1      -0.439  -0.193  -0.566  0.00  0.00    +0.120 C 
BRANCH   7   8
ATOM      8  C   UNL     1       0.564  -0.412   0.562  0.00  0.00    +0.042 C 
BRANCH   8   9
ATOM      9  C   UNL     1       1.976  -0.552   0.067  0.00  0.00    +0.021 C 
ATOM     10  C   UNL     1       2.551  -1.725  -0.229  0.00  0.00    -0.001 C 
BRANCH   9  12
ATOM     11  O   UNL     1       2.379   1.799   0.068  0.00  0.00    -0.283 OA
ATOM     12  C   UNL     1       2.791   0.667  -0.160  0.00  0.00    +0.230 C 
ENDBRANCH   9  12
ENDBRANCH   8   9
ENDBRANCH   7   8
ENDBRANCH   1   7
TORSDOF 6
