REMARK  Name = 5289228
REMARK  6 active torsions:
REMARK  status: ('A' for Active; 'I' for Inactive)
REMARK    1  A    between atoms: N_1  and  C_13
REMARK    2  A    between atoms: C_5  and  C_17
REMARK    3  A    between atoms: C_13  and  C_14
REMARK    4  A    between atoms: C_14  and  C_15
REMARK    5  A    between atoms: C_17  and  C_18
REMARK    6  A    between atoms: C_21  and  O_24
REMARK                            x       y       z     vdW  Elec       q    Type
REMARK                         _______ _______ _______ _____ _____    ______ ____
ROOT
ATOM      1  N   UNL     1      -1.653   0.431   0.570  0.00  0.00    -0.249 N 
ATOM      2  N   UNL     1      -0.133  -1.131   0.170  0.00  0.00    -0.385 NA
ATOM      3  N   UNL     1      -3.684  -0.799   0.073  0.00  0.00    -0.227 NA
ATOM      4  N   UNL     1      -3.175  -3.086  -0.608  0.00  0.00    -0.227 NA
ATOM      5  C   UNL     1      -0.329   0.116   0.545  0.00  0.00    +0.169 C 
ATOM      6  C   UNL     1      -2.354  -0.666   0.190  0.00  0.00    +0.167 C 
ATOM      7  C   UNL     1      -1.391  -1.631  -0.056  0.00  0.00    +0.195 C 
ATOM      8  C   UNL     1      -1.843  -2.881  -0.469  0.00  0.00    +0.155 C 
ATOM      9  C   UNL     1      -4.000  -2.048  -0.332  0.00  0.00    +0.253 C 
ATOM     10  N   UNL     1      -0.935  -3.919  -0.740  0.00  0.00    -0.341 N 
ATOM     11  H   UNL     1      -1.267  -4.799  -1.032  0.00  0.00    +0.144 HD
ATOM     12  H   UNL     1       0.032  -3.767  -0.638  0.00  0.00    +0.144 HD
ENDROOT
BRANCH   1  13
ATOM     13  C   UNL     1      -2.225   1.722   0.938  0.00  0.00    +0.099 C 
BRANCH  13  14
ATOM     14  C   UNL     1      -2.374   2.649  -0.267  0.00  0.00    +0.022 C 
BRANCH  14  15
ATOM     15  C   UNL     1      -2.964   3.998   0.144  0.00  0.00    +0.002 C 
ATOM     16  C   UNL     1      -3.079   4.941  -1.043  0.00  0.00    +0.000 C 
ENDBRANCH  14  15
ENDBRANCH  13  14
ENDBRANCH   1  13
BRANCH   5  17
ATOM     17  C   UNL     1       0.726   1.086   0.905  0.00  0.00    +0.102 C 
BRANCH  17  18
ATOM     18  C   UNL     1       2.138   0.525   0.810  0.00  0.00    -0.011 C 
ATOM     19  C   UNL     1       2.821   0.638  -0.384  0.00  0.00    +0.033 C 
ATOM     20  C   UNL     1       2.692  -0.077   1.921  0.00  0.00    -0.004 C 
ATOM     21  C   UNL     1       4.115   0.125  -0.470  0.00  0.00    +0.138 C 
ATOM     22  C   UNL     1       3.986  -0.590   1.834  0.00  0.00    +0.003 C 
ATOM     23  C   UNL     1       4.697  -0.489   0.638  0.00  0.00    +0.037 C 
BRANCH  21  24
ATOM     24  O   UNL     1       4.810   0.224  -1.637  0.00  0.00    -0.471 OA
ATOM     25  C   UNL     1       4.154   0.863  -2.731  0.00  0.00    +0.252 C 
ENDBRANCH  21  24
ENDBRANCH  17  18
ENDBRANCH   5  17
TORSDOF 6
