REMARK  Name = 5287901
REMARK  5 active torsions:
REMARK  status: ('A' for Active; 'I' for Inactive)
REMARK    1  A    between atoms: C_4  and  C_7
REMARK    2  A    between atoms: C_5  and  C_11
REMARK    3  A    between atoms: C_11  and  CA_12
REMARK    4  A    between atoms: CA_12  and  N_13
REMARK    5  A    between atoms: CA_12  and  C_19
REMARK                            x       y       z     vdW  Elec       q    Type
REMARK                         _______ _______ _______ _____ _____    ______ ____
ROOT
ATOM      1  O   UNL     1      -2.622  -0.584  -0.321  0.00  0.00    -0.348 OA
ATOM      2  O   UNL     1      -0.363  -3.208   0.277  0.00  0.00    -0.219 OA
ATOM      3  N   UNL     1      -2.323  -1.940  -0.273  0.00  0.00    -0.001 NA
ATOM      4  C   UNL     1      -1.516   0.062   0.033  0.00  0.00    +0.160 C 
ATOM      5  C   UNL     1      -0.490  -0.724   0.318  0.00  0.00    +0.095 C 
ATOM      6  C   UNL     1      -1.045  -1.999   0.110  0.00  0.00    +0.188 C 
ENDROOT
BRANCH   4   7
ATOM      7  C   UNL     1      -1.668   1.592   0.038  0.00  0.00    +0.054 C 
ATOM      8  C   UNL     1      -1.390   2.137   1.455  0.00  0.00    +0.008 C 
ATOM      9  C   UNL     1      -3.075   2.081  -0.372  0.00  0.00    +0.008 C 
ATOM     10  C   UNL     1      -0.662   2.217  -0.953  0.00  0.00    +0.008 C 
ENDBRANCH   4   7
BRANCH   5  11
ATOM     11  C   UNL     1       0.875  -0.363   0.742  0.00  0.00    +0.030 C 
BRANCH  11  12
ATOM     12  CA  UNL     1       1.865  -0.168  -0.429  0.00  0.00    +0.046 C 
BRANCH  12  13
ATOM     13  N   UNL     1       2.222  -1.513  -0.980  0.00  0.00    +0.389 N 
ATOM     14  H1  UNL     1       1.372  -2.002  -1.260  0.00  0.00    -0.088 HD
ATOM     15  H2  UNL     1       2.707  -2.055  -0.265  0.00  0.00    -0.088 HD
ATOM     16  H3  UNL     1       2.831  -1.398  -1.790  0.00  0.00    -0.088 HD
ENDBRANCH  12  13
BRANCH  12  19
ATOM     17  O   UNL     1       3.749   0.102   0.970  0.00  0.00    -0.248 OA
ATOM     18  OXT UNL     1       3.335   1.686  -0.626  0.00  0.00    -0.248 OA
ATOM     19  C   UNL     1       3.108   0.620   0.012  0.00  0.00    +0.345 C 
ENDBRANCH  12  19
ENDBRANCH  11  12
ENDBRANCH   5  11
TORSDOF 5
