REMARK  Name = 39981
REMARK  10 active torsions:
REMARK  status: ('A' for Active; 'I' for Inactive)
REMARK    1  A    between atoms: N_2  and  CA_5
REMARK    2  A    between atoms: C_3  and  C_15
REMARK    3  A    between atoms: CA_5  and  C_7
REMARK    4  A    between atoms: CA_5  and  CB_10
REMARK    5  A    between atoms: C_7  and  O_8
REMARK    6  A    between atoms: CB_10  and  CG_12
REMARK    7  A    between atoms: CG_12  and  OD1_13
REMARK    8  A    between atoms: C_15  and  P_16
REMARK    9  A    between atoms: P_16  and  O_18
REMARK   10  A    between atoms: P_16  and  O_20
REMARK                            x       y       z     vdW  Elec       q    Type
REMARK                         _______ _______ _______ _____ _____    ______ ____
ROOT
ATOM      1  O   UNL     1      -1.029   0.701   1.222  0.00  0.00    -0.274 OA
ATOM      2  N   UNL     1       0.477   0.068  -0.435  0.00  0.00    -0.296 N 
ATOM      3  C   ACE A   0      -0.784   0.207   0.125  0.00  0.00    +0.235 C 
ATOM      4  H   UNL     1       0.552  -0.345  -1.325  0.00  0.00    +0.150 HD
ENDROOT
BRANCH   2   5
ATOM      5  CA  UNL     1       1.685   0.501   0.226  0.00  0.00    +0.182 C 
BRANCH   5   7
ATOM      6  OXT UNL     1       2.878   2.596   0.481  0.00  0.00    -0.248 OA
ATOM      7  C   UNL     1       1.961   1.972  -0.039  0.00  0.00    +0.332 C 
BRANCH   7   8
ATOM      8  O   UNL     1       1.088   2.535  -0.907  0.00  0.00    -0.479 OA
ATOM      9  H   UNL     1       0.401   2.020  -1.281  0.00  0.00    +0.295 HD
ENDBRANCH   7   8
ENDBRANCH   5   7
BRANCH   5  10
ATOM     10  CB  UNL     1       2.884  -0.347  -0.207  0.00  0.00    +0.140 C 
BRANCH  10  12
ATOM     11  OD2 UNL     1       2.036  -2.297   0.987  0.00  0.00    -0.250 OA
ATOM     12  CG  UNL     1       2.688  -1.824   0.067  0.00  0.00    +0.316 C 
BRANCH  12  13
ATOM     13  OD1 UNL     1       3.340  -2.588  -0.849  0.00  0.00    -0.480 OA
ATOM     14  HD1 UNL     1       3.828  -2.180  -1.537  0.00  0.00    +0.295 HD
ENDBRANCH  12  13
ENDBRANCH  10  12
ENDBRANCH   5  10
ENDBRANCH   2   5
BRANCH   3  15
ATOM     15  C   UNL     1      -1.866  -0.326  -0.780  0.00  0.00    +0.200 C 
BRANCH  15  16
ATOM     16  P   UNL     1      -3.527  -0.200  -0.090  0.00  0.00    +0.346 P 
ATOM     17  O   UNL     1      -3.945   1.197   0.218  0.00  0.00    -0.258 OA
BRANCH  16  18
ATOM     18  O   UNL     1      -3.465  -1.213   1.161  0.00  0.00    -0.323 OA
ATOM     19  H   UNL     1      -4.323  -1.222   1.612  0.00  0.00    +0.220 HD
ENDBRANCH  16  18
BRANCH  16  20
ATOM     20  O   UNL     1      -4.420  -0.982  -1.179  0.00  0.00    -0.323 OA
ATOM     21  H   UNL     1      -5.349  -0.974  -0.901  0.00  0.00    +0.220 HD
ENDBRANCH  16  20
ENDBRANCH  15  16
ENDBRANCH   3  15
TORSDOF 10
