REMARK  Name = 644111
REMARK  8 active torsions:
REMARK  status: ('A' for Active; 'I' for Inactive)
REMARK    1  A    between atoms: C_1  and  O_2
REMARK    2  A    between atoms: C_1  and  C_5
REMARK    3  A    between atoms: C_1  and  C_9
REMARK    4  A    between atoms: C_5  and  C_6
REMARK    5  A    between atoms: C_6  and  O_7
REMARK    6  A    between atoms: C_9  and  O_10
REMARK    7  A    between atoms: C_9  and  C_12
REMARK    8  A    between atoms: C_12  and  O_13
REMARK                            x       y       z     vdW  Elec       q    Type
REMARK                         _______ _______ _______ _____ _____    ______ ____
ROOT
ATOM      1  C   UNL     1       0.018  -0.588   0.293  0.00  0.00    +0.200 C 
ENDROOT
BRANCH   1   2
ATOM      2  O   UNL     1      -0.024  -1.861  -0.335  0.00  0.00    -0.375 OA
ATOM      3  H   UNL     1       0.793  -2.346  -0.139  0.00  0.00    +0.211 HD
ENDBRANCH   1   2
BRANCH   1   5
ATOM      4  O   UNL     1      -1.264   1.260  -0.581  0.00  0.00    -0.291 OA
ATOM      5  C   UNL     1      -1.274   0.162  -0.025  0.00  0.00    +0.209 C 
BRANCH   5   6
ATOM      6  C   UNL     1      -2.572  -0.526   0.352  0.00  0.00    +0.205 C 
BRANCH   6   7
ATOM      7  O   UNL     1      -3.679   0.282   0.007  0.00  0.00    -0.375 OA
ATOM      8  H   UNL     1      -4.500  -0.171   0.254  0.00  0.00    +0.211 HD
ENDBRANCH   6   7
ENDBRANCH   5   6
ENDBRANCH   1   5
BRANCH   1   9
ATOM      9  C   UNL     1       1.267   0.171  -0.167  0.00  0.00    +0.174 C 
BRANCH   9  10
ATOM     10  O   UNL     1       1.311   1.458   0.455  0.00  0.00    -0.379 OA
ATOM     11  H   UNL     1       0.507   1.953   0.231  0.00  0.00    +0.211 HD
ENDBRANCH   9  10
BRANCH   9  12
ATOM     12  C   UNL     1       2.550  -0.563   0.216  0.00  0.00    +0.169 C 
BRANCH  12  13
ATOM     13  O   UNL     1       3.669   0.207  -0.214  0.00  0.00    -0.379 OA
ATOM     14  H   UNL     1       4.489  -0.252   0.026  0.00  0.00    +0.211 HD
ENDBRANCH  12  13
ENDBRANCH   9  12
ENDBRANCH   1   9
TORSDOF 8
