REMARK  Name = 5289215
REMARK  7 active torsions:
REMARK  status: ('A' for Active; 'I' for Inactive)
REMARK    1  A    between atoms: P_1  and  O_3
REMARK    2  A    between atoms: P_1  and  O_5
REMARK    3  A    between atoms: P_1  and  O_13
REMARK    4  A    between atoms: O_5  and  C_6
REMARK    5  A    between atoms: C_6  and  C_7
REMARK    6  A    between atoms: O_13  and  C_14
REMARK    7  A    between atoms: C_15  and  C_21
REMARK                            x       y       z     vdW  Elec       q    Type
REMARK                         _______ _______ _______ _____ _____    ______ ____
ROOT
ATOM      1  P   UNL     1      -0.339  -2.178   0.552  0.00  0.00    +0.532 P 
ATOM      2  O   UNL     1      -0.730  -2.659   1.920  0.00  0.00    -0.215 OA
ENDROOT
BRANCH   1   3
ATOM      3  O   UNL     1      -0.030  -3.379  -0.491  0.00  0.00    -0.293 OA
ATOM      4  H   UNL     1       0.216  -3.004  -1.351  0.00  0.00    +0.223 HD
ENDBRANCH   1   3
BRANCH   1   5
ATOM      5  O   UNL     1       0.999  -1.268   0.502  0.00  0.00    -0.259 OA
BRANCH   5   6
ATOM      6  C   UNL     1       1.466  -0.756  -0.734  0.00  0.00    +0.181 C 
BRANCH   6   7
ATOM      7  C   UNL     1       2.711   0.046  -0.493  0.00  0.00    +0.008 C 
ATOM      8  C   UNL     1       2.613   1.406  -0.225  0.00  0.00    -0.002 C 
ATOM      9  C   UNL     1       3.953  -0.579  -0.540  0.00  0.00    -0.002 C 
ATOM     10  C   UNL     1       3.770   2.152  -0.001  0.00  0.00    -0.000 C 
ATOM     11  C   UNL     1       5.110   0.167  -0.316  0.00  0.00    -0.000 C 
ATOM     12  C   UNL     1       5.019   1.532  -0.046  0.00  0.00    -0.000 C 
ENDBRANCH   6   7
ENDBRANCH   5   6
ENDBRANCH   1   5
BRANCH   1  13
ATOM     13  O   UNL     1      -1.474  -1.316  -0.215  0.00  0.00    -0.402 OA
BRANCH  13  14
ATOM     14  C   UNL     1      -2.010  -0.147   0.237  0.00  0.00    +0.152 C 
ATOM     15  C   UNL     1      -2.987   0.524  -0.498  0.00  0.00    +0.077 C 
ATOM     16  C   UNL     1      -1.569   0.377   1.452  0.00  0.00    +0.038 C 
ATOM     17  C   UNL     1      -3.524   1.718  -0.017  0.00  0.00    +0.006 C 
ATOM     18  C   UNL     1      -2.106   1.571   1.933  0.00  0.00    +0.003 C 
ATOM     19  C   UNL     1      -3.083   2.242   1.198  0.00  0.00    +0.000 C 
BRANCH  15  21
ATOM     20  O   UNL     1      -4.326   0.554  -2.449  0.00  0.00    -0.283 OA
ATOM     21  C   UNL     1      -3.463  -0.006  -1.768  0.00  0.00    +0.237 C 
ENDBRANCH  15  21
ENDBRANCH  13  14
ENDBRANCH   1  13
TORSDOF 7
