REMARK  Name = 445969
REMARK  7 active torsions:
REMARK  status: ('A' for Active; 'I' for Inactive)
REMARK    1  A    between atoms: C_1  and  O_2
REMARK    2  A    between atoms: C_1  and  C_4
REMARK    3  A    between atoms: C_1  and  C_10
REMARK    4  A    between atoms: C_4  and  O_5
REMARK    5  A    between atoms: C_4  and  C_7
REMARK    6  A    between atoms: C_7  and  O_8
REMARK    7  A    between atoms: C_10  and  O_11
REMARK                            x       y       z     vdW  Elec       q    Type
REMARK                         _______ _______ _______ _____ _____    ______ ____
ROOT
ATOM      1  C   UNL     1       0.689   0.340  -0.313  0.00  0.00    +0.169 C 
ENDROOT
BRANCH   1   2
ATOM      2  O   UNL     1       0.837   1.183   0.832  0.00  0.00    -0.379 OA
ATOM      3  H   UNL     1       0.130   1.847   0.838  0.00  0.00    +0.211 HD
ENDBRANCH   1   2
BRANCH   1   4
ATOM      4  C   UNL     1      -0.694  -0.327  -0.309  0.00  0.00    +0.169 C 
BRANCH   4   5
ATOM      5  O   UNL     1      -0.804  -1.172   0.839  0.00  0.00    -0.379 OA
ATOM      6  H   UNL     1      -0.081  -1.819   0.833  0.00  0.00    +0.211 HD
ENDBRANCH   4   5
BRANCH   4   7
ATOM      7  C   UNL     1      -1.840   0.682  -0.279  0.00  0.00    +0.169 C 
BRANCH   7   8
ATOM      8  O   UNL     1      -3.074  -0.028  -0.241  0.00  0.00    -0.379 OA
ATOM      9  H   UNL     1      -3.810   0.603  -0.222  0.00  0.00    +0.211 HD
ENDBRANCH   7   8
ENDBRANCH   4   7
ENDBRANCH   1   4
BRANCH   1  10
ATOM     10  C   UNL     1       1.821  -0.684  -0.278  0.00  0.00    +0.169 C 
BRANCH  10  11
ATOM     11  O   UNL     1       3.066   0.006  -0.251  0.00  0.00    -0.379 OA
ATOM     12  H   UNL     1       3.792  -0.637  -0.229  0.00  0.00    +0.211 HD
ENDBRANCH  10  11
ENDBRANCH   1  10
TORSDOF 7
