REMARK  Name = 447955
REMARK  1 active torsions:
REMARK  status: ('A' for Active; 'I' for Inactive)
REMARK    1  A    between atoms: C_4  and  C_13
REMARK                            x       y       z     vdW  Elec       q    Type
REMARK                         _______ _______ _______ _____ _____    ______ ____
ROOT
ATOM      1  N   UNL     1      -1.351  -0.297  -0.841  0.00  0.00    -0.338 NA
ATOM      2  N   UNL     1      -3.348  -0.244   0.507  0.00  0.00    -0.170 NA
ATOM      3  N   UNL     1      -3.467  -0.598  -1.810  0.00  0.00    -0.293 N 
ATOM      4  C   UNL     1      -0.633  -0.076   0.280  0.00  0.00    +0.147 C 
ATOM      5  C   UNL     1      -1.193   0.069   1.533  0.00  0.00    +0.055 C 
ATOM      6  C   UNL     1      -2.683  -0.368  -0.657  0.00  0.00    +0.141 C 
ATOM      7  C   UNL     1      -2.569  -0.025   1.587  0.00  0.00    +0.114 C 
ATOM      8  H   UNL     1      -3.033  -0.696  -2.688  0.00  0.00    +0.155 HD
ATOM      9  H   UNL     1      -4.447  -0.659  -1.734  0.00  0.00    +0.155 HD
ENDROOT
BRANCH   4  13
ATOM     10 CL   UNL     1       0.761   2.771  -0.327  0.00  0.00    -0.075 Cl
ATOM     11 CL   UNL     1       4.420  -1.659  -0.045  0.00  0.00    -0.075 Cl
ATOM     12  S   UNL     1       3.125   0.999  -0.316  0.00  0.00    -0.064 S 
ATOM     13  C   UNL     1       0.788   0.003   0.106  0.00  0.00    +0.049 C 
ATOM     14  C   UNL     1       1.708  -1.087   0.173  0.00  0.00    +0.022 C 
ATOM     15  C   UNL     1       1.432   1.197  -0.155  0.00  0.00    +0.090 C 
ATOM     16  C   UNL     1       3.009  -0.686  -0.038  0.00  0.00    +0.088 C 
ENDBRANCH   4  13
TORSDOF 1
