REMARK  Name = 57449
REMARK  8 active torsions:
REMARK  status: ('A' for Active; 'I' for Inactive)
REMARK    1  A    between atoms: CA_1  and  N_2
REMARK    2  A    between atoms: CA_1  and  C_7
REMARK    3  A    between atoms: CA_1  and  CB_10
REMARK    4  A    between atoms: C_7  and  O_8
REMARK    5  A    between atoms: CB_10  and  CG_11
REMARK    6  A    between atoms: CG_11  and  CD_12
REMARK    7  A    between atoms: CD_12  and  CE_13
REMARK    8  A    between atoms: CE_13  and  NZ_14
REMARK                            x       y       z     vdW  Elec       q    Type
REMARK                         _______ _______ _______ _____ _____    ______ ____
ROOT
ATOM      1  CA  LYS A   1      -1.694  -0.721  -0.494  0.00  0.00    +0.036 C 
ENDROOT
BRANCH   1   2
ATOM      2  N   LYS A   1      -1.856  -1.760   0.524  0.00  0.00    +0.389 N 
ATOM      3  H1  LYS A   1      -1.535  -2.654   0.151  0.00  0.00    -0.088 HD
ATOM      4  H2  LYS A   1      -2.840  -1.833   0.782  0.00  0.00    -0.088 HD
ATOM      5  H3  LYS A   1      -1.306  -1.518   1.348  0.00  0.00    -0.088 HD
ENDBRANCH   1   2
BRANCH   1   7
ATOM      6  OXT LYS A   1      -2.538   0.697   1.268  0.00  0.00    -0.253 OA
ATOM      7  C   LYS A   1      -2.182   0.584   0.101  0.00  0.00    +0.293 C 
BRANCH   7   8
ATOM      8  O   LYS A   1      -2.208   1.619  -0.776  0.00  0.00    -0.482 OA
ATOM      9  H   LYS A   1      -1.926   1.490  -1.661  0.00  0.00    +0.295 HD
ENDBRANCH   7   8
ENDBRANCH   1   7
BRANCH   1  10
ATOM     10  CB  LYS A   1      -0.246  -0.647  -0.994  0.00  0.00    -0.011 C 
BRANCH  10  11
ATOM     11  CG  LYS A   1       0.784  -0.259   0.075  0.00  0.00    -0.004 C 
BRANCH  11  12
ATOM     12  CD  LYS A   1       2.209  -0.124  -0.467  0.00  0.00    -0.024 C 
BRANCH  12  13
ATOM     13  CE  LYS A   1       3.189   0.239   0.649  0.00  0.00    -0.086 C 
BRANCH  13  14
ATOM     14  NZ  LYS A   1       4.539   0.371   0.114  0.00  0.00    +0.380 N 
ATOM     15  HZ1 LYS A   1       5.182   0.613   0.869  0.00  0.00    -0.089 HD
ATOM     16  HZ2 LYS A   1       4.554   1.106  -0.593  0.00  0.00    -0.089 HD
ATOM     17  HZ3 LYS A   1       4.826  -0.512  -0.307  0.00  0.00    -0.089 HD
ENDBRANCH  13  14
ENDBRANCH  12  13
ENDBRANCH  11  12
ENDBRANCH  10  11
ENDBRANCH   1  10
TORSDOF 8
