REMARK  Name = 5289281
REMARK  12 active torsions:
REMARK  status: ('A' for Active; 'I' for Inactive)
REMARK    1  A    between atoms: C_1  and  C_2
REMARK    2  A    between atoms: C_1  and  C_15
REMARK    3  A    between atoms: C_2  and  C_3
REMARK    4  A    between atoms: C_3  and  C_4
REMARK    5  A    between atoms: C_4  and  C_7
REMARK    6  A    between atoms: N_6  and  CA_9
REMARK    7  A    between atoms: CA_9  and  C_12
REMARK    8  A    between atoms: C_12  and  O_13
REMARK    9  A    between atoms: C_15  and  N_17
REMARK   10  A    between atoms: C_15  and  C_27
REMARK   11  A    between atoms: C_18  and  CA_20
REMARK   12  A    between atoms: CA_20  and  N_21
REMARK                            x       y       z     vdW  Elec       q    Type
REMARK                         _______ _______ _______ _____ _____    ______ ____
ROOT
ATOM      1  C   UNK A   2       2.197   0.760  -0.976  0.00  0.00    +0.031 C 
ENDROOT
BRANCH   1   2
ATOM      2  C   UNK A   2       0.984   0.644  -0.044  0.00  0.00    +0.003 C 
BRANCH   2   3
ATOM      3  C   UNK A   0      -0.314   0.493  -0.845  0.00  0.00    +0.010 C 
BRANCH   3   4
ATOM      4  C   UNK A   0      -1.546   0.404   0.055  0.00  0.00    +0.085 C 
BRANCH   4   7
ATOM      5  O   UNK A   0      -2.897   0.062  -1.925  0.00  0.00    -0.275 OA
ATOM      6  N   GLY A   1      -3.931   0.107   0.154  0.00  0.00    -0.297 N 
ATOM      7  C   UNK A   0      -2.843   0.182  -0.704  0.00  0.00    +0.223 C 
ATOM      8  H   GLY A   1      -3.774   0.218   1.120  0.00  0.00    +0.150 HD
BRANCH   6   9
ATOM      9  CA  GLY A   1      -5.282  -0.125  -0.303  0.00  0.00    +0.171 C 
ATOM     10  CB  GLY A   1      -5.971   1.197  -0.607  0.00  0.00    +0.033 C 
BRANCH   9  12
ATOM     11  OXT GLY A   1      -7.243  -1.290   0.497  0.00  0.00    -0.248 OA
ATOM     12  C   GLY A   1      -6.091  -0.923   0.705  0.00  0.00    +0.332 C 
BRANCH  12  13
ATOM     13  O   GLY A   1      -5.445  -1.192   1.865  0.00  0.00    -0.479 OA
ATOM     14  H   GLY A   1      -4.564  -0.896   1.990  0.00  0.00    +0.295 HD
ENDBRANCH  12  13
ENDBRANCH   9  12
ENDBRANCH   6   9
ENDBRANCH   4   7
ENDBRANCH   3   4
ENDBRANCH   2   3
ENDBRANCH   1   2
BRANCH   1  15
ATOM     15  C   UNK A   2       3.529   0.952  -0.238  0.00  0.00    +0.176 C 
BRANCH  15  17
ATOM     16  O   GLY A   1       4.977  -1.255  -1.363  0.00  0.00    -0.277 OA
ATOM     17  N   UNK A   2       3.913  -0.264   0.446  0.00  0.00    -0.298 N 
ATOM     18  C   GLY A   1       4.614  -1.274  -0.190  0.00  0.00    +0.201 C 
ATOM     19  H   UNK A   2       3.668  -0.376   1.393  0.00  0.00    +0.150 HD
BRANCH  18  20
ATOM     20  CA  GLY A   1       4.890  -2.426   0.743  0.00  0.00    +0.001 C 
BRANCH  20  21
ATOM     21  N   GLY A   1       5.643  -3.508   0.062  0.00  0.00    +0.386 N 
ATOM     22  H1  GLY A   1       5.812  -4.269   0.719  0.00  0.00    -0.089 HD
ATOM     23  H2  GLY A   1       6.534  -3.143  -0.273  0.00  0.00    -0.089 HD
ATOM     24  H3  GLY A   1       5.099  -3.855  -0.728  0.00  0.00    -0.089 HD
ENDBRANCH  20  21
ENDBRANCH  18  20
ENDBRANCH  15  17
BRANCH  15  27
ATOM     25  O   UNK A   2       4.356   2.099   1.676  0.00  0.00    -0.244 OA
ATOM     26  O   UNK A   2       2.861   3.163   0.323  0.00  0.00    -0.244 OA
ATOM     27  C   UNK A   2       3.597   2.195   0.671  0.00  0.00    +0.382 C 
ENDBRANCH  15  27
ENDBRANCH   1  15
TORSDOF 12
