REMARK  Name = 448407
REMARK  4 active torsions:
REMARK  status: ('A' for Active; 'I' for Inactive)
REMARK    1  A    between atoms: C_1  and  N_8
REMARK    2  A    between atoms: C_2  and  C_23
REMARK    3  A    between atoms: N_22  and  C_25
REMARK    4  A    between atoms: C_25  and  C_28
REMARK                            x       y       z     vdW  Elec       q    Type
REMARK                         _______ _______ _______ _____ _____    ______ ____
ROOT
ATOM      1  C   UNL     1      -1.638  -1.740  -0.091  0.00  0.00    +0.090 C 
ATOM      2  C   UNL     1       0.757  -2.013  -0.431  0.00  0.00    +0.055 C 
ATOM      3  C   UNL     1      -0.429  -1.320  -0.673  0.00  0.00    +0.023 C 
ATOM      4  C   UNL     1      -1.624  -2.873   0.741  0.00  0.00    +0.018 C 
ATOM      5  C   UNL     1       0.753  -3.135   0.397  0.00  0.00    +0.005 C 
ATOM      6  C   UNL     1      -0.438  -3.565   0.983  0.00  0.00    +0.002 C 
ENDROOT
BRANCH   1   8
ATOM      7  O   UNL     1      -3.629   3.019  -0.708  0.00  0.00    -0.207 OA
ATOM      8  N   UNL     1      -2.820  -1.049  -0.331  0.00  0.00    -0.137 N 
ATOM      9  N   UNL     1      -4.036  -1.400   0.165  0.00  0.00    -0.215 N 
ATOM     10  N   UNL     1      -2.748   0.319  -0.582  0.00  0.00    -0.143 NA
ATOM     11  N   UNL     1      -5.986   0.024   0.633  0.00  0.00    -0.309 NA
ATOM     12  N   UNL     1      -5.686   2.367   0.139  0.00  0.00    -0.251 NA
ATOM     13  N   UNL     1      -7.697   1.604   0.989  0.00  0.00    -0.283 N 
ATOM     14  C   UNL     1      -4.800  -0.283   0.257  0.00  0.00    +0.243 C 
ATOM     15  C   UNL     1      -3.911   0.779  -0.239  0.00  0.00    +0.241 C 
ATOM     16  C   UNL     1      -4.397   2.164  -0.292  0.00  0.00    +0.239 C 
ATOM     17  C   UNL     1      -6.411   1.353   0.568  0.00  0.00    +0.208 C 
ATOM     18  H   UNL     1      -4.315  -2.310   0.416  0.00  0.00    +0.175 HD
ATOM     19  H   UNL     1      -8.262   0.866   1.315  0.00  0.00    +0.156 HD
ATOM     20  H   UNL     1      -8.052   2.522   0.966  0.00  0.00    +0.156 HD
ENDBRANCH   1   8
BRANCH   2  23
ATOM     21  O   UNL     1       1.983  -0.918  -2.103  0.00  0.00    -0.270 OA
ATOM     22  N   UNL     1       3.186  -1.873  -0.365  0.00  0.00    -0.297 N 
ATOM     23  C   UNL     1       1.999  -1.564  -1.040  0.00  0.00    +0.246 C 
ATOM     24  H   UNL     1       3.125  -2.388   0.471  0.00  0.00    +0.150 HD
BRANCH  22  25
ATOM     25  C   UNL     1       4.495  -1.477  -0.831  0.00  0.00    +0.117 C 
BRANCH  25  28
ATOM     26 CL   UNL     1       4.578   3.695  -1.364  0.00  0.00    -0.082 Cl
ATOM     27 CL   UNL     1       6.825   1.284   2.909  0.00  0.00    -0.082 Cl
ATOM     28  C   UNL     1       4.903  -0.137  -0.289  0.00  0.00    -0.001 C 
ATOM     29  C   UNL     1       5.592  -0.063   0.916  0.00  0.00    +0.009 C 
ATOM     30  C   UNL     1       4.587   1.016  -0.998  0.00  0.00    +0.009 C 
ATOM     31  C   UNL     1       4.965   2.261  -0.495  0.00  0.00    +0.058 C 
ATOM     32  C   UNL     1       5.971   1.181   1.419  0.00  0.00    +0.058 C 
ATOM     33  C   UNL     1       5.657   2.344   0.714  0.00  0.00    +0.023 C 
ENDBRANCH  25  28
ENDBRANCH  22  25
ENDBRANCH   2  23
TORSDOF 4
