REMARK  Name = 6419721
REMARK  4 active torsions:
REMARK  status: ('A' for Active; 'I' for Inactive)
REMARK    1  A    between atoms: CA_1  and  N_2
REMARK    2  A    between atoms: CA_1  and  C_8
REMARK    3  A    between atoms: CA_1  and  CB_9
REMARK    4  A    between atoms: CB_9  and  SG_10
REMARK                            x       y       z     vdW  Elec       q    Type
REMARK                         _______ _______ _______ _____ _____    ______ ____
ROOT
ATOM      1  CA  CYS A   1       0.098  -0.571  -0.582  0.00  0.00    +0.051 C 
ENDROOT
BRANCH   1   2
ATOM      2  N   CYS A   1       0.268  -1.860   0.162  0.00  0.00    +0.389 N 
ATOM      3  H1  CYS A   1       1.040  -2.388  -0.244  0.00  0.00    -0.088 HD
ATOM      4  H2  CYS A   1      -0.591  -2.407   0.094  0.00  0.00    -0.088 HD
ATOM      5  H3  CYS A   1       0.469  -1.663   1.143  0.00  0.00    -0.088 HD
ENDBRANCH   1   2
BRANCH   1   8
ATOM      6  O   CYS A   1      -0.922   1.549  -0.284  0.00  0.00    -0.248 OA
ATOM      7  OXT CYS A   1      -1.962  -0.291   0.574  0.00  0.00    -0.248 OA
ATOM      8  C   CYS A   1      -1.046   0.313  -0.052  0.00  0.00    +0.346 C 
ENDBRANCH   1   8
BRANCH   1   9
ATOM      9  CB  CYS A   1       1.468   0.104  -0.700  0.00  0.00    +0.043 C 
BRANCH   9  10
ATOM     10  SG  CYS A   1       2.097   0.756   0.882  0.00  0.00    -0.170 S 
ATOM     11  HG  CYS A   1       3.311   1.335   0.683  0.00  0.00    +0.102 HD
ENDBRANCH   9  10
ENDBRANCH   1   9
TORSDOF 4
