REMARK  Name = 5289321
REMARK  4 active torsions:
REMARK  status: ('A' for Active; 'I' for Inactive)
REMARK    1  A    between atoms: C_4  and  O_34
REMARK    2  A    between atoms: C_7  and  S_23
REMARK    3  A    between atoms: S_23  and  N_26
REMARK    4  A    between atoms: C_27  and  O_32
REMARK                            x       y       z     vdW  Elec       q    Type
REMARK                         _______ _______ _______ _____ _____    ______ ____
ROOT
ATOM      1  O   UNL     1       2.820   3.254  -1.603  0.00  0.00    -0.270 OA
ATOM      2  N   UNL     1       3.696   0.665  -0.700  0.00  0.00    -0.314 N 
ATOM      3  N   UNL     1       0.564   3.624  -1.009  0.00  0.00    -0.280 N 
ATOM      4  C   UNL     1       2.140  -0.699   0.467  0.00  0.00    +0.139 C 
ATOM      5  C   UNL     1       2.392   0.648  -0.246  0.00  0.00    +0.058 C 
ATOM      6  C   UNL     1       1.483   1.621  -0.390  0.00  0.00    +0.067 C 
ATOM      7  C   UNL     1      -2.014   1.115   1.034  0.00  0.00    +0.122 C 
ATOM      8  C   UNL     1       3.491  -1.376   0.326  0.00  0.00    +0.020 C 
ATOM      9  C   UNL     1       0.098   1.646   0.069  0.00  0.00    +0.020 C 
ATOM     10  C   UNL     1       4.356  -0.513  -0.373  0.00  0.00    +0.047 C 
ATOM     11  C   UNL     1      -0.693   0.746   0.757  0.00  0.00    +0.021 C 
ATOM     12  C   UNL     1      -0.413   2.884  -0.333  0.00  0.00    +0.051 C 
ATOM     13  C   UNL     1       1.731  -0.538   1.929  0.00  0.00    +0.040 C 
ATOM     14  C   UNL     1       1.769   2.918  -1.090  0.00  0.00    +0.251 C 
ATOM     15  C   UNL     1      -2.519   2.364   0.625  0.00  0.00    +0.021 C 
ATOM     16  C   UNL     1      -1.713   3.268  -0.070  0.00  0.00    +0.016 C 
ATOM     17  C   UNL     1       3.916  -2.620   0.759  0.00  0.00    -0.000 C 
ATOM     18  C   UNL     1       5.659  -0.876  -0.649  0.00  0.00    +0.014 C 
ATOM     19  C   UNL     1       5.233  -2.993   0.484  0.00  0.00    -0.000 C 
ATOM     20  C   UNL     1       6.096  -2.130  -0.213  0.00  0.00    +0.001 C 
ATOM     21  H   UNL     1       4.105   1.414  -1.192  0.00  0.00    +0.152 HD
ATOM     22  H   UNL     1       0.421   4.524  -1.380  0.00  0.00    +0.155 HD
ENDROOT
BRANCH   7  23
ATOM     23  S   UNL     1      -3.053   0.009   1.901  0.00  0.00    +0.063 S 
ATOM     24  O   UNL     1      -2.216  -0.884   2.688  0.00  0.00    -0.153 OA
ATOM     25  O   UNL     1      -4.103   0.779   2.553  0.00  0.00    -0.153 OA
BRANCH  23  26
ATOM     26  N   UNL     1      -3.742  -0.874   0.604  0.00  0.00    -0.155 NA
ATOM     27  C   UNL     1      -4.471  -2.022  -1.963  0.00  0.00    +0.113 C 
ATOM     28  C   UNL     1      -2.824  -1.844  -0.064  0.00  0.00    +0.098 C 
ATOM     29  C   UNL     1      -4.516  -0.061  -0.381  0.00  0.00    +0.098 C 
ATOM     30  C   UNL     1      -3.632  -2.791  -0.943  0.00  0.00    +0.048 C 
ATOM     31  C   UNL     1      -5.346  -0.985  -1.264  0.00  0.00    +0.048 C 
BRANCH  27  32
ATOM     32  O   UNL     1      -5.308  -2.924  -2.676  0.00  0.00    -0.384 OA
ATOM     33  H   UNL     1      -4.761  -3.587  -3.124  0.00  0.00    +0.210 HD
ENDBRANCH  27  32
ENDBRANCH  23  26
ENDBRANCH   7  23
BRANCH   4  34
ATOM     34  O   UNL     1       1.119  -1.411  -0.228  0.00  0.00    -0.377 OA
ATOM     35  H   UNL     1       1.374  -1.516  -1.158  0.00  0.00    +0.211 HD
ENDBRANCH   4  34
TORSDOF 4
