REMARK  Name = 11979
REMARK  0 active torsions:
REMARK  status: ('A' for Active; 'I' for Inactive)
REMARK                            x       y       z     vdW  Elec       q    Type
REMARK                         _______ _______ _______ _____ _____    ______ ____
ROOT
ATOM      1  N   UNL     1       1.681   1.322   0.000  0.00  0.00    -0.315 N 
ATOM      2  N   UNL     1       2.163  -0.848   0.000  0.00  0.00    -0.315 N 
ATOM      3  C   UNL     1       0.471   0.678   0.000  0.00  0.00    +0.059 C 
ATOM      4  C   UNL     1       0.798  -0.675   0.000  0.00  0.00    +0.059 C 
ATOM      5  C   UNL     1      -1.857   0.185   0.000  0.00  0.00    -0.021 C 
ATOM      6  C   UNL     1      -0.843   1.149   0.000  0.00  0.00    +0.011 C 
ATOM      7  C   UNL     1      -0.233  -1.629   0.000  0.00  0.00    +0.015 C 
ATOM      8  C   UNL     1      -1.559  -1.179   0.000  0.00  0.00    -0.003 C 
ATOM      9  C   UNL     1      -3.283   0.627   0.001  0.00  0.00    +0.031 C 
ATOM     10  C   UNL     1       2.661   0.369   0.000  0.00  0.00    +0.182 C 
ATOM     11  H   UNL     1       1.820   2.297   0.000  0.00  0.00    +0.148 HD
ATOM     12  H   UNL     1       2.660  -1.698   0.000  0.00  0.00    +0.148 HD
ENDROOT
TORSDOF 0
