REMARK  Name = 9584748
REMARK  7 active torsions:
REMARK  status: ('A' for Active; 'I' for Inactive)
REMARK    1  A    between atoms: N_1  and  C_7
REMARK    2  A    between atoms: N_1  and  O_18
REMARK    3  A    between atoms: C_2  and  O_8
REMARK    4  A    between atoms: C_2  and  C_15
REMARK    5  A    between atoms: C_4  and  O_10
REMARK    6  A    between atoms: C_6  and  O_12
REMARK    7  A    between atoms: C_15  and  O_16
REMARK                            x       y       z     vdW  Elec       q    Type
REMARK                         _______ _______ _______ _____ _____    ______ ____
ROOT
ATOM      1  C   UNL     1      -1.011  -0.494   0.410  0.00  0.00    +0.181 C 
ATOM      2  C   UNL     1      -0.201  -1.411  -0.514  0.00  0.00    +0.070 C 
ATOM      3  C   UNL     1       1.265  -1.481  -0.082  0.00  0.00    +0.142 C 
ATOM      4  C   UNL     1      -0.237   0.726   0.929  0.00  0.00    +0.060 C 
ATOM      5  C   UNL     1       1.943  -0.117  -0.205  0.00  0.00    +0.156 C 
ATOM      6  C   UNL     1       0.975   1.011   0.075  0.00  0.00    +0.135 C 
ENDROOT
BRANCH   1   7
ATOM      7  O   UNL     1      -1.447  -1.269   1.526  0.00  0.00    -0.376 OA
ATOM      8  H   UNL     1      -0.675  -1.572   2.030  0.00  0.00    +0.211 HD
ENDBRANCH   1   7
BRANCH   3   9
ATOM      9  O   UNL     1       1.957  -2.396  -0.930  0.00  0.00    -0.382 OA
ATOM     10  H   UNL     1       1.543  -3.271  -0.868  0.00  0.00    +0.210 HD
ENDBRANCH   3   9
BRANCH   5  11
ATOM     11  O   UNL     1       2.994  -0.035   0.744  0.00  0.00    -0.380 OA
ATOM     12  H   UNL     1       3.630  -0.749   0.584  0.00  0.00    +0.211 HD
ENDBRANCH   5  11
BRANCH   1  14
ATOM     13  O   UNL     1      -3.401  -0.412   0.039  0.00  0.00    -0.248 OA
ATOM     14  C   UNL     1      -2.272  -0.080  -0.292  0.00  0.00    +0.338 C 
BRANCH  14  15
ATOM     15  O   UNL     1      -1.991   0.715  -1.353  0.00  0.00    -0.479 OA
ATOM     16  H   UNL     1      -1.101   0.932  -1.553  0.00  0.00    +0.295 HD
ENDBRANCH  14  15
ENDBRANCH   1  14
BRANCH   6  17
ATOM     17  N   UNL     1       1.220   2.193  -0.388  0.00  0.00    -0.086 NA
BRANCH  17  18
ATOM     18  O   UNL     1       0.206   3.050   0.042  0.00  0.00    -0.295 OA
ATOM     19  H   UNL     1       0.221   3.954  -0.202  0.00  0.00    +0.238 HD
ENDBRANCH  17  18
ENDBRANCH   6  17
TORSDOF 7
