REMARK  Name = 65063
REMARK  7 active torsions:
REMARK  status: ('A' for Active; 'I' for Inactive)
REMARK    1  A    between atoms: C_2  and  O_15
REMARK    2  A    between atoms: C_3  and  C_17
REMARK    3  A    between atoms: C_5  and  N_8
REMARK    4  A    between atoms: C_17  and  O_18
REMARK    5  A    between atoms: O_18  and  P_19
REMARK    6  A    between atoms: P_19  and  O_21
REMARK    7  A    between atoms: P_19  and  O_23
REMARK                            x       y       z     vdW  Elec       q    Type
REMARK                         _______ _______ _______ _____ _____    ______ ____
ROOT
ATOM      1  O   UNL     1      -0.338   1.173   1.023  0.00  0.00    -0.335 OA
ATOM      2  C   UNL     1      -0.837   2.763  -0.663  0.00  0.00    +0.144 C 
ATOM      3  C   UNL     1      -1.443   1.767   0.316  0.00  0.00    +0.174 C 
ATOM      4  C   UNL     1       0.517   2.164  -0.965  0.00  0.00    +0.083 C 
ATOM      5  C   UNL     1       0.887   1.504   0.353  0.00  0.00    +0.202 C 
ENDROOT
BRANCH   5   8
ATOM      6  O   UNL     1       3.707   1.438   0.396  0.00  0.00    -0.252 OA
ATOM      7  O   UNL     1       3.787  -3.114  -0.324  0.00  0.00    -0.270 OA
ATOM      8  N   UNL     1       1.670   0.316   0.181  0.00  0.00    -0.219 N 
ATOM      9  N   UNL     1       3.745  -0.829   0.037  0.00  0.00    -0.236 N 
ATOM     10  C   UNL     1       3.080   0.391   0.218  0.00  0.00    +0.315 C 
ATOM     11  C   UNL     1       1.038  -0.904  -0.023  0.00  0.00    +0.076 C 
ATOM     12  C   UNL     1       1.685  -2.059  -0.194  0.00  0.00    +0.074 C 
ATOM     13  C   UNL     1       3.162  -2.069  -0.170  0.00  0.00    +0.254 C 
ATOM     14  H   UNL     1       4.729  -0.803   0.059  0.00  0.00    +0.159 HD
ENDBRANCH   5   8
BRANCH   2  15
ATOM     15  O   UNL     1      -0.672   4.029  -0.028  0.00  0.00    -0.382 OA
ATOM     16  H   UNL     1      -1.543   4.410   0.164  0.00  0.00    +0.210 HD
ENDBRANCH   2  15
BRANCH   3  17
ATOM     17  C   UNL     1      -2.212   0.648  -0.376  0.00  0.00    +0.186 C 
BRANCH  17  18
ATOM     18  O   UNL     1      -2.728  -0.231   0.610  0.00  0.00    -0.271 OA
BRANCH  18  19
ATOM     19  P   UNL     1      -3.590  -1.512   0.125  0.00  0.00    +0.473 P 
ATOM     20  O   UNL     1      -4.098  -2.389   1.231  0.00  0.00    -0.227 OA
BRANCH  19  21
ATOM     21  O   UNL     1      -2.624  -2.241  -0.948  0.00  0.00    -0.303 OA
ATOM     22  H   UNL     1      -2.347  -1.600  -1.621  0.00  0.00    +0.222 HD
ENDBRANCH  19  21
BRANCH  19  23
ATOM     23  O   UNL     1      -4.737  -0.845  -0.799  0.00  0.00    -0.303 OA
ATOM     24  H   UNL     1      -4.322  -0.297  -1.484  0.00  0.00    +0.222 HD
ENDBRANCH  19  23
ENDBRANCH  18  19
ENDBRANCH  17  18
ENDBRANCH   3  17
TORSDOF 7
