REMARK  Name = 446727
REMARK  5 active torsions:
REMARK  status: ('A' for Active; 'I' for Inactive)
REMARK    1  A    between atoms: N_3  and  C1*_12
REMARK    2  A    between atoms: C_7  and  C_21
REMARK    3  A    between atoms: C3*_11  and  O3*_15
REMARK    4  A    between atoms: C4*_14  and  C5*_17
REMARK    5  A    between atoms: C5*_17  and  O5*_18
REMARK                            x       y       z     vdW  Elec       q    Type
REMARK                         _______ _______ _______ _____ _____    ______ ____
ROOT
ATOM      1  O   UNL     1       0.263  -3.410   0.126  0.00  0.00    -0.252 OA
ATOM      2  O   UNL     1      -3.908  -1.491  -0.048  0.00  0.00    -0.270 OA
ATOM      3  N   UNL     1       0.130  -1.080   0.175  0.00  0.00    -0.219 N 
ATOM      4  N   UNL     1      -1.810  -2.434   0.040  0.00  0.00    -0.236 N 
ATOM      5  C   UNL     1      -0.703   0.032   0.159  0.00  0.00    +0.076 C 
ATOM      6  C   UNL     1      -0.415  -2.380   0.115  0.00  0.00    +0.315 C 
ATOM      7  C   UNL     1      -2.040  -0.019   0.088  0.00  0.00    +0.069 C 
ATOM      8  C   UNL     1      -2.688  -1.360   0.021  0.00  0.00    +0.254 C 
ATOM      9  H   UNL     1      -2.213  -3.331  -0.003  0.00  0.00    +0.159 HD
ENDROOT
BRANCH   3  12
ATOM     10  O4* UNL     1       1.844   0.262   1.033  0.00  0.00    -0.335 OA
ATOM     11  C3* UNL     1       3.350   0.212  -0.797  0.00  0.00    +0.144 C 
ATOM     12  C1* UNL     1       1.551  -0.906   0.253  0.00  0.00    +0.202 C 
ATOM     13  C2* UNL     1       2.197  -0.714  -1.109  0.00  0.00    +0.083 C 
ATOM     14  C4* UNL     1       2.802   1.076   0.330  0.00  0.00    +0.173 C 
BRANCH  11  15
ATOM     15  O3* UNL     1       4.463  -0.547  -0.330  0.00  0.00    -0.382 OA
ATOM     16  H3* UNL     1       4.807  -1.095  -1.053  0.00  0.00    +0.210 HD
ENDBRANCH  11  15
BRANCH  14  17
ATOM     17  C5* UNL     1       2.080   2.320  -0.173  0.00  0.00    +0.169 C 
BRANCH  17  18
ATOM     18  O5* UNL     1       1.598   3.052   0.942  0.00  0.00    -0.379 OA
ATOM     19  H5* UNL     1       1.136   3.847   0.631  0.00  0.00    +0.211 HD
ENDBRANCH  17  18
ENDBRANCH  14  17
ENDBRANCH   3  12
BRANCH   7  21
ATOM     20 BR   UNL     1      -3.442   3.882  -0.465  0.00  0.00    -0.048 Br
ATOM     21  C   UNL     1      -2.847   1.173   0.075  0.00  0.00    +0.013 C 
ATOM     22  C   UNL     1      -2.425   2.331  -0.434  0.00  0.00    +0.041 C 
ENDBRANCH   7  21
TORSDOF 5
