REMARK  Name = 446140
REMARK  4 active torsions:
REMARK  status: ('A' for Active; 'I' for Inactive)
REMARK    1  A    between atoms: C_1  and  O_7
REMARK    2  A    between atoms: C_2  and  O_9
REMARK    3  A    between atoms: C_4  and  O_11
REMARK    4  A    between atoms: O_11  and  O_12
REMARK                            x       y       z     vdW  Elec       q    Type
REMARK                         _______ _______ _______ _____ _____    ______ ____
ROOT
ATOM      1  C   UNL     1       1.065  -0.267   0.004  0.00  0.00    +0.175 C 
ATOM      2  C   UNL     1       1.121   1.125  -0.042  0.00  0.00    +0.168 C 
ATOM      3  C   UNL     1      -0.164  -0.911   0.154  0.00  0.00    +0.081 C 
ATOM      4  C   UNL     1      -1.336  -0.161   0.257  0.00  0.00    +0.186 C 
ATOM      5  C   UNL     1      -0.050   1.875   0.061  0.00  0.00    +0.043 C 
ATOM      6  C   UNL     1      -1.279   1.232   0.211  0.00  0.00    +0.044 C 
ENDROOT
BRANCH   1   7
ATOM      7  O   UNL     1       2.201  -1.011  -0.098  0.00  0.00    -0.468 OA
ATOM      8  C   UNL     1       2.055  -2.429  -0.041  0.00  0.00    +0.253 C 
ENDBRANCH   1   7
BRANCH   2   9
ATOM      9  O   UNL     1       2.315   1.766  -0.190  0.00  0.00    -0.503 OA
ATOM     10  H   UNL     1       3.107   1.270  -0.260  0.00  0.00    +0.292 HD
ENDBRANCH   2   9
BRANCH   4  11
ATOM     11  O   UNL     1      -2.535  -0.789   0.402  0.00  0.00    -0.337 OA
BRANCH  11  12
ATOM     12  O   UNL     1      -3.395  -0.430  -0.719  0.00  0.00    -0.201 OA
ATOM     13  H   UNL     1      -4.253  -0.874  -0.623  0.00  0.00    +0.267 HD
ENDBRANCH  11  12
ENDBRANCH   4  11
TORSDOF 4
