REMARK  Name = 6604901
REMARK  5 active torsions:
REMARK  status: ('A' for Active; 'I' for Inactive)
REMARK    1  A    between atoms: C_2  and  O_24
REMARK    2  A    between atoms: C_3  and  N_6
REMARK    3  A    between atoms: C_4  and  O_26
REMARK    4  A    between atoms: C_5  and  C_20
REMARK    5  A    between atoms: N_19  and  C_22
REMARK                            x       y       z     vdW  Elec       q    Type
REMARK                         _______ _______ _______ _____ _____    ______ ____
ROOT
ATOM      1  O   UNL     1      -1.179  -0.686  -0.051  0.00  0.00    -0.326 OA
ATOM      2  C   UNL     1      -0.587   1.562  -0.545  0.00  0.00    +0.187 C 
ATOM      3  C   UNL     1      -0.165   0.304   0.198  0.00  0.00    +0.225 C 
ATOM      4  C   UNL     1      -2.095   1.462  -0.490  0.00  0.00    +0.178 C 
ATOM      5  C   UNL     1      -2.325  -0.034  -0.608  0.00  0.00    +0.222 C 
ENDROOT
BRANCH   3   6
ATOM      6  N   UNL     1       1.131  -0.222  -0.226  0.00  0.00    -0.247 N 
ATOM      7  N   UNL     1       2.628  -1.372  -1.414  0.00  0.00    -0.242 NA
ATOM      8  N   UNL     1       2.605   0.819   1.401  0.00  0.00    -0.228 NA
ATOM      9  N   UNL     1       4.931   0.178   1.030  0.00  0.00    -0.229 NA
ATOM     10  C   UNL     1       2.347   0.036   0.343  0.00  0.00    +0.152 C 
ATOM     11  C   UNL     1       1.353  -1.073  -1.277  0.00  0.00    +0.223 C 
ATOM     12  C   UNL     1       3.261  -0.686  -0.408  0.00  0.00    +0.140 C 
ATOM     13  C   UNL     1       4.597  -0.595  -0.031  0.00  0.00    +0.143 C 
ATOM     14  C   UNL     1       3.929   0.828   1.671  0.00  0.00    +0.253 C 
ATOM     15  N   UNL     1       5.591  -1.292  -0.739  0.00  0.00    -0.342 N 
ATOM     16  H   UNL     1       6.534  -1.221  -0.463  0.00  0.00    +0.144 HD
ATOM     17  H   UNL     1       5.346  -1.853  -1.510  0.00  0.00    +0.144 HD
ENDBRANCH   3   6
BRANCH   5  20
ATOM     18  O   UNL     1      -3.383  -0.728   1.410  0.00  0.00    -0.272 OA
ATOM     19  N   UNL     1      -4.650  -0.578  -0.537  0.00  0.00    -0.302 N 
ATOM     20  C   UNL     1      -3.491  -0.475   0.213  0.00  0.00    +0.252 C 
ATOM     21  H   UNL     1      -4.612  -0.347  -1.493  0.00  0.00    +0.150 HD
BRANCH  19  22
ATOM     22  C   UNL     1      -5.914  -1.009   0.017  0.00  0.00    +0.090 C 
ATOM     23  C   UNL     1      -5.786  -1.322   1.498  0.00  0.00    +0.023 C 
ENDBRANCH  19  22
ENDBRANCH   5  20
BRANCH   2  24
ATOM     24  O   UNL     1      -0.117   2.721   0.119  0.00  0.00    -0.378 OA
ATOM     25  H   UNL     1       0.851   2.755   0.065  0.00  0.00    +0.211 HD
ENDBRANCH   2  24
BRANCH   4  26
ATOM     26  O   UNL     1      -2.683   2.164  -1.571  0.00  0.00    -0.379 OA
ATOM     27  H   UNL     1      -2.518   3.114  -1.467  0.00  0.00    +0.211 HD
ENDBRANCH   4  26
TORSDOF 5
