REMARK  Name = 11401421
REMARK  5 active torsions:
REMARK  status: ('A' for Active; 'I' for Inactive)
REMARK    1  A    between atoms: CA_1  and  C_3
REMARK    2  A    between atoms: CA_1  and  N_11
REMARK    3  A    between atoms: CA_1  and  C_16
REMARK    4  A    between atoms: C_8  and  O_9
REMARK    5  A    between atoms: C_16  and  O_17
REMARK                            x       y       z     vdW  Elec       q    Type
REMARK                         _______ _______ _______ _____ _____    ______ ____
ROOT
ATOM      1  CA  UNL     1       1.812  -0.540   0.571  0.00  0.00    +0.059 C 
ENDROOT
BRANCH   1   3
ATOM      2 CL   UNL     1      -2.435   2.380  -0.028  0.00  0.00    -0.079 Cl
ATOM      3  C   UNL     1       0.342  -0.469   0.329  0.00  0.00    -0.031 C 
ATOM      4  C   UNL     1      -0.296   0.769   0.268  0.00  0.00    +0.009 C 
ATOM      5  C   UNL     1      -0.395  -1.642   0.162  0.00  0.00    -0.003 C 
ATOM      6  C   UNL     1      -1.671   0.835   0.041  0.00  0.00    +0.091 C 
ATOM      7  C   UNL     1      -1.769  -1.577  -0.065  0.00  0.00    +0.037 C 
ATOM      8  C   UNL     1      -2.407  -0.338  -0.126  0.00  0.00    +0.144 C 
BRANCH   8   9
ATOM      9  O   UNL     1      -3.752  -0.303  -0.348  0.00  0.00    -0.505 OA
ATOM     10  H   UNL     1      -4.199   0.519  -0.392  0.00  0.00    +0.292 HD
ENDBRANCH   8   9
ENDBRANCH   1   3
BRANCH   1  11
ATOM     11  N   UNL     1       2.210   0.042   1.865  0.00  0.00    +0.391 N 
ATOM     12  H1  UNL     1       1.679  -0.401   2.615  0.00  0.00    -0.088 HD
ATOM     13  H2  UNL     1       2.019   1.044   1.860  0.00  0.00    -0.088 HD
ATOM     14  H3  UNL     1       3.207  -0.113   2.015  0.00  0.00    -0.088 HD
ENDBRANCH   1  11
BRANCH   1  16
ATOM     15  OXT UNL     1       3.348   1.088  -0.340  0.00  0.00    -0.252 OA
ATOM     16  C   UNL     1       2.610   0.129  -0.543  0.00  0.00    +0.297 C 
BRANCH  16  17
ATOM     17  O   UNL     1       2.405  -0.374  -1.785  0.00  0.00    -0.481 OA
ATOM     18  H   UNL     1       1.835  -1.109  -1.904  0.00  0.00    +0.295 HD
ENDBRANCH  16  17
ENDBRANCH   1  16
TORSDOF 5
