REMARK  Name = 5287465
REMARK  6 active torsions:
REMARK  status: ('A' for Active; 'I' for Inactive)
REMARK    1  A    between atoms: C_1  and  O_12
REMARK    2  A    between atoms: C_3  and  C_9
REMARK    3  A    between atoms: C_4  and  C_11
REMARK    4  A    between atoms: O_12  and  P_13
REMARK    5  A    between atoms: P_13  and  O_15
REMARK    6  A    between atoms: P_13  and  O_17
REMARK                            x       y       z     vdW  Elec       q    Type
REMARK                         _______ _______ _______ _____ _____    ______ ____
ROOT
ATOM      1  C   UNL     1       0.036  -0.027   0.412  0.00  0.00    +0.155 C 
ATOM      2  C   UNL     1      -2.667   0.100  -0.267  0.00  0.00    -0.021 C 
ATOM      3  C   UNL     1      -0.583   1.211   0.240  0.00  0.00    +0.076 C 
ATOM      4  C   UNL     1      -0.697  -1.202   0.244  0.00  0.00    +0.076 C 
ATOM      5  C   UNL     1      -1.934   1.275  -0.099  0.00  0.00    +0.002 C 
ATOM      6  C   UNL     1      -2.049  -1.139  -0.095  0.00  0.00    +0.002 C 
ATOM      7  C   UNL     1      -4.113   0.167  -0.626  0.00  0.00    +0.031 C 
ENDROOT
BRANCH   3   9
ATOM      8  O   UNL     1      -0.346   3.565   0.271  0.00  0.00    -0.283 OA
ATOM      9  C   UNL     1       0.162   2.451   0.412  0.00  0.00    +0.237 C 
ENDBRANCH   3   9
BRANCH   4  11
ATOM     10  O   UNL     1      -0.684  -3.568   0.284  0.00  0.00    -0.283 OA
ATOM     11  C   UNL     1      -0.073  -2.506   0.420  0.00  0.00    +0.237 C 
ENDBRANCH   4  11
BRANCH   1  12
ATOM     12  O   UNL     1       1.358  -0.089   0.743  0.00  0.00    -0.403 OA
BRANCH  12  13
ATOM     13  P   UNL     1       2.580  -0.149  -0.315  0.00  0.00    +0.528 P 
ATOM     14  O   UNL     1       2.566  -1.327  -1.245  0.00  0.00    -0.216 OA
BRANCH  13  15
ATOM     15  O   UNL     1       2.562   1.305  -1.023  0.00  0.00    -0.293 OA
ATOM     16  H   UNL     1       2.573   1.996  -0.343  0.00  0.00    +0.223 HD
ENDBRANCH  13  15
BRANCH  13  17
ATOM     17  O   UNL     1       3.882  -0.069   0.643  0.00  0.00    -0.293 OA
ATOM     18  H   UNL     1       3.818   0.715   1.211  0.00  0.00    +0.223 HD
ENDBRANCH  13  17
ENDBRANCH  12  13
ENDBRANCH   1  12
TORSDOF 6
