REMARK  Name = 446382
REMARK  7 active torsions:
REMARK  status: ('A' for Active; 'I' for Inactive)
REMARK    1  A    between atoms: C_1  and  C_3
REMARK    2  A    between atoms: C_1  and  N_6
REMARK    3  A    between atoms: C_1  and  C_14
REMARK    4  A    between atoms: C_3  and  O_4
REMARK    5  A    between atoms: N_6  and  S_8
REMARK    6  A    between atoms: S_8  and  N_11
REMARK    7  A    between atoms: C_14  and  C_15
REMARK                            x       y       z     vdW  Elec       q    Type
REMARK                         _______ _______ _______ _____ _____    ______ ____
ROOT
ATOM      1  C   UNL     1       0.797  -0.714  -0.087  0.00  0.00    +0.179 C 
ENDROOT
BRANCH   1   3
ATOM      2  O   UNL     1       2.730  -1.847  -1.000  0.00  0.00    -0.249 OA
ATOM      3  C   UNL     1       1.918  -1.743  -0.086  0.00  0.00    +0.330 C 
BRANCH   3   4
ATOM      4  O   UNL     1       1.959  -2.538   1.010  0.00  0.00    -0.479 OA
ATOM      5  H   UNL     1       1.323  -2.431   1.690  0.00  0.00    +0.295 HD
ENDBRANCH   3   4
ENDBRANCH   1   3
BRANCH   1   6
ATOM      6  N   UNL     1       1.217   0.511  -0.722  0.00  0.00    -0.160 NA
ATOM      7  H   UNL     1       1.840   0.252  -1.486  0.00  0.00    +0.150 HD
BRANCH   6   8
ATOM      8  S   UNL     1       2.041   1.711   0.217  0.00  0.00    +0.093 S 
ATOM      9  O   UNL     1       2.671   2.662  -0.678  0.00  0.00    -0.142 OA
ATOM     10  O   UNL     1       1.152   2.167   1.269  0.00  0.00    -0.142 OA
BRANCH   8  11
ATOM     11  N   UNL     1       3.272   0.746   0.923  0.00  0.00    -0.193 NA
ATOM     12  H   UNL     1       3.858   1.327   1.523  0.00  0.00    +0.145 HD
ATOM     13  H   UNL     1       3.844   0.332   0.187  0.00  0.00    +0.145 HD
ENDBRANCH   8  11
ENDBRANCH   6   8
ENDBRANCH   1   6
BRANCH   1  14
ATOM     14  C   UNL     1      -0.446  -1.294  -0.773  0.00  0.00    +0.055 C 
BRANCH  14  15
ATOM     15  C   UNL     1      -1.721  -0.588  -0.376  0.00  0.00    -0.020 C 
ATOM     16  C   UNL     1      -2.437  -1.046   0.719  0.00  0.00    -0.004 C 
ATOM     17  C   UNL     1      -2.151   0.504  -1.113  0.00  0.00    -0.004 C 
ATOM     18  C   UNL     1      -3.615  -0.394   1.086  0.00  0.00    -0.000 C 
ATOM     19  C   UNL     1      -3.328   1.155  -0.745  0.00  0.00    -0.000 C 
ATOM     20  C   UNL     1      -4.060   0.707   0.354  0.00  0.00    -0.000 C 
ENDBRANCH  14  15
ENDBRANCH   1  14
TORSDOF 7
