REMARK  Name = 447989
REMARK  5 active torsions:
REMARK  status: ('A' for Active; 'I' for Inactive)
REMARK    1  A    between atoms: C_2  and  C_12
REMARK    2  A    between atoms: CA_5  and  C_9
REMARK    3  A    between atoms: C_9  and  O_10
REMARK    4  A    between atoms: C_12  and  C_14
REMARK    5  A    between atoms: C_14  and  O_15
REMARK                            x       y       z     vdW  Elec       q    Type
REMARK                         _______ _______ _______ _____ _____    ______ ____
ROOT
ATOM      1  N   UNL     1       0.638   0.366   1.132  0.00  0.00    +0.394 N 
ATOM      2  C   UNL     1      -0.449   0.138   0.166  0.00  0.00    -0.050 C 
ATOM      3  C   UNL     1      -0.322  -1.341  -0.157  0.00  0.00    -0.022 C 
ATOM      4  C   UNL     1       1.180  -1.577  -0.178  0.00  0.00    -0.013 C 
ATOM      5  CA  UNL     1       1.766  -0.450   0.665  0.00  0.00    +0.040 C 
ATOM      6  H1  UNL     1       0.350   0.074   2.066  0.00  0.00    -0.084 HD
ATOM      7  H2  UNL     1       0.887   1.354   1.191  0.00  0.00    -0.084 HD
ENDROOT
BRANCH   5   9
ATOM      8  OXT UNL     1       2.439   1.636  -0.350  0.00  0.00    -0.253 OA
ATOM      9  C   UNL     1       2.652   0.451  -0.136  0.00  0.00    +0.293 C 
BRANCH   9  10
ATOM     10  O   UNL     1       3.730  -0.226  -0.600  0.00  0.00    -0.482 OA
ATOM     11  H   UNL     1       3.834  -1.135  -0.400  0.00  0.00    +0.295 HD
ENDBRANCH   9  10
ENDBRANCH   5   9
BRANCH   2  12
ATOM     12  C   UNL     1      -1.808   0.505   0.740  0.00  0.00    +0.088 C 
BRANCH  12  14
ATOM     13  O   UNL     1      -2.835   0.293  -1.460  0.00  0.00    -0.250 OA
ATOM     14  C   UNL     1      -2.922   0.249  -0.242  0.00  0.00    +0.312 C 
BRANCH  14  15
ATOM     15  O   UNL     1      -4.069  -0.044   0.422  0.00  0.00    -0.480 OA
ATOM     16  H   UNL     1      -4.075  -0.063   1.359  0.00  0.00    +0.295 HD
ENDBRANCH  14  15
ENDBRANCH  12  14
ENDBRANCH   2  12
TORSDOF 5
