REMARK  Name = 445210
REMARK  3 active torsions:
REMARK  status: ('A' for Active; 'I' for Inactive)
REMARK    1  A    between atoms: N_1  and  C_13
REMARK    2  A    between atoms: C_13  and  C_14
REMARK    3  A    between atoms: C_14  and  O_16
REMARK                            x       y       z     vdW  Elec       q    Type
REMARK                         _______ _______ _______ _____ _____    ______ ____
ROOT
ATOM      1  N   UNL     1      -0.793   0.381  -0.538  0.00  0.00    -0.269 N 
ATOM      2  N   UNL     1       0.822   1.878  -0.191  0.00  0.00    -0.242 NA
ATOM      3  N   UNL     1       0.470  -1.672  -0.237  0.00  0.00    -0.228 NA
ATOM      4  N   UNL     1       2.809  -1.205   0.282  0.00  0.00    -0.229 NA
ATOM      5  C   UNL     1       0.339  -0.337  -0.279  0.00  0.00    +0.151 C 
ATOM      6  C   UNL     1       1.329   0.609  -0.066  0.00  0.00    +0.140 C 
ATOM      7  C   UNL     1      -0.452   1.706  -0.475  0.00  0.00    +0.221 C 
ATOM      8  C   UNL     1       2.603   0.133   0.224  0.00  0.00    +0.143 C 
ATOM      9  C   UNL     1       1.745  -2.012   0.051  0.00  0.00    +0.253 C 
ATOM     10  N   UNL     1       3.667   1.022   0.456  0.00  0.00    -0.342 N 
ATOM     11  H   UNL     1       4.565   0.673   0.660  0.00  0.00    +0.144 HD
ATOM     12  H   UNL     1       3.514   1.994   0.414  0.00  0.00    +0.144 HD
ENDROOT
BRANCH   1  13
ATOM     13  C   UNL     1      -2.105  -0.145  -0.827  0.00  0.00    +0.123 C 
BRANCH  13  14
ATOM     14  C   UNL     1      -2.951  -0.347   0.434  0.00  0.00    +0.130 C 
ATOM     15  C   UNL     1      -4.319  -0.915   0.083  0.00  0.00    +0.034 C 
BRANCH  14  16
ATOM     16  O   UNL     1      -3.163   0.904   1.083  0.00  0.00    -0.383 OA
ATOM     17  H   UNL     1      -2.308   1.294   1.321  0.00  0.00    +0.210 HD
ENDBRANCH  14  16
ENDBRANCH  13  14
ENDBRANCH   1  13
TORSDOF 3
