REMARK  Name = 688357
REMARK  5 active torsions:
REMARK  status: ('A' for Active; 'I' for Inactive)
REMARK    1  A    between atoms: C_3  and  C_12
REMARK    2  A    between atoms: C_12  and  CA_13
REMARK    3  A    between atoms: CA_13  and  N_14
REMARK    4  A    between atoms: CA_13  and  C_19
REMARK    5  A    between atoms: C_19  and  O_20
REMARK                            x       y       z     vdW  Elec       q    Type
REMARK                         _______ _______ _______ _____ _____    ______ ____
ROOT
ATOM      1  F   UNL     1      -2.542   2.712   0.579  0.00  0.00    -0.204 F 
ATOM      2  N   UNL     1      -1.130  -2.472  -0.393  0.00  0.00    -0.312 N 
ATOM      3  C   UNL     1       0.476  -1.227   0.499  0.00  0.00    -0.008 C 
ATOM      4  C   UNL     1      -0.679  -0.412   0.336  0.00  0.00    +0.013 C 
ATOM      5  C   UNL     1      -1.672  -1.218  -0.226  0.00  0.00    +0.048 C 
ATOM      6  C   UNL     1       0.168  -2.487   0.042  0.00  0.00    +0.058 C 
ATOM      7  C   UNL     1      -0.976   0.937   0.613  0.00  0.00    +0.031 C 
ATOM      8  C   UNL     1      -2.952  -0.739  -0.526  0.00  0.00    +0.017 C 
ATOM      9  C   UNL     1      -2.252   1.429   0.318  0.00  0.00    +0.140 C 
ATOM     10  C   UNL     1      -3.224   0.603  -0.242  0.00  0.00    +0.031 C 
ATOM     11  H   UNL     1      -1.607  -3.246  -0.771  0.00  0.00    +0.152 HD
ENDROOT
BRANCH   3  12
ATOM     12  C   UNL     1       1.777  -0.806   1.058  0.00  0.00    +0.017 C 
BRANCH  12  13
ATOM     13  CA  UNL     1       2.776  -0.263   0.010  0.00  0.00    +0.040 C 
BRANCH  13  14
ATOM     14  N   UNL     1       4.036   0.116   0.654  0.00  0.00    +0.389 N 
ATOM     15  H1  UNL     1       4.438  -0.698   1.120  0.00  0.00    -0.088 HD
ATOM     16  H2  UNL     1       3.860   0.848   1.342  0.00  0.00    -0.088 HD
ATOM     17  H3  UNL     1       4.688   0.461  -0.050  0.00  0.00    -0.088 HD
ENDBRANCH  13  14
BRANCH  13  19
ATOM     18  OXT UNL     1       2.368   2.129  -0.236  0.00  0.00    -0.253 OA
ATOM     19  C   UNL     1       2.234   0.988  -0.660  0.00  0.00    +0.293 C 
BRANCH  19  20
ATOM     20  O   UNL     1       1.591   0.710  -1.825  0.00  0.00    -0.482 OA
ATOM     21  H   UNL     1       1.510  -0.177  -2.115  0.00  0.00    +0.295 HD
ENDBRANCH  19  20
ENDBRANCH  13  19
ENDBRANCH  12  13
ENDBRANCH   3  12
TORSDOF 5
