REMARK  Name = 6323491
REMARK  2 active torsions:
REMARK  status: ('A' for Active; 'I' for Inactive)
REMARK    1  A    between atoms: C_18  and  O_24
REMARK    2  A    between atoms: C_23  and  O_26
REMARK                            x       y       z     vdW  Elec       q    Type
REMARK                         _______ _______ _______ _____ _____    ______ ____
ROOT
ATOM      1 CL   UNL     1      -4.588   0.987   0.213  0.00  0.00    -0.079 Cl
ATOM      2  O   UNL     1       4.482  -0.040   1.951  0.00  0.00    -0.354 OA
ATOM      3  O   UNL     1       1.252  -1.315  -0.535  0.00  0.00    -0.449 OA
ATOM      4  O   UNL     1       0.352  -0.188  -2.330  0.00  0.00    -0.245 OA
ATOM      5  O   UNL     1      -2.117   3.214   0.192  0.00  0.00    -0.296 OA
ATOM      6  C   UNL     1       3.381  -0.500   1.177  0.00  0.00    +0.146 C 
ATOM      7  C   UNL     1       3.937   0.916   1.026  0.00  0.00    +0.142 C 
ATOM      8  C   UNL     1       3.601  -1.496   0.090  0.00  0.00    +0.076 C 
ATOM      9  C   UNL     1       2.602  -1.267  -1.067  0.00  0.00    +0.172 C 
ATOM     10  C   UNL     1       2.854   1.888   1.242  0.00  0.00    +0.032 C 
ATOM     11  C   UNL     1       2.763  -2.352  -2.127  0.00  0.00    +0.047 C 
ATOM     12  C   UNL     1       2.143   2.363   0.206  0.00  0.00    +0.003 C 
ATOM     13  C   UNL     1       0.243  -0.732  -1.245  0.00  0.00    +0.344 C 
ATOM     14  C   UNL     1      -1.037  -0.858  -0.486  0.00  0.00    +0.107 C 
ATOM     15  C   UNL     1      -2.084   0.092  -0.566  0.00  0.00    +0.008 C 
ATOM     16  C   UNL     1       0.761   2.763   0.321  0.00  0.00    +0.008 C 
ATOM     17  C   UNL     1      -2.054   1.373  -1.373  0.00  0.00    +0.092 C 
ATOM     18  C   UNL     1      -1.204  -2.004   0.315  0.00  0.00    +0.143 C 
ATOM     19  C   UNL     1      -0.008   2.736  -0.775  0.00  0.00    +0.065 C 
ATOM     20  C   UNL     1      -1.463   2.531  -0.590  0.00  0.00    +0.155 C 
ATOM     21  C   UNL     1      -3.248  -0.132   0.199  0.00  0.00    +0.088 C 
ATOM     22  C   UNL     1      -2.370  -2.203   1.053  0.00  0.00    +0.074 C 
ATOM     23  C   UNL     1      -3.391  -1.264   0.999  0.00  0.00    +0.147 C 
ENDROOT
BRANCH  18  24
ATOM     24  O   UNL     1      -0.291  -3.021   0.373  0.00  0.00    -0.505 OA
ATOM     25  H   UNL     1       0.515  -2.954  -0.099  0.00  0.00    +0.292 HD
ENDBRANCH  18  24
BRANCH  23  26
ATOM     26  O   UNL     1      -4.515  -1.492   1.737  0.00  0.00    -0.505 OA
ATOM     27  H   UNL     1      -5.220  -0.875   1.719  0.00  0.00    +0.292 HD
ENDBRANCH  23  26
TORSDOF 2
