REMARK  Name = 445462
REMARK  5 active torsions:
REMARK  status: ('A' for Active; 'I' for Inactive)
REMARK    1  A    between atoms: C_7  and  C_16
REMARK    2  A    between atoms: C_16  and  O_17
REMARK    3  A    between atoms: O_17  and  P_18
REMARK    4  A    between atoms: P_18  and  O_20
REMARK    5  A    between atoms: P_18  and  O_22
REMARK                            x       y       z     vdW  Elec       q    Type
REMARK                         _______ _______ _______ _____ _____    ______ ____
ROOT
ATOM      1  O   UNL     1      -1.871  -2.565  -0.285  0.00  0.00    -0.206 OA
ATOM      2  N   UNL     1      -0.107  -0.566  -0.445  0.00  0.00    -0.391 NA
ATOM      3  N   UNL     1      -3.256   1.146   0.251  0.00  0.00    -0.259 N 
ATOM      4  N   UNL     1      -1.054   2.050  -0.070  0.00  0.00    -0.246 NA
ATOM      5  N   UNL     1      -3.668  -1.198   0.141  0.00  0.00    -0.300 NA
ATOM      6  N   UNL     1      -5.383   0.344   0.566  0.00  0.00    -0.320 N 
ATOM      7  C   UNL     1       0.710   0.501  -0.507  0.00  0.00    +0.143 C 
ATOM      8  C   UNL     1      -1.402  -0.291  -0.192  0.00  0.00    +0.255 C 
ATOM      9  C   UNL     1      -1.891   0.992  -0.004  0.00  0.00    +0.173 C 
ATOM     10  C   UNL     1       0.245   1.785  -0.323  0.00  0.00    +0.184 C 
ATOM     11  C   UNL     1      -2.331  -1.440  -0.117  0.00  0.00    +0.240 C 
ATOM     12  C   UNL     1      -4.071   0.036   0.309  0.00  0.00    +0.249 C 
ATOM     13  H   UNL     1      -3.635   2.044   0.388  0.00  0.00    +0.157 HD
ATOM     14  H   UNL     1      -5.654   1.283   0.688  0.00  0.00    +0.146 HD
ATOM     15  H   UNL     1      -6.054  -0.374   0.630  0.00  0.00    +0.146 HD
ENDROOT
BRANCH   7  16
ATOM     16  C   UNL     1       2.152   0.252  -0.783  0.00  0.00    +0.209 C 
BRANCH  16  17
ATOM     17  O   UNL     1       2.846   0.069   0.445  0.00  0.00    -0.266 OA
BRANCH  17  18
ATOM     18  P   UNL     1       4.436  -0.218   0.392  0.00  0.00    +0.473 P 
ATOM     19  O   UNL     1       5.095  -0.399   1.728  0.00  0.00    -0.227 OA
BRANCH  18  20
ATOM     20  O   UNL     1       5.016   0.995  -0.507  0.00  0.00    -0.303 OA
ATOM     21  H   UNL     1       4.532   1.036  -1.346  0.00  0.00    +0.222 HD
ENDBRANCH  18  20
BRANCH  18  22
ATOM     22  O   UNL     1       4.534  -1.493  -0.598  0.00  0.00    -0.303 OA
ATOM     23  H   UNL     1       4.085  -1.290  -1.433  0.00  0.00    +0.222 HD
ENDBRANCH  18  22
ENDBRANCH  17  18
ENDBRANCH  16  17
ENDBRANCH   7  16
TORSDOF 5
