REMARK  Name = 79088
REMARK  1 active torsions:
REMARK  status: ('A' for Active; 'I' for Inactive)
REMARK    1  A    between atoms: C_3  and  C_7
REMARK                            x       y       z     vdW  Elec       q    Type
REMARK                         _______ _______ _______ _____ _____    ______ ____
ROOT
ATOM      1  O   UNL     1       1.384  -0.890   0.626  0.00  0.00    -0.267 OA
ATOM      2  N   UNL     1       1.296   1.080  -0.603  0.00  0.00    -0.323 N 
ATOM      3  C   UNL     1       0.772  -0.009   0.043  0.00  0.00    +0.278 C 
ATOM      4  H   UNL     1       2.269   1.229  -0.606  0.00  0.00    +0.145 HD
ATOM      5  H   UNL     1       0.699   1.714  -1.063  0.00  0.00    +0.145 HD
ENDROOT
BRANCH   3   7
ATOM      6  O   UNL     1      -1.203  -1.087  -0.589  0.00  0.00    -0.287 OA
ATOM      7  C   UNL     1      -0.724  -0.107  -0.036  0.00  0.00    +0.226 C 
ATOM      8  C   UNL     1      -1.525   1.013   0.558  0.00  0.00    +0.082 C 
ENDBRANCH   3   7
TORSDOF 1
