REMARK  Name = 4316
REMARK  7 active torsions:
REMARK  status: ('A' for Active; 'I' for Inactive)
REMARK    1  A    between atoms: S_1  and  C_5
REMARK    2  A    between atoms: S_1  and  N_15
REMARK    3  A    between atoms: C_6  and  S_9
REMARK    4  A    between atoms: S_9  and  N_12
REMARK    5  A    between atoms: N_15  and  C_17
REMARK    6  A    between atoms: C_17  and  C_18
REMARK    7  A    between atoms: C_23  and  O_24
REMARK                            x       y       z     vdW  Elec       q    Type
REMARK                         _______ _______ _______ _____ _____    ______ ____
ROOT
ATOM      1  S   UNL     1      -0.710   2.221   0.548  0.00  0.00    +0.066 S 
ATOM      2  O   UNL     1      -0.279   3.217  -0.415  0.00  0.00    -0.152 OA
ATOM      3  O   UNL     1      -1.166   2.628   1.864  0.00  0.00    -0.152 OA
ENDROOT
BRANCH   1   5
ATOM      4  S   UNL     1      -2.741   0.143   0.860  0.00  0.00    -0.047 S 
ATOM      5  C   UNL     1      -2.019   1.286  -0.184  0.00  0.00    +0.153 C 
ATOM      6  C   UNL     1      -3.824  -0.361  -0.367  0.00  0.00    +0.152 C 
ATOM      7  C   UNL     1      -2.582   1.288  -1.434  0.00  0.00    +0.029 C 
ATOM      8  C   UNL     1      -3.631   0.331  -1.542  0.00  0.00    +0.028 C 
BRANCH   6   9
ATOM      9  S   UNL     1      -4.937  -1.635   0.111  0.00  0.00    +0.063 S 
ATOM     10  O   UNL     1      -5.354  -2.339  -1.089  0.00  0.00    -0.153 OA
ATOM     11  O   UNL     1      -4.340  -2.363   1.217  0.00  0.00    -0.153 OA
BRANCH   9  12
ATOM     12  N   UNL     1      -6.243  -0.706   0.697  0.00  0.00    -0.203 NA
ATOM     13  H   UNL     1      -6.985  -1.328   1.018  0.00  0.00    +0.144 HD
ATOM     14  H   UNL     1      -6.599  -0.110  -0.050  0.00  0.00    +0.144 HD
ENDBRANCH   9  12
ENDBRANCH   6   9
ENDBRANCH   1   5
BRANCH   1  15
ATOM     15  N   UNL     1       0.510   1.038   0.713  0.00  0.00    -0.174 NA
ATOM     16  H   UNL     1       0.139   0.320   1.335  0.00  0.00    +0.149 HD
BRANCH  15  17
ATOM     17  C   UNL     1       1.032   0.344  -0.466  0.00  0.00    +0.118 C 
BRANCH  17  18
ATOM     18  C   UNL     1       2.440  -0.112  -0.279  0.00  0.00    -0.005 C 
ATOM     19  C   UNL     1       2.698  -1.377   0.250  0.00  0.00    +0.000 C 
ATOM     20  C   UNL     1       3.497   0.726  -0.632  0.00  0.00    +0.000 C 
ATOM     21  C   UNL     1       4.015  -1.803   0.426  0.00  0.00    +0.037 C 
ATOM     22  C   UNL     1       4.814   0.299  -0.457  0.00  0.00    +0.037 C 
ATOM     23  C   UNL     1       5.072  -0.966   0.073  0.00  0.00    +0.139 C 
BRANCH  23  24
ATOM     24  O   UNL     1       6.356  -1.383   0.243  0.00  0.00    -0.471 OA
ATOM     25  C   UNL     1       7.390  -0.477  -0.139  0.00  0.00    +0.252 C 
ENDBRANCH  23  24
ENDBRANCH  17  18
ENDBRANCH  15  17
ENDBRANCH   1  15
TORSDOF 7
