REMARK  Name = 1758
REMARK  8 active torsions:
REMARK  status: ('A' for Active; 'I' for Inactive)
REMARK    1  A    between atoms: C_1  and  C_9
REMARK    2  A    between atoms: C_2  and  S_19
REMARK    3  A    between atoms: N_8  and  C_11
REMARK    4  A    between atoms: C_11  and  C_12
REMARK    5  A    between atoms: C_12  and  C_13
REMARK    6  A    between atoms: C_13  and  C_14
REMARK    7  A    between atoms: C_14  and  N_15
REMARK    8  A    between atoms: S_19  and  N_22
REMARK                            x       y       z     vdW  Elec       q    Type
REMARK                         _______ _______ _______ _____ _____    ______ ____
ROOT
ATOM      1  C   UNL     1      -0.427  -0.386   0.410  0.00  0.00    +0.053 C 
ATOM      2  C   UNL     1      -3.093   0.051  -0.147  0.00  0.00    +0.122 C 
ATOM      3  C   UNL     1      -1.136  -1.361  -0.260  0.00  0.00    +0.006 C 
ATOM      4  C   UNL     1      -1.006   0.800   0.812  0.00  0.00    +0.006 C 
ATOM      5  C   UNL     1      -2.484  -1.140  -0.542  0.00  0.00    +0.020 C 
ATOM      6  C   UNL     1      -2.354   1.021   0.530  0.00  0.00    +0.020 C 
ENDROOT
BRANCH   1   9
ATOM      7  O   UNL     1       1.419  -1.774   0.813  0.00  0.00    -0.270 OA
ATOM      8  N   UNL     1       1.782   0.515   0.829  0.00  0.00    -0.301 N 
ATOM      9  C   UNL     1       1.009  -0.621   0.711  0.00  0.00    +0.246 C 
ATOM     10  H   UNL     1       1.354   1.396   0.730  0.00  0.00    +0.150 HD
BRANCH   8  11
ATOM     11  C   UNL     1       3.213   0.449   1.097  0.00  0.00    +0.090 C 
BRANCH  11  12
ATOM     12  C   UNL     1       3.998   0.393  -0.213  0.00  0.00    +0.019 C 
BRANCH  12  13
ATOM     13  C   UNL     1       5.505   0.315   0.050  0.00  0.00    -0.022 C 
BRANCH  13  14
ATOM     14  C   UNL     1       6.345   0.229  -1.226  0.00  0.00    -0.086 C 
BRANCH  14  15
ATOM     15  N   UNL     1       7.774   0.158  -0.946  0.00  0.00    +0.380 N 
ATOM     16  H   UNL     1       8.290   0.102  -1.824  0.00  0.00    -0.089 HD
ATOM     17  H   UNL     1       7.969  -0.670  -0.384  0.00  0.00    -0.089 HD
ATOM     18  H   UNL     1       8.062   0.992  -0.435  0.00  0.00    -0.089 HD
ENDBRANCH  14  15
ENDBRANCH  13  14
ENDBRANCH  12  13
ENDBRANCH  11  12
ENDBRANCH   8  11
ENDBRANCH   1   9
BRANCH   2  19
ATOM     19  S   UNL     1      -4.781   0.327  -0.500  0.00  0.00    +0.057 S 
ATOM     20  O   UNL     1      -4.959   1.777  -0.549  0.00  0.00    -0.153 OA
ATOM     21  O   UNL     1      -5.072  -0.489  -1.676  0.00  0.00    -0.153 OA
BRANCH  19  22
ATOM     22  N   UNL     1      -5.731  -0.265   0.808  0.00  0.00    -0.203 NA
ATOM     23  H   UNL     1      -6.719  -0.107   0.609  0.00  0.00    +0.144 HD
ATOM     24  H   UNL     1      -5.474   0.226   1.664  0.00  0.00    +0.144 HD
ENDBRANCH  19  22
ENDBRANCH   2  19
TORSDOF 8
