REMARK  Name = 14233317
REMARK  6 active torsions:
REMARK  status: ('A' for Active; 'I' for Inactive)
REMARK    1  A    between atoms: N_2  and  C_11
REMARK    2  A    between atoms: C_3  and  C_5
REMARK    3  A    between atoms: C_11  and  CA_12
REMARK    4  A    between atoms: CA_12  and  N_13
REMARK    5  A    between atoms: CA_12  and  C_18
REMARK    6  A    between atoms: C_18  and  O_19
REMARK                            x       y       z     vdW  Elec       q    Type
REMARK                         _______ _______ _______ _____ _____    ______ ____
ROOT
ATOM      1  O   UNL     1      -0.276   2.159   0.359  0.00  0.00    -0.270 OA
ATOM      2  N   UNL     1       0.604   0.362  -0.814  0.00  0.00    -0.302 N 
ATOM      3  C   UNL     1      -0.407   1.054  -0.161  0.00  0.00    +0.246 C 
ATOM      4  H   UNL     1       0.400  -0.521  -1.200  0.00  0.00    +0.150 HD
ENDROOT
BRANCH   3   5
ATOM      5  C   UNL     1      -1.722   0.367  -0.083  0.00  0.00    +0.053 C 
ATOM      6  C   UNL     1      -2.570   0.669   0.963  0.00  0.00    +0.005 C 
ATOM      7  C   UNL     1      -2.054  -0.550  -1.058  0.00  0.00    +0.005 C 
ATOM      8  C   UNL     1      -3.805   0.025   1.036  0.00  0.00    +0.000 C 
ATOM      9  C   UNL     1      -3.289  -1.194  -0.985  0.00  0.00    +0.000 C 
ATOM     10  C   UNL     1      -4.164  -0.907   0.063  0.00  0.00    +0.000 C 
ENDBRANCH   3   5
BRANCH   2  11
ATOM     11  C   UNL     1       1.939   0.884  -0.951  0.00  0.00    +0.079 C 
BRANCH  11  12
ATOM     12  CA  UNL     1       2.833   0.471   0.220  0.00  0.00    +0.056 C 
BRANCH  12  13
ATOM     13  N   UNL     1       4.190   0.973   0.013  0.00  0.00    +0.390 N 
ATOM     14  H1  UNL     1       4.165   1.987  -0.093  0.00  0.00    -0.088 HD
ATOM     15  H2  UNL     1       4.583   0.553  -0.829  0.00  0.00    -0.088 HD
ATOM     16  H3  UNL     1       4.768   0.729   0.817  0.00  0.00    -0.088 HD
ENDBRANCH  12  13
BRANCH  12  18
ATOM     17  OXT UNL     1       3.778  -1.742  -0.182  0.00  0.00    -0.253 OA
ATOM     18  C   UNL     1       2.943  -1.037   0.369  0.00  0.00    +0.295 C 
BRANCH  18  19
ATOM     19  O   UNL     1       1.999  -1.537   1.211  0.00  0.00    -0.482 OA
ATOM     20  H   UNL     1       1.378  -0.963   1.613  0.00  0.00    +0.295 HD
ENDBRANCH  18  19
ENDBRANCH  12  18
ENDBRANCH  11  12
ENDBRANCH   2  11
TORSDOF 6
