REMARK  Name = 447405
REMARK  6 active torsions:
REMARK  status: ('A' for Active; 'I' for Inactive)
REMARK    1  A    between atoms: C_3  and  N_9
REMARK    2  A    between atoms: C_4  and  C_17
REMARK    3  A    between atoms: C_17  and  O_18
REMARK    4  A    between atoms: O_18  and  P_19
REMARK    5  A    between atoms: P_19  and  O_21
REMARK    6  A    between atoms: P_19  and  O_23
REMARK                            x       y       z     vdW  Elec       q    Type
REMARK                         _______ _______ _______ _____ _____    ______ ____
ROOT
ATOM      1  F   UNL     1      -0.811   4.022  -0.034  0.00  0.00    -0.234 F 
ATOM      2  O   UNL     1      -0.439   1.259   0.982  0.00  0.00    -0.334 OA
ATOM      3  C   UNL     1       0.768   1.670   0.324  0.00  0.00    +0.202 C 
ATOM      4  C   UNL     1      -1.567   1.838   0.298  0.00  0.00    +0.180 C 
ATOM      5  C   UNL     1       0.362   2.269  -1.011  0.00  0.00    +0.089 C 
ATOM      6  C   UNL     1      -0.994   2.840  -0.688  0.00  0.00    +0.195 C 
ENDROOT
BRANCH   3   9
ATOM      7  O   UNL     1       3.600   1.794   0.395  0.00  0.00    -0.252 OA
ATOM      8  O   UNL     1       3.957  -2.749  -0.221  0.00  0.00    -0.270 OA
ATOM      9  N   UNL     1       1.643   0.543   0.186  0.00  0.00    -0.219 N 
ATOM     10  N   UNL     1       3.763  -0.472   0.087  0.00  0.00    -0.236 N 
ATOM     11  C   UNL     1       1.068  -0.698   0.004  0.00  0.00    +0.071 C 
ATOM     12  C   UNL     1       3.033   0.712   0.235  0.00  0.00    +0.315 C 
ATOM     13  C   UNL     1       1.770  -1.829  -0.138  0.00  0.00    +0.047 C 
ATOM     14  C   UNL     1       3.254  -1.749  -0.098  0.00  0.00    +0.250 C 
ATOM     15  C   UNL     1       1.144  -3.172  -0.335  0.00  0.00    +0.037 C 
ATOM     16  H   UNL     1       4.744  -0.390   0.117  0.00  0.00    +0.159 HD
ENDBRANCH   3   9
BRANCH   4  17
ATOM     17  C   UNL     1      -2.335   0.710  -0.377  0.00  0.00    +0.186 C 
BRANCH  17  18
ATOM     18  O   UNL     1      -2.818  -0.172   0.622  0.00  0.00    -0.271 OA
BRANCH  18  19
ATOM     19  P   UNL     1      -3.675  -1.466   0.161  0.00  0.00    +0.473 P 
ATOM     20  O   UNL     1      -4.147  -2.345   1.281  0.00  0.00    -0.227 OA
BRANCH  19  21
ATOM     21  O   UNL     1      -2.724  -2.187  -0.931  0.00  0.00    -0.303 OA
ATOM     22  H   UNL     1      -2.470  -1.545  -1.612  0.00  0.00    +0.222 HD
ENDBRANCH  19  21
BRANCH  19  23
ATOM     23  O   UNL     1      -4.851  -0.818  -0.741  0.00  0.00    -0.303 OA
ATOM     24  H   UNL     1      -4.459  -0.267  -1.437  0.00  0.00    +0.222 HD
ENDBRANCH  19  23
ENDBRANCH  18  19
ENDBRANCH  17  18
ENDBRANCH   4  17
TORSDOF 6
