REMARK  Name = 69736
REMARK  2 active torsions:
REMARK  status: ('A' for Active; 'I' for Inactive)
REMARK    1  A    between atoms: CA_9  and  C_16
REMARK    2  A    between atoms: C_16  and  O_17
REMARK                            x       y       z     vdW  Elec       q    Type
REMARK                         _______ _______ _______ _____ _____    ______ ____
ROOT
ATOM      1  O   UNL     1      -0.790  -2.581   0.115  0.00  0.00    -0.206 OA
ATOM      2  N   UNL     1      -1.778   1.288  -0.075  0.00  0.00    -0.259 N 
ATOM      3  N   UNL     1       1.201  -0.804   0.210  0.00  0.00    -0.391 NA
ATOM      4  N   UNL     1       0.534   1.920   0.080  0.00  0.00    -0.246 NA
ATOM      5  N   UNL     1      -2.448  -0.998  -0.058  0.00  0.00    -0.300 NA
ATOM      6  N   UNL     1      -4.004   0.748  -0.227  0.00  0.00    -0.320 N 
ATOM      7  C   UNL     1      -0.422   0.967   0.036  0.00  0.00    +0.173 C 
ATOM      8  C   UNL     1      -0.071  -0.371   0.102  0.00  0.00    +0.255 C 
ATOM      9  CA  UNL     1       2.139   0.160   0.252  0.00  0.00    +0.142 C 
ATOM     10  C   UNL     1      -1.130  -1.404   0.053  0.00  0.00    +0.240 C 
ATOM     11  C   UNL     1      -2.718   0.281  -0.116  0.00  0.00    +0.249 C 
ATOM     12  C   UNL     1       1.811   1.497   0.188  0.00  0.00    +0.183 C 
ATOM     13  H   UNL     1      -2.061   2.230  -0.125  0.00  0.00    +0.157 HD
ATOM     14  H   UNL     1      -4.174   1.717  -0.269  0.00  0.00    +0.146 HD
ATOM     15  H   UNL     1      -4.756   0.114  -0.264  0.00  0.00    +0.146 HD
ENDROOT
BRANCH   9  16
ATOM     16  C   UNL     1       3.561  -0.265   0.371  0.00  0.00    +0.194 C 
BRANCH  16  17
ATOM     17  O   UNL     1       4.115  -0.439  -0.928  0.00  0.00    -0.375 OA
ATOM     18  H   UNL     1       5.041  -0.716  -0.850  0.00  0.00    +0.211 HD
ENDBRANCH  16  17
ENDBRANCH   9  16
TORSDOF 2
