REMARK  Name = 17754204
REMARK  6 active torsions:
REMARK  status: ('A' for Active; 'I' for Inactive)
REMARK    1  A    between atoms: C_2  and  C_13
REMARK    2  A    between atoms: C_5  and  O_11
REMARK    3  A    between atoms: C_13  and  CA_14
REMARK    4  A    between atoms: CA_14  and  N_15
REMARK    5  A    between atoms: CA_14  and  C_20
REMARK    6  A    between atoms: C_20  and  O_21
REMARK                            x       y       z     vdW  Elec       q    Type
REMARK                         _______ _______ _______ _____ _____    ______ ____
ROOT
ATOM      1  N   UNL     1      -1.633   1.832   0.451  0.00  0.00    -0.325 N 
ATOM      2  C   UNL     1       0.150   0.897  -0.483  0.00  0.00    +0.029 A 
ATOM      3  C   UNL     1      -0.877  -0.085  -0.405  0.00  0.00    +0.016 A 
ATOM      4  C   UNL     1      -1.985   0.528   0.186  0.00  0.00    +0.059 A 
ATOM      5  C   UNL     1      -0.345   2.065   0.050  0.00  0.00    +0.195 A 
ATOM      6  C   UNL     1      -0.971  -1.440  -0.780  0.00  0.00    +0.001 C 
ATOM      7  C   UNL     1      -3.186  -0.150   0.420  0.00  0.00    +0.017 C 
ATOM      8  C   UNL     1      -2.167  -2.130  -0.551  0.00  0.00    +0.000 C 
ATOM      9  C   UNL     1      -3.256  -1.493   0.040  0.00  0.00    +0.001 C 
ATOM     10  H   UNL     1      -2.222   2.500   0.869  0.00  0.00    +0.169 HD
ENDROOT
BRANCH   5  11
ATOM     11  O   UNL     1       0.200   3.262   0.212  0.00  0.00    -0.493 OA
ATOM     12  H   UNL     1      -0.296   3.954   0.603  0.00  0.00    +0.294 HD
ENDBRANCH   5  11
BRANCH   2  13
ATOM     13  C   UNL     1       1.506   0.703  -1.039  0.00  0.00    +0.020 C 
BRANCH  13  14
ATOM     14  CA  UNL     1       2.553   0.233   0.003  0.00  0.00    +0.040 C 
BRANCH  14  15
ATOM     15  N   UNL     1       3.865   0.062  -0.617  0.00  0.00    +0.389 N 
ATOM     16  H1  UNL     1       4.159   0.943  -1.039  0.00  0.00    -0.088 HD
ATOM     17  H2  UNL     1       3.809  -0.658  -1.337  0.00  0.00    -0.088 HD
ATOM     18  H3  UNL     1       4.542  -0.217   0.092  0.00  0.00    -0.088 HD
ENDBRANCH  14  15
BRANCH  14  20
ATOM     19  OXT UNL     1       2.513  -2.197   0.156  0.00  0.00    -0.253 OA
ATOM     20  C   UNL     1       2.180  -1.109   0.608  0.00  0.00    +0.293 C 
BRANCH  20  21
ATOM     21  O   UNL     1       1.452  -0.978   1.748  0.00  0.00    -0.482 OA
ATOM     22  H   UNL     1       1.219  -0.126   2.059  0.00  0.00    +0.295 HD
ENDBRANCH  20  21
ENDBRANCH  14  20
ENDBRANCH  13  14
ENDBRANCH   2  13
TORSDOF 6
