72886
  -OEChem-10051720203D

 17 16  0     1  0  0  0  0  0999 V2000
   -1.5914   -0.1557    0.0521 S   0  0  0  0  0  0  0  0  0  0  0  0
   -2.8628    0.5765   -0.6603 O   0  0  0  0  0  0  0  0  0  0  0  0
   -1.8218   -0.2036    1.4841 O   0  0  0  0  0  0  0  0  0  0  0  0
   -1.2559   -1.3481   -0.7040 O   0  0  0  0  0  0  0  0  0  0  0  0
    1.7666   -1.3458    0.9794 O   0  0  0  0  0  0  0  0  0  0  0  0
    1.7684   -0.8024   -1.2217 O   0  0  0  0  0  0  0  0  0  0  0  0
    1.9033    1.8642    0.0225 N   0  0  0  0  0  0  0  0  0  0  0  0
   -0.3880    1.0911   -0.2915 C   0  0  0  0  0  0  0  0  0  0  0  0
    0.9447    0.8229    0.3972 C   0  0  1  0  0  0  0  0  0  0  0  0
    1.5369   -0.4991   -0.0578 C   0  0  0  0  0  0  0  0  0  0  0  0
   -0.2812    1.1325   -1.3819 H   0  0  0  0  0  0  0  0  0  0  0  0
   -0.8030    2.0450    0.0538 H   0  0  0  0  0  0  0  0  0  0  0  0
    0.8204    0.8169    1.4853 H   0  0  0  0  0  0  0  0  0  0  0  0
    2.0454    1.8662   -0.9869 H   0  0  0  0  0  0  0  0  0  0  0  0
    2.8099    1.6702    0.4456 H   0  0  0  0  0  0  0  0  0  0  0  0
   -3.2199    1.3636   -0.1857 H   0  0  0  0  0  0  0  0  0  0  0  0
    2.1370   -2.2022    0.6766 H   0  0  0  0  0  0  0  0  0  0  0  0
  1  2  1  0  0  0  0
  1  3  2  0  0  0  0
  1  4  2  0  0  0  0
  1  8  1  0  0  0  0
  2 16  1  0  0  0  0
  5 10  1  0  0  0  0
  5 17  1  0  0  0  0
  6 10  2  0  0  0  0
  7  9  1  0  0  0  0
  7 14  1  0  0  0  0
  7 15  1  0  0  0  0
  8  9  1  0  0  0  0
  8 11  1  0  0  0  0
  8 12  1  0  0  0  0
  9 10  1  0  0  0  0
  9 13  1  0  0  0  0
M  END
> <DATABASE_ID>
DB03661

> <DATABASE_NAME>
drugbank

> <ORIGINAL_SOURCE>
PUBCHEM

> <ORIGINAL_SOURCE_URL>
https://pubchem.ncbi.nlm.nih.gov/rest/pug/compound/inchikey/XVOYSCVBGLVSOL-REOHCLBHSA-N/SDF?record_type=3d

> <SMILES>
N[C@@H](CS(O)(=O)=O)C(O)=O

> <INCHI_IDENTIFIER>
InChI=1S/C3H7NO5S/c4-2(3(5)6)1-10(7,8)9/h2H,1,4H2,(H,5,6)(H,7,8,9)/t2-/m0/s1

> <INCHI_KEY>
XVOYSCVBGLVSOL-REOHCLBHSA-N

> <FORMULA>
C3H7NO5S

> <MOLECULAR_WEIGHT>
169.156

> <EXACT_MASS>
169.004493029

> <JCHEM_ACCEPTOR_COUNT>
6

> <JCHEM_AVERAGE_POLARIZABILITY>
13.484439770119906

> <JCHEM_BIOAVAILABILITY>
1

> <JCHEM_DONOR_COUNT>
3

> <JCHEM_FORMAL_CHARGE>
0

> <JCHEM_GHOSE_FILTER>
0

> <JCHEM_IUPAC>
(2R)-2-amino-3-sulfopropanoic acid

> <ALOGPS_LOGP>
-2.39

> <JCHEM_LOGP>
-2.957299196822919

> <ALOGPS_LOGS>
-0.36

> <JCHEM_MDDR_LIKE_RULE>
0

> <JCHEM_NUMBER_OF_RINGS>
0

> <JCHEM_PHYSIOLOGICAL_CHARGE>
-1

> <JCHEM_PKA>
1.2422625178335887

> <JCHEM_PKA_STRONGEST_ACIDIC>
-1.7161956659222701

> <JCHEM_PKA_STRONGEST_BASIC>
8.793320902393107

> <JCHEM_POLAR_SURFACE_AREA>
117.69

> <JCHEM_REFRACTIVITY>
30.435000000000002

> <JCHEM_ROTATABLE_BOND_COUNT>
3

> <JCHEM_RULE_OF_FIVE>
1

> <ALOGPS_SOLUBILITY>
7.36e+01 g/l

> <JCHEM_TRADITIONAL_IUPAC>
cysteinesulfonic acid

> <JCHEM_VEBER_RULE>
0

> <DRUGBANK_ID>
DB03661

> <SECONDARY_ACCESSION_NUMBERS>
EXPT02415

> <DRUG_GROUPS>
experimental

> <GENERIC_NAME>
Cysteinesulfonic Acid

$$$$
