REMARK  Name = 449392
REMARK  7 active torsions:
REMARK  status: ('A' for Active; 'I' for Inactive)
REMARK    1  A    between atoms: C_2  and  O_15
REMARK    2  A    between atoms: C_4  and  C_22
REMARK    3  A    between atoms: C_5  and  N_8
REMARK    4  A    between atoms: O_15  and  P_16
REMARK    5  A    between atoms: P_16  and  O_18
REMARK    6  A    between atoms: P_16  and  O_20
REMARK    7  A    between atoms: C_22  and  O_23
REMARK                            x       y       z     vdW  Elec       q    Type
REMARK                         _______ _______ _______ _____ _____    ______ ____
ROOT
ATOM      1  O   UNL     1       0.300  -0.619  -0.911  0.00  0.00    -0.335 OA
ATOM      2  C   UNL     1       1.764   0.040   0.833  0.00  0.00    +0.160 C 
ATOM      3  C   UNL     1       0.416   0.674   1.084  0.00  0.00    +0.084 C 
ATOM      4  C   UNL     1       1.444  -1.069  -0.160  0.00  0.00    +0.174 C 
ATOM      5  C   UNL     1      -0.274   0.524  -0.262  0.00  0.00    +0.202 C 
ENDROOT
BRANCH   5   8
ATOM      6  O   UNL     1      -2.163   2.617  -0.375  0.00  0.00    -0.252 OA
ATOM      7  O   UNL     1      -5.688  -0.296   0.208  0.00  0.00    -0.270 OA
ATOM      8  N   UNL     1      -1.691   0.341  -0.143  0.00  0.00    -0.219 N 
ATOM      9  N   UNL     1      -3.917   1.165  -0.084  0.00  0.00    -0.236 N 
ATOM     10  C   UNL     1      -2.553   1.459  -0.212  0.00  0.00    +0.315 C 
ATOM     11  C   UNL     1      -2.210  -0.934   0.040  0.00  0.00    +0.076 C 
ATOM     12  C   UNL     1      -3.513  -1.198   0.161  0.00  0.00    +0.074 C 
ATOM     13  C   UNL     1      -4.483  -0.087   0.100  0.00  0.00    +0.254 C 
ATOM     14  H   UNL     1      -4.538   1.927  -0.128  0.00  0.00    +0.159 HD
ENDBRANCH   5   8
BRANCH   2  15
ATOM     15  O   UNL     1       2.639   0.992   0.232  0.00  0.00    -0.273 OA
BRANCH  15  16
ATOM     16  P   UNL     1       4.152   0.535  -0.132  0.00  0.00    +0.473 P 
ATOM     17  O   UNL     1       4.251  -0.608  -1.099  0.00  0.00    -0.227 OA
BRANCH  16  18
ATOM     18  O   UNL     1       4.832   0.281   1.313  0.00  0.00    -0.303 OA
ATOM     19  H   UNL     1       4.719   1.069   1.867  0.00  0.00    +0.222 HD
ENDBRANCH  16  18
BRANCH  16  20
ATOM     20  O   UNL     1       4.838   1.912  -0.629  0.00  0.00    -0.303 OA
ATOM     21  H   UNL     1       4.728   2.594   0.053  0.00  0.00    +0.222 HD
ENDBRANCH  16  20
ENDBRANCH  15  16
ENDBRANCH   2  15
BRANCH   4  22
ATOM     22  C   UNL     1       1.072  -2.382   0.517  0.00  0.00    +0.169 C 
BRANCH  22  23
ATOM     23  O   UNL     1       0.782  -3.346  -0.482  0.00  0.00    -0.379 OA
ATOM     24  H   UNL     1       0.544  -4.187  -0.060  0.00  0.00    +0.211 HD
ENDBRANCH  22  23
ENDBRANCH   4  22
TORSDOF 7
