REMARK  Name = 448605
REMARK  6 active torsions:
REMARK  status: ('A' for Active; 'I' for Inactive)
REMARK    1  A    between atoms: C_3  and  N_11
REMARK    2  A    between atoms: C_4  and  C_27
REMARK    3  A    between atoms: C_9  and  C_21
REMARK    4  A    between atoms: N_26  and  C_29
REMARK    5  A    between atoms: C_30  and  C_35
REMARK    6  A    between atoms: C_35  and  N_36
REMARK                            x       y       z     vdW  Elec       q    Type
REMARK                         _______ _______ _______ _____ _____    ______ ____
ROOT
ATOM      1  C   UNL     1       2.694  -0.690   0.114  0.00  0.00    +0.014 C 
ATOM      2  C   UNL     1       2.240  -2.022  -0.044  0.00  0.00    +0.001 C 
ATOM      3  C   UNL     1       1.760   0.330   0.354  0.00  0.00    +0.057 C 
ATOM      4  C   UNL     1      -0.050  -1.266   0.281  0.00  0.00    +0.055 C 
ATOM      5  C   UNL     1       0.864  -2.293   0.043  0.00  0.00    +0.005 C 
ATOM      6  C   UNL     1       0.397   0.043   0.437  0.00  0.00    +0.020 C 
ATOM      7  C   UNL     1       4.069  -0.419   0.028  0.00  0.00    +0.004 C 
ATOM      8  C   UNL     1       3.174  -3.042  -0.284  0.00  0.00    +0.000 C 
ATOM      9  C   UNL     1       4.984  -1.446  -0.211  0.00  0.00    +0.031 C 
ATOM     10  C   UNL     1       4.537  -2.755  -0.366  0.00  0.00    +0.003 C 
ENDROOT
BRANCH   3  11
ATOM     11  N   UNL     1       2.160   1.679   0.520  0.00  0.00    -0.257 N 
ATOM     12  N   UNL     1       0.288   2.829  -0.303  0.00  0.00    -0.180 NA
ATOM     13  N   UNL     1       2.209   4.025   0.525  0.00  0.00    -0.203 NA
ATOM     14  C   UNL     1       1.524   2.898   0.235  0.00  0.00    +0.091 C 
ATOM     15  C   UNL     1      -0.293   4.018  -0.564  0.00  0.00    +0.108 C 
ATOM     16  C   UNL     1       1.569   5.178   0.238  0.00  0.00    +0.165 C 
ATOM     17  C   UNL     1       0.305   5.236  -0.312  0.00  0.00    +0.022 C 
ATOM     18  H   UNL     1       3.058   1.781   0.910  0.00  0.00    +0.164 HD
ENDBRANCH   3  11
BRANCH   9  21
ATOM     19  N   UNL     1       7.342  -2.153  -0.534  0.00  0.00    -0.343 N 
ATOM     20  N   UNL     1       6.828   0.093  -0.145  0.00  0.00    -0.285 NA
ATOM     21  C   UNL     1       6.405  -1.149  -0.297  0.00  0.00    +0.117 C 
ATOM     22  H   UNL     1       8.299  -1.930  -0.588  0.00  0.00    +0.144 HD
ATOM     23  H   UNL     1       7.047  -3.086  -0.647  0.00  0.00    +0.144 HD
ATOM     24  H   UNL     1       7.790   0.296  -0.203  0.00  0.00    +0.188 HD
ENDBRANCH   9  21
BRANCH   4  27
ATOM     25  O   UNL     1      -1.829  -2.689   0.751  0.00  0.00    -0.270 OA
ATOM     26  N   UNL     1      -2.337  -0.517   0.023  0.00  0.00    -0.280 N 
ATOM     27  C   UNL     1      -1.471  -1.564   0.368  0.00  0.00    +0.250 C 
ATOM     28  H   UNL     1      -1.905   0.319  -0.264  0.00  0.00    +0.155 HD
BRANCH  26  29
ATOM     29  C   UNL     1      -3.754  -0.505   0.034  0.00  0.00    +0.051 C 
ATOM     30  C   UNL     1      -6.522  -0.482   0.055  0.00  0.00    -0.044 C 
ATOM     31  C   UNL     1      -4.423   0.645  -0.347  0.00  0.00    +0.014 C 
ATOM     32  C   UNL     1      -4.437  -1.644   0.426  0.00  0.00    +0.014 C 
ATOM     33  C   UNL     1      -5.818   0.657  -0.336  0.00  0.00    -0.005 C 
ATOM     34  C   UNL     1      -5.831  -1.632   0.436  0.00  0.00    -0.005 C 
BRANCH  30  35
ATOM     35  C   UNL     1      -8.013  -0.469   0.066  0.00  0.00    -0.059 C 
BRANCH  35  36
ATOM     36  N   UNL     1      -8.574  -0.891  -1.192  0.00  0.00    +0.383 N 
ATOM     37  H   UNL     1      -9.592  -0.866  -1.137  0.00  0.00    -0.089 HD
ATOM     38  H   UNL     1      -8.268  -1.842  -1.399  0.00  0.00    -0.089 HD
ATOM     39  H   UNL     1      -8.258  -0.264  -1.932  0.00  0.00    -0.089 HD
ENDBRANCH  35  36
ENDBRANCH  30  35
ENDBRANCH  26  29
ENDBRANCH   4  27
TORSDOF 6
