REMARK  Name = 448294
REMARK  10 active torsions:
REMARK  status: ('A' for Active; 'I' for Inactive)
REMARK    1  A    between atoms: C_2  and  O_7
REMARK    2  A    between atoms: C_4  and  O_9
REMARK    3  A    between atoms: C_5  and  C_18
REMARK    4  A    between atoms: C_6  and  O_11
REMARK    5  A    between atoms: O_11  and  C_12
REMARK    6  A    between atoms: C_12  and  C_13
REMARK    7  A    between atoms: C_13  and  C_14
REMARK    8  A    between atoms: C_14  and  C_15
REMARK    9  A    between atoms: C_15  and  C_16
REMARK   10  A    between atoms: C_18  and  O_19
REMARK                            x       y       z     vdW  Elec       q    Type
REMARK                         _______ _______ _______ _____ _____    ______ ____
ROOT
ATOM      1  O   UNL     1      -1.494  -0.595  -0.048  0.00  0.00    -0.326 OA
ATOM      2  C   UNL     1      -3.887  -0.153  -0.109  0.00  0.00    +0.143 C 
ATOM      3  C   UNL     1      -3.624   1.301   0.273  0.00  0.00    +0.066 C 
ATOM      4  C   UNL     1      -2.206   1.726  -0.108  0.00  0.00    +0.169 C 
ATOM      5  C   UNL     1      -2.766  -1.055   0.421  0.00  0.00    +0.174 C 
ATOM      6  C   UNL     1      -1.177   0.720   0.406  0.00  0.00    +0.263 C 
ENDROOT
BRANCH   2   7
ATOM      7  O   UNL     1      -3.955  -0.259  -1.530  0.00  0.00    -0.382 OA
ATOM      8  H   UNL     1      -4.664   0.312  -1.863  0.00  0.00    +0.210 HD
ENDBRANCH   2   7
BRANCH   4   9
ATOM      9  O   UNL     1      -1.930   3.005   0.456  0.00  0.00    -0.379 OA
ATOM     10  H   UNL     1      -2.581   3.648   0.133  0.00  0.00    +0.211 HD
ENDBRANCH   4   9
BRANCH   6  11
ATOM     11  O   UNL     1       0.103   1.106  -0.093  0.00  0.00    -0.329 OA
BRANCH  11  12
ATOM     12  C   UNL     1       1.118   0.216   0.344  0.00  0.00    +0.145 C 
BRANCH  12  13
ATOM     13  C   UNL     1       2.458   0.690  -0.202  0.00  0.00    +0.032 C 
BRANCH  13  14
ATOM     14  C   UNL     1       3.596  -0.238   0.220  0.00  0.00    +0.003 C 
BRANCH  14  15
ATOM     15  C   UNL     1       4.970   0.217  -0.279  0.00  0.00    +0.000 C 
BRANCH  15  16
ATOM     16  C   UNL     1       6.106  -0.725   0.123  0.00  0.00    +0.000 C 
ATOM     17  C   UNL     1       7.455  -0.193  -0.334  0.00  0.00    +0.000 C 
ENDBRANCH  15  16
ENDBRANCH  14  15
ENDBRANCH  13  14
ENDBRANCH  12  13
ENDBRANCH  11  12
ENDBRANCH   6  11
BRANCH   5  18
ATOM     18  C   UNL     1      -2.923  -2.502  -0.032  0.00  0.00    +0.169 C 
BRANCH  18  19
ATOM     19  O   UNL     1      -1.845  -3.259   0.491  0.00  0.00    -0.379 OA
ATOM     20  H   UNL     1      -1.933  -4.183   0.210  0.00  0.00    +0.211 HD
ENDBRANCH  18  19
ENDBRANCH   5  18
TORSDOF 10
