REMARK  Name = 5289457
REMARK  5 active torsions:
REMARK  status: ('A' for Active; 'I' for Inactive)
REMARK    1  A    between atoms: C_1  and  C_4
REMARK    2  A    between atoms: C_1  and  C_6
REMARK    3  A    between atoms: C_1  and  O_10
REMARK    4  A    between atoms: C_6  and  C_7
REMARK    5  A    between atoms: C_7  and  O_8
REMARK                            x       y       z     vdW  Elec       q    Type
REMARK                         _______ _______ _______ _____ _____    ______ ____
ROOT
ATOM      1  C   UNL     1       0.546  -0.425   0.496  0.00  0.00    +0.225 C 
ENDROOT
BRANCH   1   4
ATOM      2  O   UNL     1       1.997   0.029  -1.302  0.00  0.00    -0.243 OA
ATOM      3  O   UNL     1       2.177   1.299   0.589  0.00  0.00    -0.243 OA
ATOM      4  C   UNL     1       1.684   0.383  -0.129  0.00  0.00    +0.392 C 
ENDBRANCH   1   4
BRANCH   1   5
ATOM      5  O   UNL     1       0.946  -1.789   0.598  0.00  0.00    -0.374 OA
ATOM      6  H   UNL     1       0.228  -2.308   0.994  0.00  0.00    +0.211 HD
ENDBRANCH   1   5
BRANCH   1   7
ATOM      7  C   UNL     1      -0.637  -0.339  -0.426  0.00  0.00    +0.150 C 
BRANCH   7   9
ATOM      8  O   UNL     1      -2.848   0.188  -0.923  0.00  0.00    -0.250 OA
ATOM      9  C   UNL     1      -1.873   0.121  -0.121  0.00  0.00    +0.317 C 
BRANCH   9  10
ATOM     10  O   UNL     1      -1.992   0.532   1.218  0.00  0.00    -0.480 OA
ATOM     11  H   UNL     1      -1.256   0.473   1.793  0.00  0.00    +0.295 HD
ENDBRANCH   9  10
ENDBRANCH   7   9
ENDBRANCH   1   7
TORSDOF 5
