REMARK  Name = 6131
REMARK  8 active torsions:
REMARK  status: ('A' for Active; 'I' for Inactive)
REMARK    1  A    between atoms: C_2  and  O_16
REMARK    2  A    between atoms: C_3  and  O_18
REMARK    3  A    between atoms: C_4  and  C_20
REMARK    4  A    between atoms: C_5  and  N_7
REMARK    5  A    between atoms: C_20  and  O_21
REMARK    6  A    between atoms: O_21  and  P_22
REMARK    7  A    between atoms: P_22  and  O_24
REMARK    8  A    between atoms: P_22  and  O_26
REMARK                            x       y       z     vdW  Elec       q    Type
REMARK                         _______ _______ _______ _____ _____    ______ ____
ROOT
ATOM      1  O   UNL     1       0.364   0.971  -1.134  0.00  0.00    -0.332 OA
ATOM      2  C   UNL     1       0.746   2.702   0.438  0.00  0.00    +0.171 C 
ATOM      3  C   UNL     1      -0.545   1.997   0.800  0.00  0.00    +0.188 C 
ATOM      4  C   UNL     1       1.428   1.678  -0.459  0.00  0.00    +0.176 C 
ATOM      5  C   UNL     1      -0.886   1.281  -0.496  0.00  0.00    +0.236 C 
ENDROOT
BRANCH   5   7
ATOM      6  O   UNL     1      -3.691   1.027  -0.531  0.00  0.00    -0.193 OA
ATOM      7  N   UNL     1      -1.611   0.062  -0.274  0.00  0.00    -0.178 N 
ATOM      8  N   UNL     1      -3.660  -1.199  -0.085  0.00  0.00    -0.306 NA
ATOM      9  N   UNL     1      -3.620  -3.478   0.374  0.00  0.00    -0.332 N 
ATOM     10  C   UNL     1      -0.898  -1.099  -0.018  0.00  0.00    +0.083 C 
ATOM     11  C   UNL     1      -3.027   0.013  -0.308  0.00  0.00    +0.276 C 
ATOM     12  C   UNL     1      -1.487  -2.273   0.200  0.00  0.00    +0.065 C 
ATOM     13  C   UNL     1      -2.973  -2.284   0.155  0.00  0.00    +0.193 C 
ATOM     14  H   UNL     1      -4.604  -3.516   0.350  0.00  0.00    +0.145 HD
ATOM     15  H   UNL     1      -3.101  -4.294   0.554  0.00  0.00    +0.145 HD
ENDBRANCH   5   7
BRANCH   2  16
ATOM     16  O   UNL     1       0.473   3.862  -0.346  0.00  0.00    -0.379 OA
ATOM     17  H   UNL     1       0.037   4.531   0.205  0.00  0.00    +0.211 HD
ENDBRANCH   2  16
BRANCH   3  18
ATOM     18  O   UNL     1      -1.554   2.900   1.204  0.00  0.00    -0.378 OA
ATOM     19  H   UNL     1      -1.290   3.330   2.032  0.00  0.00    +0.211 HD
ENDBRANCH   3  18
BRANCH   4  20
ATOM     20  C   UNL     1       2.259   0.661   0.311  0.00  0.00    +0.186 C 
BRANCH  20  21
ATOM     21  O   UNL     1       2.837  -0.245  -0.612  0.00  0.00    -0.271 OA
BRANCH  21  22
ATOM     22  P   UNL     1       3.776  -1.435  -0.043  0.00  0.00    +0.473 P 
ATOM     23  O   UNL     1       4.346  -2.348  -1.089  0.00  0.00    -0.227 OA
BRANCH  22  24
ATOM     24  O   UNL     1       2.851  -2.154   1.072  0.00  0.00    -0.303 OA
ATOM     25  H   UNL     1       2.528  -1.490   1.702  0.00  0.00    +0.222 HD
ENDBRANCH  22  24
BRANCH  22  26
ATOM     26  O   UNL     1       4.872  -0.639   0.841  0.00  0.00    -0.303 OA
ATOM     27  H   UNL     1       4.419  -0.076   1.488  0.00  0.00    +0.222 HD
ENDBRANCH  22  26
ENDBRANCH  21  22
ENDBRANCH  20  21
ENDBRANCH   4  20
TORSDOF 8
