REMARK  Name = 11668
REMARK  1 active torsions:
REMARK  status: ('A' for Active; 'I' for Inactive)
REMARK    1  A    between atoms: S_1  and  C_5
REMARK                            x       y       z     vdW  Elec       q    Type
REMARK                         _______ _______ _______ _____ _____    ______ ____
ROOT
ATOM      1  S   UNL     1       0.488   0.141  -0.018  0.00  0.00    +0.023 S 
ATOM      2  O   UNL     1       1.531  -1.089   0.227  0.00  0.00    -0.069 OA
ATOM      3  O   UNL     1       0.521   1.017   1.140  0.00  0.00    -0.069 OA
ATOM      4  O   UNL     1       0.682   0.655  -1.362  0.00  0.00    -0.069 OA
ENDROOT
BRANCH   1   5
ATOM      5  C   UNL     1      -0.999  -0.806   0.021  0.00  0.00    +0.158 C 
ATOM      6  C   UNL     1      -2.223   0.082  -0.008  0.00  0.00    +0.028 C 
ENDBRANCH   1   5
TORSDOF 1
