REMARK  Name = 447018
REMARK  6 active torsions:
REMARK  status: ('A' for Active; 'I' for Inactive)
REMARK    1  A    between atoms: N_2  and  C_20
REMARK    2  A    between atoms: C_3  and  C_5
REMARK    3  A    between atoms: C_6  and  C_14
REMARK    4  A    between atoms: C_8  and  N_11
REMARK    5  A    between atoms: C_14  and  N_16
REMARK    6  A    between atoms: C_20  and  C_22
REMARK                            x       y       z     vdW  Elec       q    Type
REMARK                         _______ _______ _______ _____ _____    ______ ____
ROOT
ATOM      1  O   UNL     1      -0.581   3.886   0.335  0.00  0.00    -0.270 OA
ATOM      2  N   UNL     1       0.426   2.385  -1.136  0.00  0.00    -0.269 N 
ATOM      3  C   UNL     1      -0.356   2.735  -0.036  0.00  0.00    +0.249 C 
ATOM      4  C   UNL     1       1.049   3.421  -1.942  0.00  0.00    +0.116 C 
ENDROOT
BRANCH   3   5
ATOM      5  C   UNL     1      -0.987   1.663   0.749  0.00  0.00    +0.053 C 
ATOM      6  C   UNL     1      -2.852   0.204   1.147  0.00  0.00    +0.011 C 
ATOM      7  C   UNL     1      -2.254   1.220   0.402  0.00  0.00    +0.003 C 
ATOM      8  C   UNL     1      -2.176  -0.357   2.230  0.00  0.00    +0.039 C 
ATOM      9  C   UNL     1      -0.303   1.114   1.823  0.00  0.00    +0.006 C 
ATOM     10  C   UNL     1      -0.901   0.098   2.568  0.00  0.00    +0.014 C 
BRANCH   8  11
ATOM     11  N   UNL     1      -2.766  -1.387   2.996  0.00  0.00    -0.357 N 
ATOM     12  H   UNL     1      -3.665  -1.716   2.767  0.00  0.00    +0.142 HD
ATOM     13  H   UNL     1      -2.278  -1.775   3.758  0.00  0.00    +0.142 HD
ENDBRANCH   8  11
BRANCH   6  14
ATOM     14  C   UNL     1      -4.218  -0.264   0.762  0.00  0.00    +0.121 C 
BRANCH  14  16
ATOM     15  O   UNL     1      -4.202  -0.032  -2.105  0.00  0.00    -0.275 OA
ATOM     16  N   UNL     1      -4.176  -1.363  -0.202  0.00  0.00    -0.274 N 
ATOM     17  C   UNL     1      -4.140  -2.698   0.379  0.00  0.00    +0.115 C 
ATOM     18  C   UNL     1      -4.172  -1.148  -1.579  0.00  0.00    +0.226 C 
ATOM     19  C   UNL     1      -4.127  -2.374  -2.457  0.00  0.00    +0.095 C 
ENDBRANCH  14  16
ENDBRANCH   6  14
ENDBRANCH   3   5
BRANCH   2  20
ATOM     20  C   UNL     1       0.690   1.006  -1.570  0.00  0.00    +0.135 C 
BRANCH  20  22
ATOM     21  N   UNL     1       2.317  -0.849  -1.208  0.00  0.00    -0.287 N 
ATOM     22  C   UNL     1       1.895   0.426  -0.942  0.00  0.00    +0.049 C 
ATOM     23  C   UNL     1       3.458  -1.131  -0.490  0.00  0.00    +0.051 C 
ATOM     24  C   UNL     1       3.767   0.008   0.255  0.00  0.00    +0.015 C 
ATOM     25  C   UNL     1       2.772   0.983  -0.040  0.00  0.00    +0.013 C 
ATOM     26  C   UNL     1       1.661  -1.768  -2.115  0.00  0.00    +0.117 C 
ATOM     27  C   UNL     1       4.232  -2.296  -0.445  0.00  0.00    +0.015 C 
ATOM     28  C   UNL     1       4.903  -0.013   1.088  0.00  0.00    +0.001 C 
ATOM     29  C   UNL     1       5.354  -2.295   0.388  0.00  0.00    +0.001 C 
ATOM     30  C   UNL     1       5.687  -1.172   1.143  0.00  0.00    +0.000 C 
ENDBRANCH  20  22
ENDBRANCH   2  20
TORSDOF 6
