REMARK  Name = 165151
REMARK  6 active torsions:
REMARK  status: ('A' for Active; 'I' for Inactive)
REMARK    1  A    between atoms: C_2  and  N_8
REMARK    2  A    between atoms: C_3  and  C_16
REMARK    3  A    between atoms: C_16  and  O_17
REMARK    4  A    between atoms: O_17  and  P_18
REMARK    5  A    between atoms: P_18  and  O_20
REMARK    6  A    between atoms: P_18  and  O_22
REMARK                            x       y       z     vdW  Elec       q    Type
REMARK                         _______ _______ _______ _____ _____    ______ ____
ROOT
ATOM      1  O   UNL     1      -0.417   1.485   0.983  0.00  0.00    -0.337 OA
ATOM      2  C   UNL     1       0.804   1.843   0.319  0.00  0.00    +0.199 C 
ATOM      3  C   UNL     1      -1.519   2.100   0.293  0.00  0.00    +0.147 C 
ATOM      4  C   UNL     1       0.419   2.454  -1.015  0.00  0.00    +0.054 C 
ATOM      5  C   UNL     1      -0.914   3.083  -0.697  0.00  0.00    +0.037 C 
ENDROOT
BRANCH   2   8
ATOM      6  O   UNL     1       3.639   1.852   0.381  0.00  0.00    -0.252 OA
ATOM      7  O   UNL     1       3.806  -2.704  -0.218  0.00  0.00    -0.270 OA
ATOM      8  N   UNL     1       1.631   0.681   0.183  0.00  0.00    -0.219 N 
ATOM      9  N   UNL     1       3.708  -0.421   0.081  0.00  0.00    -0.236 N 
ATOM     10  C   UNL     1       1.005  -0.536   0.009  0.00  0.00    +0.071 C 
ATOM     11  C   UNL     1       3.027   0.793   0.227  0.00  0.00    +0.315 C 
ATOM     12  C   UNL     1       1.660  -1.695  -0.131  0.00  0.00    +0.047 C 
ATOM     13  C   UNL     1       3.146  -1.676  -0.096  0.00  0.00    +0.250 C 
ATOM     14  C   UNL     1       0.978  -3.013  -0.320  0.00  0.00    +0.037 C 
ATOM     15  H   UNL     1       4.691  -0.379   0.107  0.00  0.00    +0.159 HD
ENDBRANCH   2   8
BRANCH   3  16
ATOM     16  C   UNL     1      -2.338   1.005  -0.377  0.00  0.00    +0.183 C 
BRANCH  16  17
ATOM     17  O   UNL     1      -2.850   0.137   0.621  0.00  0.00    -0.271 OA
BRANCH  17  18
ATOM     18  P   UNL     1      -3.761  -1.118   0.158  0.00  0.00    +0.473 P 
ATOM     19  O   UNL     1      -4.261  -1.986   1.275  0.00  0.00    -0.227 OA
BRANCH  18  20
ATOM     20  O   UNL     1      -2.848  -1.869  -0.946  0.00  0.00    -0.303 OA
ATOM     21  H   UNL     1      -2.572  -1.233  -1.624  0.00  0.00    +0.222 HD
ENDBRANCH  18  20
BRANCH  18  22
ATOM     22  O   UNL     1      -4.915  -0.415  -0.731  0.00  0.00    -0.303 OA
ATOM     23  H   UNL     1      -4.505   0.123  -1.425  0.00  0.00    +0.222 HD
ENDBRANCH  18  22
ENDBRANCH  17  18
ENDBRANCH  16  17
ENDBRANCH   3  16
TORSDOF 6
