REMARK  Name = 13611
REMARK  1 active torsions:
REMARK  status: ('A' for Active; 'I' for Inactive)
REMARK    1  A    between atoms: C_5  and  N_11
REMARK                            x       y       z     vdW  Elec       q    Type
REMARK                         _______ _______ _______ _____ _____    ______ ____
ROOT
ATOM      1  O   UNL     1      -1.559   1.776   0.000  0.00  0.00    -0.268 OA
ATOM      2  O   UNL     1       2.821   0.334   0.000  0.00  0.00    -0.252 OA
ATOM      3  N   UNL     1       0.634   1.066   0.000  0.00  0.00    -0.235 N 
ATOM      4  N   UNL     1       1.123  -1.218   0.000  0.00  0.00    -0.266 N 
ATOM      5  C   UNL     1      -1.171  -0.573   0.000  0.00  0.00    +0.111 C 
ATOM      6  C   UNL     1      -0.740   0.860   0.000  0.00  0.00    +0.267 C 
ATOM      7  C   UNL     1      -0.213  -1.509   0.000  0.00  0.00    +0.084 C 
ATOM      8  C   UNL     1       1.617   0.076   0.000  0.00  0.00    +0.311 C 
ATOM      9  H   UNL     1       0.943   2.001   0.000  0.00  0.00    +0.159 HD
ATOM     10  H   UNL     1       1.765  -1.964   0.000  0.00  0.00    +0.156 HD
ENDROOT
BRANCH   5  11
ATOM     11  N   UNL     1      -2.512  -0.812   0.000  0.00  0.00    -0.352 N 
ATOM     12  H   UNL     1      -3.146  -0.060   0.000  0.00  0.00    +0.143 HD
ATOM     13  H   UNL     1      -2.847  -1.738   0.000  0.00  0.00    +0.143 HD
ENDBRANCH   5  11
TORSDOF 1
