REMARK  Name = 447411
REMARK  6 active torsions:
REMARK  status: ('A' for Active; 'I' for Inactive)
REMARK    1  A    between atoms: N_2  and  C_4
REMARK    2  A    between atoms: N_2  and  C_14
REMARK    3  A    between atoms: C_3  and  C_25
REMARK    4  A    between atoms: C_15  and  C_21
REMARK    5  A    between atoms: C_21  and  O_22
REMARK    6  A    between atoms: C_25  and  O_26
REMARK                            x       y       z     vdW  Elec       q    Type
REMARK                         _______ _______ _______ _____ _____    ______ ____
ROOT
ATOM      1  O   UNL     1      -1.445   1.790   2.014  0.00  0.00    -0.262 OA
ATOM      2  N   UNL     1      -0.452   0.366   0.396  0.00  0.00    -0.228 N 
ATOM      3  C   UNL     1      -0.533   1.512   1.244  0.00  0.00    +0.332 C 
ENDROOT
BRANCH   2   4
ATOM      4  C   UNL     1       0.631   0.208  -0.477  0.00  0.00    +0.059 C 
ATOM      5  C   UNL     1       1.803  -0.461  -0.088  0.00  0.00    +0.014 C 
ATOM      6  C   UNL     1       2.866  -0.589  -1.014  0.00  0.00    +0.001 C 
ATOM      7  C   UNL     1       0.508   0.743  -1.760  0.00  0.00    +0.015 C 
ATOM      8  C   UNL     1       1.944  -1.005   1.199  0.00  0.00    +0.001 C 
ATOM      9  C   UNL     1       2.725  -0.046  -2.302  0.00  0.00    +0.000 C 
ATOM     10  C   UNL     1       1.553   0.616  -2.671  0.00  0.00    +0.001 C 
ATOM     11  C   UNL     1       4.038  -1.258  -0.626  0.00  0.00    +0.000 C 
ATOM     12  C   UNL     1       3.116  -1.666   1.567  0.00  0.00    +0.000 C 
ATOM     13  C   UNL     1       4.161  -1.793   0.657  0.00  0.00    +0.000 C 
ENDBRANCH   2   4
BRANCH   2  14
ATOM     14  C   UNL     1      -1.507  -0.637   0.449  0.00  0.00    +0.065 C 
ATOM     15  C   UNL     1      -2.585  -0.504  -0.379  0.00  0.00    +0.089 C 
ATOM     16  C   UNL     1      -1.341  -1.661   1.339  0.00  0.00    +0.015 C 
ATOM     17  C   UNL     1      -3.583  -1.476  -0.311  0.00  0.00    +0.008 C 
ATOM     18  C   UNL     1      -2.339  -2.633   1.407  0.00  0.00    +0.001 C 
ATOM     19  C   UNL     1      -3.459  -2.541   0.582  0.00  0.00    +0.000 C 
BRANCH  15  21
ATOM     20  O   UNL     1      -2.299   1.736  -1.170  0.00  0.00    -0.245 OA
ATOM     21  C   UNL     1      -2.746   0.596  -1.321  0.00  0.00    +0.339 C 
BRANCH  21  22
ATOM     22  O   UNL     1      -3.458   0.234  -2.422  0.00  0.00    -0.477 OA
ATOM     23  H   UNL     1      -3.782  -0.642  -2.503  0.00  0.00    +0.295 HD
ENDBRANCH  21  22
ENDBRANCH  15  21
ENDBRANCH   2  14
BRANCH   3  25
ATOM     24  O   UNL     1       1.560   2.379   0.504  0.00  0.00    -0.240 OA
ATOM     25  C   UNL     1       0.562   2.537   1.178  0.00  0.00    +0.393 C 
BRANCH  25  26
ATOM     26  O   UNL     1       0.279   3.553   2.005  0.00  0.00    -0.474 OA
ATOM     27  H   UNL     1      -0.532   3.562   2.475  0.00  0.00    +0.296 HD
ENDBRANCH  25  26
ENDBRANCH   3  25
TORSDOF 6
