REMARK  Name = 449101
REMARK  4 active torsions:
REMARK  status: ('A' for Active; 'I' for Inactive)
REMARK    1  A    between atoms: C_3  and  O_8
REMARK    2  A    between atoms: C_4  and  C_12
REMARK    3  A    between atoms: C_5  and  O_10
REMARK    4  A    between atoms: C_12  and  O_13
REMARK                            x       y       z     vdW  Elec       q    Type
REMARK                         _______ _______ _______ _____ _____    ______ ____
ROOT
ATOM      1  O   UNL     1       0.757   1.241  -0.302  0.00  0.00    -0.283 OA
ATOM      2  N   UNL     1      -0.307   1.920   0.433  0.00  0.00    -0.187 NA
ATOM      3  C   UNL     1      -0.383  -0.876  -0.183  0.00  0.00    +0.170 C 
ATOM      4  C   UNL     1       0.873  -0.088   0.216  0.00  0.00    +0.195 C 
ATOM      5  C   UNL     1      -1.645  -0.116   0.247  0.00  0.00    +0.158 C 
ATOM      6  C   UNL     1      -1.546   1.368  -0.111  0.00  0.00    +0.128 C 
ATOM      7  H   UNL     1      -0.264   2.927   0.279  0.00  0.00    +0.155 HD
ENDROOT
BRANCH   3   8
ATOM      8  O   UNL     1      -0.351  -2.155   0.441  0.00  0.00    -0.379 OA
ATOM      9  H   UNL     1       0.448  -2.630   0.165  0.00  0.00    +0.211 HD
ENDBRANCH   3   8
BRANCH   5  10
ATOM     10  O   UNL     1      -2.785  -0.658  -0.414  0.00  0.00    -0.380 OA
ATOM     11  H   UNL     1      -2.866  -1.601  -0.200  0.00  0.00    +0.211 HD
ENDBRANCH   5  10
BRANCH   4  12
ATOM     12  C   UNL     1       2.139  -0.709  -0.363  0.00  0.00    +0.171 C 
BRANCH  12  13
ATOM     13  O   UNL     1       3.249   0.074   0.036  0.00  0.00    -0.379 OA
ATOM     14  H   UNL     1       4.063  -0.310  -0.327  0.00  0.00    +0.211 HD
ENDBRANCH  12  13
ENDBRANCH   4  12
TORSDOF 4
