REMARK  Name = 31275
REMARK  0 active torsions:
REMARK  status: ('A' for Active; 'I' for Inactive)
REMARK                            x       y       z     vdW  Elec       q    Type
REMARK                         _______ _______ _______ _____ _____    ______ ____
ROOT
ATOM      1  O   UNL     1      -1.383   0.000   0.243  0.00  0.00    -0.348 OA
ATOM      2  O   UNL     1       1.383   0.000  -0.243  0.00  0.00    -0.348 OA
ATOM      3  C   UNL     1      -0.724   1.176  -0.232  0.00  0.00    +0.174 C 
ATOM      4  C   UNL     1      -0.723  -1.176  -0.232  0.00  0.00    +0.174 C 
ATOM      5  C   UNL     1       0.723   1.176   0.232  0.00  0.00    +0.174 C 
ATOM      6  C   UNL     1       0.724  -1.176   0.232  0.00  0.00    +0.174 C 
ENDROOT
TORSDOF 0
