REMARK  Name = 162501
REMARK  7 active torsions:
REMARK  status: ('A' for Active; 'I' for Inactive)
REMARK    1  A    between atoms: C_2  and  N_16
REMARK    2  A    between atoms: C_3  and  C_20
REMARK    3  A    between atoms: C_5  and  N_8
REMARK    4  A    between atoms: C_20  and  O_21
REMARK    5  A    between atoms: O_21  and  P_22
REMARK    6  A    between atoms: P_22  and  O_24
REMARK    7  A    between atoms: P_22  and  O_26
REMARK                            x       y       z     vdW  Elec       q    Type
REMARK                         _______ _______ _______ _____ _____    ______ ____
ROOT
ATOM      1  O   UNL     1      -0.442   1.356   1.031  0.00  0.00    -0.339 OA
ATOM      2  C   UNL     1      -1.032   2.892  -0.690  0.00  0.00    -0.031 C 
ATOM      3  C   UNL     1      -1.577   1.871   0.309  0.00  0.00    +0.128 C 
ATOM      4  C   UNL     1       0.350   2.340  -0.983  0.00  0.00    +0.032 C 
ATOM      5  C   UNL     1       0.762   1.729   0.346  0.00  0.00    +0.197 C 
ENDROOT
BRANCH   5   8
ATOM      6  O   UNL     1       3.611   1.751   0.363  0.00  0.00    -0.252 OA
ATOM      7  O   UNL     1       3.818  -2.803  -0.245  0.00  0.00    -0.270 OA
ATOM      8  N   UNL     1       1.601   0.575   0.195  0.00  0.00    -0.219 N 
ATOM      9  N   UNL     1       3.699  -0.521   0.059  0.00  0.00    -0.236 N 
ATOM     10  C   UNL     1       0.997  -0.665   0.026  0.00  0.00    +0.071 C 
ATOM     11  C   UNL     1       3.008   0.685   0.217  0.00  0.00    +0.315 C 
ATOM     12  C   UNL     1       1.662  -1.817  -0.125  0.00  0.00    +0.047 C 
ATOM     13  C   UNL     1       3.148  -1.782  -0.112  0.00  0.00    +0.250 C 
ATOM     14  C   UNL     1       0.992  -3.141  -0.306  0.00  0.00    +0.037 C 
ATOM     15  H   UNL     1       4.682  -0.469   0.071  0.00  0.00    +0.159 HD
ENDBRANCH   5   8
BRANCH   2  16
ATOM     16  N   UNL     1      -0.947   4.213  -0.063  0.00  0.00    +0.384 N 
ATOM     17  H   UNL     1      -1.887   4.561   0.124  0.00  0.00    -0.089 HD
ATOM     18  H   UNL     1      -0.464   4.856  -0.689  0.00  0.00    -0.089 HD
ATOM     19  H   UNL     1      -0.431   4.140   0.814  0.00  0.00    -0.089 HD
ENDBRANCH   2  16
BRANCH   3  20
ATOM     20  C   UNL     1      -2.269   0.694  -0.372  0.00  0.00    +0.181 C 
BRANCH  20  21
ATOM     21  O   UNL     1      -2.732  -0.204   0.623  0.00  0.00    -0.271 OA
BRANCH  21  22
ATOM     22  P   UNL     1      -3.507  -1.544   0.152  0.00  0.00    +0.473 P 
ATOM     23  O   UNL     1      -3.962  -2.439   1.268  0.00  0.00    -0.227 OA
BRANCH  22  24
ATOM     24  O   UNL     1      -2.491  -2.223  -0.908  0.00  0.00    -0.303 OA
ATOM     25  H   UNL     1      -2.253  -1.574  -1.588  0.00  0.00    +0.222 HD
ENDBRANCH  22  24
BRANCH  22  26
ATOM     26  O   UNL     1      -4.690  -0.965  -0.785  0.00  0.00    -0.303 OA
ATOM     27  H   UNL     1      -4.309  -0.400  -1.476  0.00  0.00    +0.222 HD
ENDBRANCH  22  26
ENDBRANCH  21  22
ENDBRANCH  20  21
ENDBRANCH   3  20
TORSDOF 7
