REMARK  Name = 700
REMARK  3 active torsions:
REMARK  status: ('A' for Active; 'I' for Inactive)
REMARK    1  A    between atoms: N_1  and  CA_5
REMARK    2  A    between atoms: CA_5  and  C_6
REMARK    3  A    between atoms: C_6  and  O_7
REMARK                            x       y       z     vdW  Elec       q    Type
REMARK                         _______ _______ _______ _____ _____    ______ ____
ROOT
ATOM      1  N   GLY A   1      -1.846  -0.150  -0.004  0.00  0.00    +0.382 N 
ATOM      2  H1  GLY A   1      -2.583   0.554  -0.004  0.00  0.00    -0.089 HD
ATOM      3  H2  GLY A   1      -1.936  -0.737   0.825  0.00  0.00    -0.089 HD
ATOM      4  H3  GLY A   1      -1.929  -0.729  -0.840  0.00  0.00    -0.089 HD
ENDROOT
BRANCH   1   5
ATOM      5  CA  GLY A   1      -0.547   0.507   0.004  0.00  0.00    -0.054 C 
BRANCH   5   6
ATOM      6  C   GLY A   1       0.574  -0.520   0.004  0.00  0.00    +0.113 C 
BRANCH   6   7
ATOM      7  O   GLY A   1       1.820   0.164  -0.004  0.00  0.00    -0.384 OA
ATOM      8  H   GLY A   1       2.543  -0.482  -0.005  0.00  0.00    +0.210 HD
ENDBRANCH   6   7
ENDBRANCH   5   6
ENDBRANCH   1   5
TORSDOF 3
