REMARK  Name = 446185
REMARK  3 active torsions:
REMARK  status: ('A' for Active; 'I' for Inactive)
REMARK    1  A    between atoms: N_1  and  C_11
REMARK    2  A    between atoms: C_4  and  C_7
REMARK    3  A    between atoms: C_11  and  C_12
REMARK                            x       y       z     vdW  Elec       q    Type
REMARK                         _______ _______ _______ _____ _____    ______ ____
ROOT
ATOM      1  N   UNL     1       0.022  -1.247  -0.590  0.00  0.00    -0.243 NA
ATOM      2  N   UNL     1       1.639  -1.614   0.853  0.00  0.00    -0.255 NA
ATOM      3  C   UNL     1       0.971  -0.331  -0.891  0.00  0.00    +0.121 C 
ATOM      4  C   UNL     1       1.971  -0.576   0.020  0.00  0.00    +0.077 C 
ATOM      5  C   UNL     1       0.447  -1.997   0.453  0.00  0.00    +0.201 C 
ENDROOT
BRANCH   4   7
ATOM      6  S   UNL     1       4.465  -0.158   1.247  0.00  0.00    -0.085 S 
ATOM      7  C   UNL     1       3.234   0.170   0.097  0.00  0.00    +0.044 C 
ATOM      8  C   UNL     1       3.582   1.214  -0.737  0.00  0.00    +0.008 C 
ATOM      9  C   UNL     1       4.867   1.748  -0.428  0.00  0.00    +0.008 C 
ATOM     10  C   UNL     1       5.458   1.093   0.630  0.00  0.00    +0.035 C 
ENDBRANCH   4   7
BRANCH   1  11
ATOM     11  C   UNL     1      -1.262  -1.403  -1.281  0.00  0.00    +0.101 C 
BRANCH  11  12
ATOM     12  C   UNL     1      -2.331  -0.568  -0.661  0.00  0.00    -0.006 C 
ATOM     13  C   UNL     1      -2.546   0.736  -1.109  0.00  0.00    -0.003 C 
ATOM     14  C   UNL     1      -3.117  -1.091   0.365  0.00  0.00    -0.003 C 
ATOM     15  C   UNL     1      -4.332   0.993   0.498  0.00  0.00    -0.022 C 
ATOM     16  C   UNL     1      -3.547   1.516  -0.529  0.00  0.00    -0.005 C 
ATOM     17  C   UNL     1      -4.118  -0.311   0.945  0.00  0.00    -0.005 C 
ATOM     18  C   UNL     1      -5.402   1.827   1.117  0.00  0.00    +0.031 C 
ENDBRANCH  11  12
ENDBRANCH   1  11
TORSDOF 3
