REMARK  Name = 104625
REMARK  9 active torsions:
REMARK  status: ('A' for Active; 'I' for Inactive)
REMARK    1  A    between atoms: C_1  and  C_2
REMARK    2  A    between atoms: C_1  and  CA_11
REMARK    3  A    between atoms: C_2  and  C_4
REMARK    4  A    between atoms: C_2  and  C_8
REMARK    5  A    between atoms: C_4  and  O_5
REMARK    6  A    between atoms: C_8  and  O_9
REMARK    7  A    between atoms: CA_11  and  N_12
REMARK    8  A    between atoms: CA_11  and  C_17
REMARK    9  A    between atoms: C_17  and  O_18
REMARK                            x       y       z     vdW  Elec       q    Type
REMARK                         _______ _______ _______ _____ _____    ______ ____
ROOT
ATOM      1  C   UNL     1       0.298  -0.505   0.199  0.00  0.00    +0.011 C 
ENDROOT
BRANCH   1   2
ATOM      2  C   UNL     1      -1.067  -0.101  -0.389  0.00  0.00    +0.195 C 
BRANCH   2   4
ATOM      3  O   UNL     1      -1.574   1.645   1.248  0.00  0.00    -0.250 OA
ATOM      4  C   UNL     1      -1.433   1.295   0.085  0.00  0.00    +0.324 C 
BRANCH   4   5
ATOM      5  O   UNL     1      -1.608   2.131  -0.972  0.00  0.00    -0.480 OA
ATOM      6  H   UNL     1      -1.488   1.814  -1.845  0.00  0.00    +0.295 HD
ENDBRANCH   4   5
ENDBRANCH   2   4
BRANCH   2   8
ATOM      7  O   UNL     1      -3.111  -0.922   0.661  0.00  0.00    -0.250 OA
ATOM      8  C   UNL     1      -2.112  -1.135  -0.011  0.00  0.00    +0.324 C 
BRANCH   8   9
ATOM      9  O   UNL     1      -1.782  -2.358  -0.497  0.00  0.00    -0.480 OA
ATOM     10  H   UNL     1      -1.003  -2.465  -1.007  0.00  0.00    +0.295 HD
ENDBRANCH   8   9
ENDBRANCH   2   8
ENDBRANCH   1   2
BRANCH   1  11
ATOM     11  CA  UNL     1       1.471   0.381  -0.249  0.00  0.00    +0.037 C 
BRANCH  11  12
ATOM     12  N   UNL     1       1.594   0.322  -1.709  0.00  0.00    +0.389 N 
ATOM     13  H1  UNL     1       0.730   0.654  -2.137  0.00  0.00    -0.088 HD
ATOM     14  H2  UNL     1       1.768  -0.641  -1.997  0.00  0.00    -0.088 HD
ATOM     15  H3  UNL     1       2.371   0.912  -2.008  0.00  0.00    -0.088 HD
ENDBRANCH  11  12
BRANCH  11  17
ATOM     16  OXT UNL     1       3.716  -0.559  -0.353  0.00  0.00    -0.253 OA
ATOM     17  C   UNL     1       2.786  -0.125   0.316  0.00  0.00    +0.293 C 
BRANCH  17  18
ATOM     18  O   UNL     1       2.821  -0.071   1.672  0.00  0.00    -0.482 OA
ATOM     19  H   UNL     1       2.087   0.269   2.146  0.00  0.00    +0.295 HD
ENDBRANCH  17  18
ENDBRANCH  11  17
ENDBRANCH   1  11
TORSDOF 9
