REMARK  Name = 449186
REMARK  13 active torsions:
REMARK  status: ('A' for Active; 'I' for Inactive)
REMARK    1  A    between atoms: C_1  and  O_2
REMARK    2  A    between atoms: C_1  and  C_12
REMARK    3  A    between atoms: C_1  and  C_17
REMARK    4  A    between atoms: O_2  and  C_4
REMARK    5  A    between atoms: C_4  and  C_5
REMARK    6  A    between atoms: C_5  and  C_6
REMARK    7  A    between atoms: C_6  and  C_7
REMARK    8  A    between atoms: C_7  and  C_8
REMARK    9  A    between atoms: C_8  and  C_9
REMARK   10  A    between atoms: C_9  and  C_10
REMARK   11  A    between atoms: C_12  and  N_13
REMARK   12  A    between atoms: C_17  and  C_19
REMARK   13  A    between atoms: C_19  and  O_20
REMARK                            x       y       z     vdW  Elec       q    Type
REMARK                         _______ _______ _______ _____ _____    ______ ____
ROOT
ATOM      1  C   UNL     1      -1.887  -0.266   0.749  0.00  0.00    +0.160 C 
ENDROOT
BRANCH   1   2
ATOM      2  O   UNL     1      -1.466   0.774  -0.139  0.00  0.00    -0.454 OA
BRANCH   2   4
ATOM      3  O   UNL     1      -0.015   1.678   1.411  0.00  0.00    -0.250 OA
ATOM      4  C   UNL     1      -0.359   1.472   0.255  0.00  0.00    +0.317 C 
BRANCH   4   5
ATOM      5  C   UNL     1       0.362   1.982  -0.973  0.00  0.00    +0.110 C 
BRANCH   5   6
ATOM      6  C   UNL     1       1.869   2.135  -0.767  0.00  0.00    +0.012 C 
BRANCH   6   7
ATOM      7  C   UNL     1       2.557   0.798  -0.473  0.00  0.00    +0.001 C 
BRANCH   7   8
ATOM      8  C   UNL     1       4.058   0.986  -0.243  0.00  0.00    +0.000 C 
BRANCH   8   9
ATOM      9  C   UNL     1       4.742  -0.343   0.083  0.00  0.00    +0.000 C 
BRANCH   9  10
ATOM     10  C   UNL     1       6.235  -0.150   0.345  0.00  0.00    +0.000 C 
ATOM     11  C   UNL     1       6.912  -1.464   0.703  0.00  0.00    +0.000 C 
ENDBRANCH   9  10
ENDBRANCH   8   9
ENDBRANCH   7   8
ENDBRANCH   6   7
ENDBRANCH   5   6
ENDBRANCH   4   5
ENDBRANCH   2   4
ENDBRANCH   1   2
BRANCH   1  12
ATOM     12  C   UNL     1      -3.111  -0.966   0.166  0.00  0.00    -0.028 C 
BRANCH  12  13
ATOM     13  N   UNL     1      -4.246  -0.010   0.092  0.00  0.00    +0.388 N 
ATOM     14  C   UNL     1      -4.621   0.498   1.490  0.00  0.00    -0.096 C 
ATOM     15  C   UNL     1      -5.482  -0.681  -0.522  0.00  0.00    -0.096 C 
ATOM     16  C   UNL     1      -3.879   1.202  -0.775  0.00  0.00    -0.096 C 
ENDBRANCH  12  13
ENDBRANCH   1  12
BRANCH   1  17
ATOM     17  C   UNL     1      -0.727  -1.252   0.886  0.00  0.00    +0.151 C 
BRANCH  17  19
ATOM     18  O   UNL     1      -0.068  -1.261  -1.440  0.00  0.00    -0.250 OA
ATOM     19  C   UNL     1      -0.393  -1.889  -0.441  0.00  0.00    +0.317 C 
BRANCH  19  20
ATOM     20  O   UNL     1      -0.481  -3.243  -0.406  0.00  0.00    -0.480 OA
ATOM     21  H   UNL     1      -0.735  -3.675   0.385  0.00  0.00    +0.295 HD
ENDBRANCH  19  20
ENDBRANCH  17  19
ENDBRANCH   1  17
TORSDOF 13
