REMARK  Name = 447341
REMARK  7 active torsions:
REMARK  status: ('A' for Active; 'I' for Inactive)
REMARK    1  A    between atoms: C_1  and  N_2
REMARK    2  A    between atoms: C_1  and  C_12
REMARK    3  A    between atoms: C_1  and  C_24
REMARK    4  A    between atoms: C_6  and  C_9
REMARK    5  A    between atoms: C_12  and  C_13
REMARK    6  A    between atoms: C_13  and  C_14
REMARK    7  A    between atoms: C_24  and  O_25
REMARK                            x       y       z     vdW  Elec       q    Type
REMARK                         _______ _______ _______ _____ _____    ______ ____
ROOT
ATOM      1  C   UNL     1       1.512   2.245  -0.224  0.00  0.00    +0.089 C 
ENDROOT
BRANCH   1   2
ATOM      2  N   UNL     1       2.262   1.052   0.199  0.00  0.00    -0.246 NA
ATOM      3  N   UNL     1       3.494  -0.260   1.454  0.00  0.00    -0.251 NA
ATOM      4  C   UNL     1       2.398  -0.081  -0.522  0.00  0.00    +0.125 C 
ATOM      5  C   UNL     1       2.923   0.921   1.369  0.00  0.00    +0.201 C 
ATOM      6  C   UNL     1       3.171  -0.889   0.277  0.00  0.00    +0.124 C 
BRANCH   6   9
ATOM      7  O   UNL     1       3.333  -2.801  -1.105  0.00  0.00    -0.269 OA
ATOM      8  N   UNL     1       4.388  -2.884   0.914  0.00  0.00    -0.324 N 
ATOM      9  C   UNL     1       3.603  -2.218  -0.031  0.00  0.00    +0.257 C 
ATOM     10  H   UNL     1       4.703  -3.800   0.736  0.00  0.00    +0.145 HD
ATOM     11  H   UNL     1       4.625  -2.438   1.759  0.00  0.00    +0.145 HD
ENDBRANCH   6   9
ENDBRANCH   1   2
BRANCH   1  12
ATOM     12  C   UNL     1       0.005   1.984  -0.462  0.00  0.00    +0.023 C 
BRANCH  12  13
ATOM     13  C   UNL     1      -0.754   1.422   0.758  0.00  0.00    +0.028 C 
BRANCH  13  14
ATOM     14  C   UNL     1      -2.176   1.017   0.519  0.00  0.00    -0.022 C 
ATOM     15  C   UNL     1      -2.523  -0.283   0.117  0.00  0.00    -0.004 C 
ATOM     16  C   UNL     1      -3.159   1.989   0.711  0.00  0.00    -0.004 C 
ATOM     17  C   UNL     1      -3.885  -0.603  -0.092  0.00  0.00    -0.000 C 
ATOM     18  C   UNL     1      -1.547  -1.274  -0.080  0.00  0.00    -0.000 C 
ATOM     19  C   UNL     1      -4.499   1.674   0.505  0.00  0.00    -0.000 C 
ATOM     20  C   UNL     1      -4.861   0.387   0.106  0.00  0.00    -0.000 C 
ATOM     21  C   UNL     1      -4.232  -1.903  -0.493  0.00  0.00    -0.000 C 
ATOM     22  C   UNL     1      -1.909  -2.561  -0.479  0.00  0.00    -0.000 C 
ATOM     23  C   UNL     1      -3.249  -2.875  -0.686  0.00  0.00    -0.000 C 
ENDBRANCH  13  14
ENDBRANCH  12  13
ENDBRANCH   1  12
BRANCH   1  24
ATOM     24  C   UNL     1       2.156   2.872  -1.475  0.00  0.00    +0.153 C 
BRANCH  24  25
ATOM     25  O   UNL     1       3.552   3.070  -1.279  0.00  0.00    -0.381 OA
ATOM     26  H   UNL     1       3.938   3.465  -2.076  0.00  0.00    +0.210 HD
ENDBRANCH  24  25
ENDBRANCH   1  24
TORSDOF 7
