REMARK  Name = 160139
REMARK  11 active torsions:
REMARK  status: ('A' for Active; 'I' for Inactive)
REMARK    1  A    between atoms: N_1  and  CA_8
REMARK    2  A    between atoms: N_1  and  C_19
REMARK    3  A    between atoms: CA_10  and  C_15
REMARK    4  A    between atoms: C_15  and  O_16
REMARK    5  A    between atoms: C_19  and  C_20
REMARK    6  A    between atoms: C_20  and  C_21
REMARK    7  A    between atoms: C_21  and  C_22
REMARK    8  A    between atoms: C_22  and  CA_23
REMARK    9  A    between atoms: CA_23  and  N_24
REMARK   10  A    between atoms: CA_23  and  C_29
REMARK   11  A    between atoms: C_29  and  O_30
REMARK                            x       y       z     vdW  Elec       q    Type
REMARK                         _______ _______ _______ _____ _____    ______ ____
ROOT
ATOM      1  N   UNL     1       0.568   1.153   0.063  0.00  0.00    -0.362 NA
ATOM      2  H1  UNL     1       0.661   0.474   0.769  0.00  0.00    +0.127 HD
ATOM      3  H2  UNL     1       0.029   1.556   0.782  0.00  0.00    +0.127 HD
ENDROOT
BRANCH   1   8
ATOM      4  S   UNL     1      -0.520  -1.714  -0.035  0.00  0.00    -0.114 S 
ATOM      5  O   UNL     1      -2.371   2.550  -0.140  0.00  0.00    -0.273 OA
ATOM      6  N   UNL     1      -2.314   0.208  -0.409  0.00  0.00    -0.242 N 
ATOM      7  C   UNL     1      -1.170  -0.387  -1.076  0.00  0.00    +0.153 C 
ATOM      8  CA  UNL     1      -0.499   0.991  -0.941  0.00  0.00    +0.162 C 
ATOM      9  C   UNL     1      -1.883   1.487  -0.447  0.00  0.00    +0.249 C 
ATOM     10  CA  UNL     1      -3.382  -0.503   0.036  0.00  0.00    +0.124 C 
ATOM     11  C   UNL     1      -2.072  -2.673  -0.095  0.00  0.00    +0.083 C 
ATOM     12  C   UNL     1      -3.334  -1.851   0.155  0.00  0.00    -0.013 C 
ATOM     13  C   UNL     1      -4.502  -2.717   0.563  0.00  0.00    +0.029 C 
BRANCH  10  15
ATOM     14  OXT UNL     1      -4.743   0.714   1.558  0.00  0.00    -0.244 OA
ATOM     15  C   UNL     1      -4.569   0.263   0.444  0.00  0.00    +0.351 C 
BRANCH  15  16
ATOM     16  O   UNL     1      -5.410   0.375  -0.603  0.00  0.00    -0.476 OA
ATOM     17  H   UNL     1      -5.186  -0.010  -1.428  0.00  0.00    +0.295 HD
ENDBRANCH  15  16
ENDBRANCH  10  15
ENDBRANCH   1   8
BRANCH   1  19
ATOM     18  O   UNL     1       1.432   3.135  -0.778  0.00  0.00    -0.277 OA
ATOM     19  C   UNL     1       1.448   2.228   0.050  0.00  0.00    +0.207 C 
BRANCH  19  20
ATOM     20  C   UNL     1       2.465   2.139   1.176  0.00  0.00    +0.083 C 
BRANCH  20  21
ATOM     21  C   UNL     1       3.334   0.881   1.120  0.00  0.00    +0.008 C 
BRANCH  21  22
ATOM     22  C   UNL     1       4.135   0.789  -0.188  0.00  0.00    -0.011 C 
BRANCH  22  23
ATOM     23  CA  UNL     1       5.077  -0.421  -0.285  0.00  0.00    +0.036 C 
BRANCH  23  24
ATOM     24  N   UNL     1       6.080  -0.445   0.779  0.00  0.00    +0.389 N 
ATOM     25  H1  UNL     1       6.600   0.432   0.776  0.00  0.00    -0.088 HD
ATOM     26  H2  UNL     1       6.723  -1.222   0.624  0.00  0.00    -0.088 HD
ATOM     27  H3  UNL     1       5.617  -0.563   1.681  0.00  0.00    -0.088 HD
ENDBRANCH  23  24
BRANCH  23  29
ATOM     28  OXT UNL     1       4.466  -2.619   0.586  0.00  0.00    -0.253 OA
ATOM     29  C   UNL     1       4.323  -1.738  -0.253  0.00  0.00    +0.293 C 
BRANCH  29  30
ATOM     30  O   UNL     1       3.440  -1.845  -1.281  0.00  0.00    -0.482 OA
ATOM     31  H   UNL     1       3.359  -1.148  -1.903  0.00  0.00    +0.295 HD
ENDBRANCH  29  30
ENDBRANCH  23  29
ENDBRANCH  22  23
ENDBRANCH  21  22
ENDBRANCH  20  21
ENDBRANCH  19  20
ENDBRANCH   1  19
TORSDOF 11
