REMARK  Name = 447271
REMARK  5 active torsions:
REMARK  status: ('A' for Active; 'I' for Inactive)
REMARK    1  A    between atoms: C_1  and  O_18
REMARK    2  A    between atoms: C_4  and  N_11
REMARK    3  A    between atoms: O_18  and  C_21
REMARK    4  A    between atoms: C_19  and  C_25
REMARK    5  A    between atoms: C_22  and  O_28
REMARK                            x       y       z     vdW  Elec       q    Type
REMARK                         _______ _______ _______ _____ _____    ______ ____
ROOT
ATOM      1  C   UNL     1      -0.631  -1.614  -0.220  0.00  0.00    +0.137 C 
ATOM      2  C   UNL     1       0.015  -1.172  -1.375  0.00  0.00    +0.014 C 
ATOM      3  C   UNL     1       0.020  -1.549   1.012  0.00  0.00    +0.014 C 
ATOM      4  C   UNL     1       1.964  -0.603  -0.066  0.00  0.00    +0.078 C 
ATOM      5  C   UNL     1       1.313  -0.667  -1.297  0.00  0.00    +0.016 C 
ATOM      6  C   UNL     1       1.318  -1.044   1.089  0.00  0.00    +0.016 C 
ATOM      7  C   UNL     1      -0.665  -1.234  -2.703  0.00  0.00    +0.034 C 
ATOM      8  C   UNL     1      -0.656  -2.016   2.259  0.00  0.00    +0.034 C 
ENDROOT
BRANCH   4  11
ATOM      9  O   UNL     1       3.227   1.492  -1.734  0.00  0.00    -0.250 OA
ATOM     10  O   UNL     1       7.141   0.941   0.584  0.00  0.00    -0.268 OA
ATOM     11  N   UNL     1       3.308  -0.080   0.014  0.00  0.00    -0.142 N 
ATOM     12  N   UNL     1       4.039  -0.626   1.039  0.00  0.00    -0.164 NA
ATOM     13  N   UNL     1       5.176   1.215  -0.631  0.00  0.00    -0.233 N 
ATOM     14  C   UNL     1       3.840   0.896  -0.845  0.00  0.00    +0.333 C 
ATOM     15  C   UNL     1       5.267  -0.283   1.213  0.00  0.00    +0.176 C 
ATOM     16  C   UNL     1       5.970   0.692   0.352  0.00  0.00    +0.274 C 
ATOM     17  H   UNL     1       5.586   1.873  -1.238  0.00  0.00    +0.160 HD
ENDBRANCH   4  11
BRANCH   1  18
ATOM     18  O   UNL     1      -1.900  -2.109  -0.296  0.00  0.00    -0.454 OA
BRANCH  18  21
ATOM     19  C   UNL     1      -3.722   1.024   0.199  0.00  0.00    +0.014 C 
ATOM     20  C   UNL     1      -2.667   0.123   0.056  0.00  0.00    +0.036 C 
ATOM     21  C   UNL     1      -2.946  -1.216  -0.154  0.00  0.00    +0.145 C 
ATOM     22  C   UNL     1      -5.040   0.572   0.130  0.00  0.00    +0.130 C 
ATOM     23  C   UNL     1      -4.247  -1.683  -0.225  0.00  0.00    +0.041 C 
ATOM     24  C   UNL     1      -5.302  -0.782  -0.082  0.00  0.00    +0.039 C 
BRANCH  19  25
ATOM     25  C   UNL     1      -3.423   2.469   0.426  0.00  0.00    +0.025 C 
ATOM     26  C   UNL     1      -2.659   3.103  -0.751  0.00  0.00    +0.005 C 
ATOM     27  C   UNL     1      -2.656   2.711   1.739  0.00  0.00    +0.005 C 
ENDBRANCH  19  25
BRANCH  22  28
ATOM     28  O   UNL     1      -6.082   1.438   0.268  0.00  0.00    -0.506 OA
ATOM     29  H   UNL     1      -5.918   2.349   0.411  0.00  0.00    +0.292 HD
ENDBRANCH  22  28
ENDBRANCH  18  21
ENDBRANCH   1  18
TORSDOF 5
