REMARK  Name = 447936
REMARK  0 active torsions:
REMARK  status: ('A' for Active; 'I' for Inactive)
REMARK                            x       y       z     vdW  Elec       q    Type
REMARK                         _______ _______ _______ _____ _____    ______ ____
ROOT
ATOM      1  N   UNL     1       1.608  -0.785   0.000  0.00  0.00    -0.234 NA
ATOM      2  N   UNL     1       0.579   1.386   0.000  0.00  0.00    -0.234 NA
ATOM      3  N   UNL     1      -0.402  -1.999   0.000  0.00  0.00    -0.251 NA
ATOM      4  N   UNL     1      -1.844   1.302   0.000  0.00  0.00    -0.237 NA
ATOM      5  C   UNL     1       0.606   0.084   0.000  0.00  0.00    +0.165 C 
ATOM      6  C   UNL     1      -0.665  -0.736   0.000  0.00  0.00    +0.116 C 
ATOM      7  C   UNL     1      -1.868  -0.063   0.000  0.00  0.00    +0.138 C 
ATOM      8  C   UNL     1       0.910  -2.018   0.000  0.00  0.00    +0.202 C 
ATOM      9  C   UNL     1      -0.638   1.947   0.000  0.00  0.00    +0.204 C 
ATOM     10  C   UNL     1       3.032  -0.575  -0.001  0.00  0.00    +0.093 C 
ATOM     11  C   UNL     1       1.780   2.200   0.000  0.00  0.00    +0.093 C 
ATOM     12  N   UNL     1      -3.098  -0.744   0.000  0.00  0.00    -0.342 N 
ATOM     13  H   UNL     1      -3.941  -0.237   0.000  0.00  0.00    +0.144 HD
ATOM     14  H   UNL     1      -3.115  -1.728  -0.001  0.00  0.00    +0.144 HD
ENDROOT
TORSDOF 0
