REMARK  Name = 82313
REMARK  6 active torsions:
REMARK  status: ('A' for Active; 'I' for Inactive)
REMARK    1  A    between atoms: C_2  and  O_12
REMARK    2  A    between atoms: C_3  and  N_8
REMARK    3  A    between atoms: C_4  and  O_14
REMARK    4  A    between atoms: C_5  and  C_18
REMARK    5  A    between atoms: C_6  and  O_16
REMARK    6  A    between atoms: C_18  and  O_19
REMARK                            x       y       z     vdW  Elec       q    Type
REMARK                         _______ _______ _______ _____ _____    ______ ____
ROOT
ATOM      1  O   UNL     1      -1.232  -1.240  -0.367  0.00  0.00    -0.327 OA
ATOM      2  C   UNL     1      -0.051   1.310   0.274  0.00  0.00    +0.162 C 
ATOM      3  C   UNL     1       0.779   0.102  -0.167  0.00  0.00    +0.158 C 
ATOM      4  C   UNL     1      -1.490   1.185  -0.237  0.00  0.00    +0.169 C 
ATOM      5  C   UNL     1      -2.084  -0.188   0.100  0.00  0.00    +0.176 C 
ATOM      6  C   UNL     1       0.077  -1.208   0.205  0.00  0.00    +0.253 C 
ENDROOT
BRANCH   3   8
ATOM      7  O   UNL     1       3.226  -0.884  -1.380  0.00  0.00    -0.275 OA
ATOM      8  N   UNL     1       2.114   0.153   0.383  0.00  0.00    -0.299 N 
ATOM      9  C   UNL     1       3.225  -0.347  -0.276  0.00  0.00    +0.223 C 
ATOM     10  C   UNL     1       4.494  -0.142   0.509  0.00  0.00    +0.095 C 
ATOM     11  H   UNL     1       2.240   0.563   1.269  0.00  0.00    +0.150 HD
ENDBRANCH   3   8
BRANCH   2  12
ATOM     12  O   UNL     1       0.531   2.492  -0.280  0.00  0.00    -0.380 OA
ATOM     13  H   UNL     1       1.443   2.581   0.037  0.00  0.00    +0.211 HD
ENDBRANCH   2  12
BRANCH   4  14
ATOM     14  O   UNL     1      -2.263   2.220   0.366  0.00  0.00    -0.379 OA
ATOM     15  H   UNL     1      -1.877   3.082   0.145  0.00  0.00    +0.211 HD
ENDBRANCH   4  14
BRANCH   6  16
ATOM     16  O   UNL     1       0.045  -1.371   1.621  0.00  0.00    -0.359 OA
ATOM     17  H   UNL     1      -0.402  -2.204   1.841  0.00  0.00    +0.213 HD
ENDBRANCH   6  16
BRANCH   5  18
ATOM     18  C   UNL     1      -3.449  -0.397  -0.550  0.00  0.00    +0.169 C 
BRANCH  18  19
ATOM     19  O   UNL     1      -3.921  -1.685  -0.201  0.00  0.00    -0.379 OA
ATOM     20  H   UNL     1      -4.789  -1.832  -0.607  0.00  0.00    +0.211 HD
ENDBRANCH  18  19
ENDBRANCH   5  18
TORSDOF 6
