REMARK  Name = 3082729
REMARK  8 active torsions:
REMARK  status: ('A' for Active; 'I' for Inactive)
REMARK    1  A    between atoms: C_1  and  N_2
REMARK    2  A    between atoms: C_1  and  C_7
REMARK    3  A    between atoms: C_1  and  C_10
REMARK    4  A    between atoms: C_7  and  O_8
REMARK    5  A    between atoms: C_10  and  S_11
REMARK    6  A    between atoms: S_11  and  P_12
REMARK    7  A    between atoms: P_12  and  O_14
REMARK    8  A    between atoms: P_12  and  O_16
REMARK                            x       y       z     vdW  Elec       q    Type
REMARK                         _______ _______ _______ _____ _____    ______ ____
ROOT
ATOM      1  C   UNK     1      -1.821  -0.713   0.445  0.00  0.00    +0.047 C 
ENDROOT
BRANCH   1   2
ATOM      2  N   UNK     1      -2.608  -1.836  -0.069  0.00  0.00    +0.389 N 
ATOM      3  H   UNK     1      -2.212  -2.712   0.271  0.00  0.00    -0.088 HD
ATOM      4  H   UNK     1      -2.588  -1.826  -1.088  0.00  0.00    -0.088 HD
ATOM      5  H   UNK     1      -3.572  -1.750   0.253  0.00  0.00    -0.088 HD
ENDBRANCH   1   2
BRANCH   1   7
ATOM      6  O   UNK     1      -2.493   0.846  -1.277  0.00  0.00    -0.253 OA
ATOM      7  C   UNK     1      -2.445   0.564  -0.085  0.00  0.00    +0.294 C 
BRANCH   7   8
ATOM      8  O   UNK     1      -2.918   1.387   0.885  0.00  0.00    -0.482 OA
ATOM      9  H   UNK     1      -2.861   1.131   1.785  0.00  0.00    +0.295 HD
ENDBRANCH   7   8
ENDBRANCH   1   7
BRANCH   1  10
ATOM     10  C   UNK     1      -0.358  -0.862   0.022  0.00  0.00    +0.058 C 
BRANCH  10  11
ATOM     11  S   UNK     1       0.665   0.526   0.609  0.00  0.00    -0.033 S 
BRANCH  11  12
ATOM     12  P   UNK     1       2.594   0.101  -0.084  0.00  0.00    +0.387 P 
ATOM     13  O   UNK     1       2.631   0.006  -1.586  0.00  0.00    -0.246 OA
BRANCH  12  14
ATOM     14  O   UNK     1       3.143  -1.241   0.643  0.00  0.00    -0.316 OA
ATOM     15  H   UNK     1       3.098  -1.129   1.605  0.00  0.00    +0.221 HD
ENDBRANCH  12  14
BRANCH  12  16
ATOM     16  O   UNK     1       3.611   1.223   0.497  0.00  0.00    -0.316 OA
ATOM     17  H   UNK     1       3.550   1.245   1.465  0.00  0.00    +0.221 HD
ENDBRANCH  12  16
ENDBRANCH  11  12
ENDBRANCH  10  11
ENDBRANCH   1  10
TORSDOF 8
