REMARK  Name = 440104
REMARK  4 active torsions:
REMARK  status: ('A' for Active; 'I' for Inactive)
REMARK    1  A    between atoms: C_1  and  C_9
REMARK    2  A    between atoms: C_6  and  O_7
REMARK    3  A    between atoms: C_9  and  O_10
REMARK    4  A    between atoms: C_9  and  C_13
REMARK                            x       y       z     vdW  Elec       q    Type
REMARK                         _______ _______ _______ _____ _____    ______ ____
ROOT
ATOM      1  C   UNL     1      -0.336   0.379   0.007  0.00  0.00    +0.019 C 
ATOM      2  C   UNL     1       0.541   1.167  -0.739  0.00  0.00    +0.002 C 
ATOM      3  C   UNL     1       0.151  -0.706   0.736  0.00  0.00    +0.002 C 
ATOM      4  C   UNL     1       1.903   0.871  -0.755  0.00  0.00    +0.036 C 
ATOM      5  C   UNL     1       1.514  -1.003   0.719  0.00  0.00    +0.036 C 
ATOM      6  C   UNL     1       2.390  -0.215  -0.027  0.00  0.00    +0.134 C 
ENDROOT
BRANCH   6   7
ATOM      7  O   UNL     1       3.720  -0.504  -0.044  0.00  0.00    -0.506 OA
ATOM      8  H   UNL     1       4.308   0.026  -0.545  0.00  0.00    +0.292 HD
ENDBRANCH   6   7
BRANCH   1   9
ATOM      9  C   UNL     1      -1.792   0.696   0.025  0.00  0.00    +0.225 C 
BRANCH   9  10
ATOM     10  O   UNL     1      -2.198   1.059   1.352  0.00  0.00    -0.368 OA
ATOM     11  H   UNL     1      -1.652   1.798   1.666  0.00  0.00    +0.212 HD
ENDBRANCH   9  10
BRANCH   9  13
ATOM     12  N   UNL     1      -3.269  -1.317  -0.826  0.00  0.00    -0.193 NA
ATOM     13  C   UNL     1      -2.624  -0.428  -0.450  0.00  0.00    +0.107 C 
ENDBRANCH   9  13
ENDBRANCH   1   9
TORSDOF 4
