REMARK  Name = 233240
REMARK  2 active torsions:
REMARK  status: ('A' for Active; 'I' for Inactive)
REMARK    1  A    between atoms: C_5  and  C_13
REMARK    2  A    between atoms: C_13  and  O_14
REMARK                            x       y       z     vdW  Elec       q    Type
REMARK                         _______ _______ _______ _____ _____    ______ ____
ROOT
ATOM      1  N   UNL     1       0.487   1.152   0.000  0.00  0.00    -0.309 N 
ATOM      2  N   UNL     1       0.589  -1.068   0.000  0.00  0.00    -0.309 N 
ATOM      3  C   UNL     1      -0.816   0.726   0.000  0.00  0.00    +0.059 C 
ATOM      4  C   UNL     1      -0.726  -0.664   0.000  0.00  0.00    +0.059 C 
ATOM      5  C   UNL     1       1.289   0.044   0.000  0.00  0.00    +0.246 C 
ATOM      6  C   UNL     1      -2.029   1.415   0.000  0.00  0.00    +0.016 C 
ATOM      7  C   UNL     1      -1.906  -1.427   0.000  0.00  0.00    +0.016 C 
ATOM      8  C   UNL     1      -3.193   0.640   0.001  0.00  0.00    +0.001 C 
ATOM      9  C   UNL     1      -3.135  -0.756   0.000  0.00  0.00    +0.001 C 
ATOM     10  H   UNL     1       0.792   2.088   0.000  0.00  0.00    +0.149 HD
ATOM     11  H   UNL     1       0.932  -1.991  -0.001  0.00  0.00    +0.149 HD
ENDROOT
BRANCH   5  13
ATOM     12  O   UNL     1       3.449   1.073   0.000  0.00  0.00    -0.247 OA
ATOM     13  C   UNL     1       2.714   0.059   0.000  0.00  0.00    +0.352 C 
BRANCH  13  14
ATOM     14  O   UNL     1       3.276  -1.194   0.001  0.00  0.00    -0.478 OA
ATOM     15  H   UNL     1       2.728  -1.953   0.001  0.00  0.00    +0.295 HD
ENDBRANCH  13  14
ENDBRANCH   5  13
TORSDOF 2
