REMARK  Name = 983
REMARK  9 active torsions:
REMARK  status: ('A' for Active; 'I' for Inactive)
REMARK    1  A    between atoms: P_1  and  O_3
REMARK    2  A    between atoms: P_1  and  O_5
REMARK    3  A    between atoms: P_1  and  O_12
REMARK    4  A    between atoms: O_5  and  P_6
REMARK    5  A    between atoms: P_6  and  O_8
REMARK    6  A    between atoms: P_6  and  O_10
REMARK    7  A    between atoms: O_12  and  P_13
REMARK    8  A    between atoms: P_13  and  O_15
REMARK    9  A    between atoms: P_13  and  O_17
REMARK                            x       y       z     vdW  Elec       q    Type
REMARK                         _______ _______ _______ _____ _____    ______ ____
ROOT
ATOM      1  P   UNL     1       0.014  -1.108  -0.013  0.00  0.00    +0.492 P 
ATOM      2  O   UNL     1      -0.013  -1.652  -1.410  0.00  0.00    -0.226 OA
ENDROOT
BRANCH   1   3
ATOM      3  O   UNL     1      -0.502  -2.130   1.129  0.00  0.00    -0.302 OA
ATOM      4  H   UNL     1      -0.451  -1.698   1.996  0.00  0.00    +0.222 HD
ENDBRANCH   1   3
BRANCH   1   5
ATOM      5  O   UNL     1      -0.876   0.216   0.231  0.00  0.00    -0.186 OA
BRANCH   5   6
ATOM      6  P   UNL     1      -2.460   0.482   0.059  0.00  0.00    +0.481 P 
ATOM      7  O   UNL     1      -3.345  -0.381   0.909  0.00  0.00    -0.227 OA
BRANCH   6   8
ATOM      8  O   UNL     1      -2.607   2.070   0.323  0.00  0.00    -0.302 OA
ATOM      9  H   UNL     1      -2.003   2.553  -0.264  0.00  0.00    +0.222 HD
ENDBRANCH   6   8
BRANCH   6  10
ATOM     10  O   UNL     1      -2.692   0.348  -1.535  0.00  0.00    -0.302 OA
ATOM     11  H   UNL     1      -2.079   0.938  -2.001  0.00  0.00    +0.222 HD
ENDBRANCH   6  10
ENDBRANCH   5   6
ENDBRANCH   1   5
BRANCH   1  12
ATOM     12  O   UNL     1       1.477  -0.676   0.519  0.00  0.00    -0.186 OA
BRANCH  12  13
ATOM     13  P   UNL     1       2.528   0.414  -0.043  0.00  0.00    +0.481 P 
ATOM     14  O   UNL     1       3.003   0.177  -1.446  0.00  0.00    -0.227 OA
BRANCH  13  15
ATOM     15  O   UNL     1       3.696   0.417   1.075  0.00  0.00    -0.302 OA
ATOM     16  H   UNL     1       3.307   0.576   1.949  0.00  0.00    +0.222 HD
ENDBRANCH  13  15
BRANCH  13  17
ATOM     17  O   UNL     1       1.776   1.823   0.202  0.00  0.00    -0.302 OA
ATOM     18  H   UNL     1       1.506   1.888   1.132  0.00  0.00    +0.222 HD
ENDBRANCH  13  17
ENDBRANCH  12  13
ENDBRANCH   1  12
TORSDOF 9
