REMARK  Name = 67874
REMARK  2 active torsions:
REMARK  status: ('A' for Active; 'I' for Inactive)
REMARK    1  A    between atoms: C_1  and  C_10
REMARK    2  A    between atoms: C_6  and  O_11
REMARK                            x       y       z     vdW  Elec       q    Type
REMARK                         _______ _______ _______ _____ _____    ______ ____
ROOT
ATOM      1  C   UNL     1      -0.455   0.001  -0.001  0.00  0.00    +0.072 C 
ATOM      2  C   UNL     1       0.242   1.208   0.001  0.00  0.00    +0.007 C 
ATOM      3  C   UNL     1       0.242  -1.208  -0.002  0.00  0.00    +0.007 C 
ATOM      4  C   UNL     1       1.637   1.208   0.000  0.00  0.00    +0.037 C 
ATOM      5  C   UNL     1       1.637  -1.208  -0.003  0.00  0.00    +0.037 C 
ATOM      6  C   UNL     1       2.334   0.000  -0.001  0.00  0.00    +0.134 C 
ENDROOT
BRANCH   1  10
ATOM      7  F   UNL     1      -2.470   1.255   0.000  0.00  0.00    -0.166 F 
ATOM      8  F   UNL     1      -2.471  -0.628  -1.087  0.00  0.00    -0.166 F 
ATOM      9  F   UNL     1      -2.445  -0.631   1.094  0.00  0.00    -0.166 F 
ATOM     10  C   UNL     1      -1.947   0.000  -0.001  0.00  0.00    +0.419 C 
ENDBRANCH   1  10
BRANCH   6  11
ATOM     11  O   UNL     1       3.695   0.001  -0.001  0.00  0.00    -0.506 OA
ATOM     12  H   UNL     1       4.163   0.813   0.000  0.00  0.00    +0.292 HD
ENDBRANCH   6  11
TORSDOF 2
