REMARK  Name = 445085
REMARK  17 active torsions:
REMARK  status: ('A' for Active; 'I' for Inactive)
REMARK    1  A    between atoms: C_1  and  C_3
REMARK    2  A    between atoms: C_1  and  N_19
REMARK    3  A    between atoms: C_4  and  C_11
REMARK    4  A    between atoms: C_5  and  O_9
REMARK    5  A    between atoms: C_11  and  O_12
REMARK    6  A    between atoms: O_12  and  P_13
REMARK    7  A    between atoms: P_13  and  O_15
REMARK    8  A    between atoms: P_13  and  O_17
REMARK    9  A    between atoms: N_19  and  C_22
REMARK   10  A    between atoms: C_22  and  C_25
REMARK   11  A    between atoms: C_25  and  C_26
REMARK   12  A    between atoms: C_26  and  C_27
REMARK   13  A    between atoms: C_27  and  C_28
REMARK   14  A    between atoms: C_28  and  C_29
REMARK   15  A    between atoms: C_29  and  C_30
REMARK   16  A    between atoms: C_30  and  C_32
REMARK   17  A    between atoms: C_32  and  O_33
REMARK                            x       y       z     vdW  Elec       q    Type
REMARK                         _______ _______ _______ _____ _____    ______ ____
ROOT
ATOM      1  C   UNL     1       2.085  -1.103  -0.523  0.00  0.00    -0.051 C 
ENDROOT
BRANCH   1   3
ATOM      2  N   UNL     1       5.701   1.172  -0.022  0.00  0.00    -0.245 NA
ATOM      3  C   UNL     1       3.349  -0.305  -0.347  0.00  0.00    -0.009 C 
ATOM      4  C   UNL     1       3.314   0.935   0.280  0.00  0.00    +0.024 C 
ATOM      5  C   UNL     1       4.559  -0.808  -0.812  0.00  0.00    +0.141 C 
ATOM      6  C   UNL     1       5.696  -0.037  -0.627  0.00  0.00    +0.092 C 
ATOM      7  C   UNL     1       4.506   1.628   0.417  0.00  0.00    +0.096 C 
ATOM      8  C   UNL     1       7.022  -0.531  -1.107  0.00  0.00    +0.055 C 
BRANCH   5   9
ATOM      9  O   UNL     1       4.624  -2.017  -1.428  0.00  0.00    -0.505 OA
ATOM     10  H   UNL     1       3.846  -2.526  -1.545  0.00  0.00    +0.292 HD
ENDBRANCH   5   9
BRANCH   4  11
ATOM     11  C   UNL     1       2.047   1.523   0.798  0.00  0.00    +0.181 C 
BRANCH  11  12
ATOM     12  O   UNL     1       1.434   2.303  -0.223  0.00  0.00    -0.268 OA
BRANCH  12  13
ATOM     13  P   UNL     1       0.037   3.043   0.113  0.00  0.00    +0.473 P 
ATOM     14  O   UNL     1      -0.545   3.845  -1.014  0.00  0.00    -0.227 OA
BRANCH  13  15
ATOM     15  O   UNL     1      -0.893   1.827   0.637  0.00  0.00    -0.303 OA
ATOM     16  H   UNL     1      -0.442   1.365   1.361  0.00  0.00    +0.222 HD
ENDBRANCH  13  15
BRANCH  13  17
ATOM     17  O   UNL     1       0.356   3.875   1.462  0.00  0.00    -0.303 OA
ATOM     18  H   UNL     1       0.726   3.278   2.131  0.00  0.00    +0.222 HD
ENDBRANCH  13  17
ENDBRANCH  12  13
ENDBRANCH  11  12
ENDBRANCH   4  11
ENDBRANCH   1   3
BRANCH   1  19
ATOM     19  N   UNL     1       1.840  -1.988   0.606  0.00  0.00    +0.392 N 
ATOM     20  H   UNL     1       2.622  -2.636   0.698  0.00  0.00    -0.083 HD
ATOM     21  H   UNL     1       1.747  -1.422   1.450  0.00  0.00    -0.083 HD
BRANCH  19  22
ATOM     22  C   UNL     1       0.607  -2.747   0.411  0.00  0.00    -0.002 C 
ATOM     23  C   UNL     1       0.594  -3.999   1.276  0.00  0.00    -0.016 C 
BRANCH  22  25
ATOM     24  O   UNL     1      -0.497  -1.000   1.662  0.00  0.00    -0.298 OA
ATOM     25  C   UNL     1      -0.567  -1.841   0.766  0.00  0.00    +0.131 C 
BRANCH  25  26
ATOM     26  C   UNL     1      -1.844  -2.064  -0.032  0.00  0.00    +0.062 C 
BRANCH  26  27
ATOM     27  C   UNL     1      -2.978  -1.138   0.405  0.00  0.00    +0.008 C 
BRANCH  27  28
ATOM     28  C   UNL     1      -4.234  -1.359  -0.440  0.00  0.00    +0.001 C 
BRANCH  28  29
ATOM     29  C   UNL     1      -5.354  -0.398  -0.030  0.00  0.00    +0.012 C 
BRANCH  29  30
ATOM     30  C   UNL     1      -6.614  -0.571  -0.879  0.00  0.00    +0.109 C 
BRANCH  30  32
ATOM     31  O   UNL     1      -7.686   1.194   0.414  0.00  0.00    -0.250 OA
ATOM     32  C   UNL     1      -7.734   0.365  -0.485  0.00  0.00    +0.314 C 
BRANCH  32  33
ATOM     33  O   UNL     1      -8.825   0.196  -1.278  0.00  0.00    -0.480 OA
ATOM     34  H   UNL     1      -8.816  -0.452  -1.955  0.00  0.00    +0.295 HD
ENDBRANCH  32  33
ENDBRANCH  30  32
ENDBRANCH  29  30
ENDBRANCH  28  29
ENDBRANCH  27  28
ENDBRANCH  26  27
ENDBRANCH  25  26
ENDBRANCH  22  25
ENDBRANCH  19  22
ENDBRANCH   1  19
TORSDOF 17
