REMARK  Name = 657004
REMARK  5 active torsions:
REMARK  status: ('A' for Active; 'I' for Inactive)
REMARK    1  A    between atoms: N_3  and  C_13
REMARK    2  A    between atoms: C_13  and  CA_14
REMARK    3  A    between atoms: CA_14  and  N_15
REMARK    4  A    between atoms: CA_14  and  C_20
REMARK    5  A    between atoms: C_20  and  O_21
REMARK                            x       y       z     vdW  Elec       q    Type
REMARK                         _______ _______ _______ _____ _____    ______ ____
ROOT
ATOM      1  O   UNL     1       3.279   1.859   0.486  0.00  0.00    -0.267 OA
ATOM      2  O   UNL     1      -1.093   2.080  -0.986  0.00  0.00    -0.246 OA
ATOM      3  N   UNL     1      -0.124  -0.031  -0.700  0.00  0.00    -0.287 N 
ATOM      4  N   UNL     1       1.081   1.960  -0.250  0.00  0.00    -0.275 N 
ATOM      5  C   UNL     1       0.999  -0.735  -0.326  0.00  0.00    +0.042 A 
ATOM      6  C   UNL     1       1.115  -2.223  -0.318  0.00  0.00    +0.044 C 
ATOM      7  C   UNL     1       2.414  -2.448   0.467  0.00  0.00    +0.011 C 
ATOM      8  C   UNL     1       3.200  -1.135   0.402  0.00  0.00    +0.033 C 
ATOM      9  C   UNL     1       2.135  -0.157   0.067  0.00  0.00    +0.046 A 
ATOM     10  C   UNL     1       2.247   1.303   0.130  0.00  0.00    +0.258 A 
ATOM     11  C   UNL     1      -0.129   1.379  -0.673  0.00  0.00    +0.330 A 
ATOM     12  H   UNL     1       1.106   2.944  -0.220  0.00  0.00    +0.173 HD
ENDROOT
BRANCH   3  13
ATOM     13  C   UNL     1      -1.317  -0.753  -1.125  0.00  0.00    +0.099 C 
BRANCH  13  14
ATOM     14  CA  UNL     1      -2.218  -1.040   0.079  0.00  0.00    +0.059 C 
BRANCH  14  15
ATOM     15  N   UNL     1      -3.433  -1.727  -0.357  0.00  0.00    +0.390 N 
ATOM     16  H1  UNL     1      -3.181  -2.588  -0.843  0.00  0.00    -0.088 HD
ATOM     17  H2  UNL     1      -3.958  -1.122  -0.987  0.00  0.00    -0.088 HD
ATOM     18  H3  UNL     1      -4.006  -1.951   0.456  0.00  0.00    -0.088 HD
ENDBRANCH  14  15
BRANCH  14  20
ATOM     19  OXT UNL     1      -3.670   0.870   0.518  0.00  0.00    -0.253 OA
ATOM     20  C   UNL     1      -2.667   0.225   0.790  0.00  0.00    +0.295 C 
BRANCH  20  21
ATOM     21  O   UNL     1      -1.820   0.573   1.796  0.00  0.00    -0.482 OA
ATOM     22  H   UNL     1      -1.062   0.051   1.972  0.00  0.00    +0.295 HD
ENDBRANCH  20  21
ENDBRANCH  14  20
ENDBRANCH  13  14
ENDBRANCH   3  13
TORSDOF 5
