REMARK  Name = 6857549
REMARK  4 active torsions:
REMARK  status: ('A' for Active; 'I' for Inactive)
REMARK    1  A    between atoms: CA_1  and  N_2
REMARK    2  A    between atoms: CA_1  and  C_8
REMARK    3  A    between atoms: CA_1  and  CB_9
REMARK    4  A    between atoms: CB_9  and  OG_10
REMARK                            x       y       z     vdW  Elec       q    Type
REMARK                         _______ _______ _______ _____ _____    ______ ____
ROOT
ATOM      1  CA  SER A   1      -0.285   0.537  -0.402  0.00  0.00    +0.070 C 
ENDROOT
BRANCH   1   2
ATOM      2  N   SER A   1      -0.215   2.005  -0.114  0.00  0.00    +0.391 N 
ATOM      3  H1  SER A   1      -1.078   2.453  -0.422  0.00  0.00    -0.088 HD
ATOM      4  H2  SER A   1       0.576   2.412  -0.613  0.00  0.00    -0.088 HD
ATOM      5  H3  SER A   1      -0.095   2.150   0.889  0.00  0.00    -0.088 HD
ENDBRANCH   1   2
BRANCH   1   8
ATOM      6  O   SER A   1       1.232  -0.240   1.266  0.00  0.00    -0.248 OA
ATOM      7  OXT SER A   1       1.632  -0.745  -0.922  0.00  0.00    -0.248 OA
ATOM      8  C   SER A   1       0.979  -0.228   0.030  0.00  0.00    +0.347 C 
ENDBRANCH   1   8
BRANCH   1   9
ATOM      9  CB  SER A   1      -1.599   0.034   0.187  0.00  0.00    +0.126 C 
BRANCH   9  10
ATOM     10  OG  SER A   1      -1.743  -1.362  -0.045  0.00  0.00    -0.384 OA
ATOM     11  H   SER A   1      -2.582  -1.668   0.334  0.00  0.00    +0.210 HD
ENDBRANCH   9  10
ENDBRANCH   1   9
TORSDOF 4
