REMARK  Name = 5287717
REMARK  9 active torsions:
REMARK  status: ('A' for Active; 'I' for Inactive)
REMARK    1  A    between atoms: N_2  and  CA_5
REMARK    2  A    between atoms: C_3  and  CA_21
REMARK    3  A    between atoms: CA_5  and  C_10
REMARK    4  A    between atoms: CA_5  and  C_20
REMARK    5  A    between atoms: CA_9  and  C_16
REMARK    6  A    between atoms: C_16  and  O_17
REMARK    7  A    between atoms: CA_21  and  C_22
REMARK    8  A    between atoms: CA_21  and  N_30
REMARK    9  A    between atoms: C_27  and  O_28
REMARK                            x       y       z     vdW  Elec       q    Type
REMARK                         _______ _______ _______ _____ _____    ______ ____
ROOT
ATOM      1  O   UNL     1       0.219   0.742  -2.043  0.00  0.00    -0.277 OA
ATOM      2  N   UNL     1       0.184   2.043  -0.121  0.00  0.00    -0.302 N 
ATOM      3  C   UNL     1       0.810   1.377  -1.171  0.00  0.00    +0.206 C 
ATOM      4  H   UNL     1       0.745   2.526   0.529  0.00  0.00    +0.150 HD
ENDROOT
BRANCH   2   5
ATOM      5  CA  UNL     1      -1.240   2.060   0.060  0.00  0.00    +0.127 C 
BRANCH   5  10
ATOM      6  S   UNL     1      -3.502   0.986   1.195  0.00  0.00    -0.164 S 
ATOM      7  N   UNL     1      -1.365  -0.398   0.379  0.00  0.00    +0.401 N 
ATOM      8  C   UNL     1      -3.782  -0.677   0.487  0.00  0.00    +0.030 C 
ATOM      9  CA  UNL     1      -2.528  -0.852  -0.389  0.00  0.00    +0.050 C 
ATOM     10  C   UNL     1      -1.696   0.911   0.954  0.00  0.00    +0.015 C 
ATOM     11  C   UNL     1      -3.895  -1.673   1.650  0.00  0.00    +0.009 C 
ATOM     12  C   UNL     1      -5.064  -0.681  -0.346  0.00  0.00    +0.009 C 
ATOM     13  H1  UNL     1      -0.555  -0.312  -0.235  0.00  0.00    -0.082 HD
ATOM     14  H2  UNL     1      -1.139  -1.066   1.115  0.00  0.00    -0.082 HD
BRANCH   9  16
ATOM     15  OXT UNL     1      -1.294  -2.927  -0.456  0.00  0.00    -0.253 OA
ATOM     16  C   UNL     1      -2.277  -2.275  -0.776  0.00  0.00    +0.294 C 
BRANCH  16  17
ATOM     17  O   UNL     1      -3.292  -2.750  -1.539  0.00  0.00    -0.482 OA
ATOM     18  H   UNL     1      -4.018  -2.197  -1.749  0.00  0.00    +0.295 HD
ENDBRANCH  16  17
ENDBRANCH   9  16
ENDBRANCH   5  10
BRANCH   5  20
ATOM     19  O   UNL     1      -0.889   4.011   1.440  0.00  0.00    -0.287 OA
ATOM     20  C   UNL     1      -1.604   3.401   0.648  0.00  0.00    +0.225 C 
ENDBRANCH   5  20
ENDBRANCH   2   5
BRANCH   3  21
ATOM     21  CA  UNL     1       2.328   1.533  -1.145  0.00  0.00    +0.036 C 
BRANCH  21  22
ATOM     22  C   UNL     1       2.974   0.402  -0.372  0.00  0.00    -0.034 C 
ATOM     23  C   UNL     1       3.743   0.698   0.739  0.00  0.00    -0.003 C 
ATOM     24  C   UNL     1       2.780  -0.900  -0.796  0.00  0.00    -0.003 C 
ATOM     25  C   UNL     1       4.338  -0.344   1.450  0.00  0.00    +0.036 C 
ATOM     26  C   UNL     1       3.375  -1.942  -0.085  0.00  0.00    +0.036 C 
ATOM     27  C   UNL     1       4.154  -1.664   1.038  0.00  0.00    +0.134 C 
BRANCH  27  28
ATOM     28  O   UNL     1       4.734  -2.680   1.733  0.00  0.00    -0.506 OA
ATOM     29  H   UNL     1       5.258  -2.493   2.488  0.00  0.00    +0.292 HD
ENDBRANCH  27  28
ENDBRANCH  21  22
BRANCH  21  30
ATOM     30  N   UNL     1       2.788   1.599  -2.535  0.00  0.00    +0.390 N 
ATOM     31  H1  UNL     1       2.325   2.375  -3.010  0.00  0.00    -0.088 HD
ATOM     32  H2  UNL     1       2.561   0.726  -3.010  0.00  0.00    -0.088 HD
ATOM     33  H3  UNL     1       3.797   1.744  -2.552  0.00  0.00    -0.088 HD
ENDBRANCH  21  30
ENDBRANCH   3  21
TORSDOF 9
