REMARK  Name = 447638
REMARK  5 active torsions:
REMARK  status: ('A' for Active; 'I' for Inactive)
REMARK    1  A    between atoms: C_1  and  O_2
REMARK    2  A    between atoms: C_1  and  C_4
REMARK    3  A    between atoms: C_1  and  C_7
REMARK    4  A    between atoms: C_4  and  S_5
REMARK    5  A    between atoms: C_7  and  O_8
REMARK                            x       y       z     vdW  Elec       q    Type
REMARK                         _______ _______ _______ _____ _____    ______ ____
ROOT
ATOM      1  C   UNL     1      -0.128  -0.368   0.492  0.00  0.00    +0.150 C 
ENDROOT
BRANCH   1   2
ATOM      2  O   UNL     1      -0.201  -1.419  -0.473  0.00  0.00    -0.381 OA
ATOM      3  H   UNL     1       0.330  -2.173  -0.171  0.00  0.00    +0.210 HD
ENDBRANCH   1   2
BRANCH   1   4
ATOM      4  C   UNL     1       1.341  -0.046   0.779  0.00  0.00    +0.085 C 
BRANCH   4   5
ATOM      5  S   UNL     1       2.257   0.626  -0.645  0.00  0.00    -0.165 S 
ATOM      6  H   UNL     1       3.543   0.875  -0.280  0.00  0.00    +0.102 HD
ENDBRANCH   4   5
ENDBRANCH   1   4
BRANCH   1   7
ATOM      7  C   UNL     1      -0.962   0.820   0.019  0.00  0.00    +0.167 C 
BRANCH   7   8
ATOM      8  O   UNL     1      -2.307   0.387  -0.172  0.00  0.00    -0.379 OA
ATOM      9  H   UNL     1      -2.847   1.135  -0.473  0.00  0.00    +0.211 HD
ENDBRANCH   7   8
ENDBRANCH   1   7
TORSDOF 5
