REMARK  Name = 997
REMARK  4 active torsions:
REMARK  status: ('A' for Active; 'I' for Inactive)
REMARK    1  A    between atoms: C_1  and  C_2
REMARK    2  A    between atoms: C_1  and  C_9
REMARK    3  A    between atoms: C_9  and  C_11
REMARK    4  A    between atoms: C_11  and  O_12
REMARK                            x       y       z     vdW  Elec       q    Type
REMARK                         _______ _______ _______ _____ _____    ______ ____
ROOT
ATOM      1  C   UNL     1       0.540   0.854  -0.433  0.00  0.00    +0.102 C 
ENDROOT
BRANCH   1   2
ATOM      2  C   UNL     1      -0.878   0.445  -0.220  0.00  0.00    -0.014 C 
ATOM      3  C   UNL     1      -1.555  -0.267  -1.210  0.00  0.00    -0.004 C 
ATOM      4  C   UNL     1      -1.528   0.773   0.971  0.00  0.00    -0.004 C 
ATOM      5  C   UNL     1      -2.881  -0.650  -1.011  0.00  0.00    -0.000 C 
ATOM      6  C   UNL     1      -2.854   0.390   1.170  0.00  0.00    -0.000 C 
ATOM      7  C   UNL     1      -3.531  -0.322   0.179  0.00  0.00    -0.000 C 
ENDBRANCH   1   2
BRANCH   1   9
ATOM      8  O   UNL     1       1.181  -1.294   0.544  0.00  0.00    -0.284 OA
ATOM      9  C   UNL     1       1.494  -0.214   0.064  0.00  0.00    +0.252 C 
BRANCH   9  11
ATOM     10  O   UNL     1       3.377   1.146  -0.457  0.00  0.00    -0.242 OA
ATOM     11  C   UNL     1       2.962   0.084  -0.038  0.00  0.00    +0.374 C 
BRANCH  11  12
ATOM     12  O   UNL     1       3.673  -0.945   0.441  0.00  0.00    -0.475 OA
ATOM     13  H   UNL     1       3.235  -1.719   0.737  0.00  0.00    +0.295 HD
ENDBRANCH  11  12
ENDBRANCH   9  11
ENDBRANCH   1   9
TORSDOF 4
