REMARK  Name = 449201
REMARK  8 active torsions:
REMARK  status: ('A' for Active; 'I' for Inactive)
REMARK    1  A    between atoms: C_2  and  C_14
REMARK    2  A    between atoms: C_3  and  C_7
REMARK    3  A    between atoms: C_5  and  C_11
REMARK    4  A    between atoms: C_7  and  O_8
REMARK    5  A    between atoms: C_11  and  O_12
REMARK    6  A    between atoms: C_14  and  N_16
REMARK    7  A    between atoms: C_14  and  C_20
REMARK    8  A    between atoms: C_20  and  C_21
REMARK                            x       y       z     vdW  Elec       q    Type
REMARK                         _______ _______ _______ _____ _____    ______ ____
ROOT
ATOM      1  O   UNL     1       0.607  -1.438   0.232  0.00  0.00    -0.345 OA
ATOM      2  C   UNL     1       0.241  -0.120  -0.207  0.00  0.00    +0.144 C 
ATOM      3  C   UNL     1       1.233   0.841   0.433  0.00  0.00    +0.131 C 
ATOM      4  C   UNL     1       2.480  -0.009   0.532  0.00  0.00    +0.055 C 
ATOM      5  C   UNL     1       1.922  -1.393   0.790  0.00  0.00    +0.214 C 
ENDROOT
BRANCH   3   7
ATOM      6  O   UNL     1       0.864   2.305  -1.438  0.00  0.00    -0.250 OA
ATOM      7  C   UNL     1       1.461   2.063  -0.398  0.00  0.00    +0.319 C 
BRANCH   7   8
ATOM      8  O   UNL     1       2.420   2.837   0.184  0.00  0.00    -0.444 OA
ATOM      9  C   UNL     1       2.740   4.047  -0.512  0.00  0.00    +0.256 C 
ENDBRANCH   7   8
ENDBRANCH   3   7
BRANCH   5  11
ATOM     10  O   UNL     1       2.298  -3.171  -0.795  0.00  0.00    -0.248 OA
ATOM     11  C   UNL     1       2.714  -2.456   0.105  0.00  0.00    +0.341 C 
BRANCH  11  12
ATOM     12  O   UNL     1       3.966  -2.527   0.619  0.00  0.00    -0.479 OA
ATOM     13  H   UNL     1       4.222  -1.948   1.310  0.00  0.00    +0.295 HD
ENDBRANCH  11  12
ENDBRANCH   5  11
BRANCH   2  14
ATOM     14  C   UNL     1      -1.202   0.151   0.184  0.00  0.00    +0.099 C 
BRANCH  14  16
ATOM     15  O   UNL     1      -2.341   0.553  -2.455  0.00  0.00    -0.275 OA
ATOM     16  N   UNL     1      -2.076  -0.741  -0.539  0.00  0.00    -0.304 N 
ATOM     17  C   UNL     1      -2.572  -0.460  -1.801  0.00  0.00    +0.223 C 
ATOM     18  C   UNL     1      -3.438  -1.570  -2.335  0.00  0.00    +0.095 C 
ATOM     19  H   UNL     1      -2.334  -1.591  -0.113  0.00  0.00    +0.149 HD
ENDBRANCH  14  16
BRANCH  14  20
ATOM     20  C   UNL     1      -1.387   0.010   1.704  0.00  0.00    +0.022 C 
BRANCH  20  21
ATOM     21  C   UNL     1      -2.834   0.203   2.206  0.00  0.00    +0.002 C 
ATOM     22  C   UNL     1      -3.281   1.644   1.944  0.00  0.00    +0.000 C 
ATOM     23  C   UNL     1      -3.815  -0.768   1.548  0.00  0.00    +0.000 C 
ENDBRANCH  20  21
ENDBRANCH  14  20
ENDBRANCH   2  14
TORSDOF 8
