REMARK  Name = 4604
REMARK  2 active torsions:
REMARK  status: ('A' for Active; 'I' for Inactive)
REMARK    1  A    between atoms: C_6  and  C_12
REMARK    2  A    between atoms: C_12  and  O_13
REMARK                            x       y       z     vdW  Elec       q    Type
REMARK                         _______ _______ _______ _____ _____    ______ ____
ROOT
ATOM      1  O   UNL     1      -1.968   2.293   0.004  0.00  0.00    -0.251 OA
ATOM      2  O   UNL     1      -1.901  -2.299   0.003  0.00  0.00    -0.193 OA
ATOM      3  N   UNL     1       0.042   1.164  -0.025  0.00  0.00    -0.237 N 
ATOM      4  N   UNL     1      -1.955  -0.017   0.003  0.00  0.00    -0.185 N 
ATOM      5  N   UNL     1       0.107  -1.202  -0.026  0.00  0.00    -0.299 NA
ATOM      6  C   UNL     1       0.685  -0.048  -0.034  0.00  0.00    +0.277 C 
ATOM      7  C   UNL     1      -1.342   1.234  -0.005  0.00  0.00    +0.320 C 
ATOM      8  C   UNL     1      -1.275  -1.239  -0.006  0.00  0.00    +0.274 C 
ATOM      9  H   UNL     1       0.571   1.995  -0.032  0.00  0.00    +0.159 HD
ATOM     10  H   UNL     1      -2.939  -0.043   0.017  0.00  0.00    +0.171 HD
ENDROOT
BRANCH   6  12
ATOM     11  O   UNL     1       2.824   0.052  -1.068  0.00  0.00    -0.241 OA
ATOM     12  C   UNL     1       2.164   0.021  -0.055  0.00  0.00    +0.384 C 
BRANCH  12  13
ATOM     13  O   UNL     1       2.619   0.040   1.210  0.00  0.00    -0.474 OA
ATOM     14  H   UNL     1       2.015   0.012   1.925  0.00  0.00    +0.296 HD
ENDBRANCH  12  13
ENDBRANCH   6  12
TORSDOF 2
