REMARK  Name = 448173
REMARK  12 active torsions:
REMARK  status: ('A' for Active; 'I' for Inactive)
REMARK    1  A    between atoms: C_2  and  O_7
REMARK    2  A    between atoms: C_3  and  O_9
REMARK    3  A    between atoms: C_4  and  O_11
REMARK    4  A    between atoms: C_5  and  C_21
REMARK    5  A    between atoms: C_6  and  O_13
REMARK    6  A    between atoms: O_13  and  C_14
REMARK    7  A    between atoms: C_14  and  C_15
REMARK    8  A    between atoms: C_15  and  C_16
REMARK    9  A    between atoms: C_16  and  C_17
REMARK   10  A    between atoms: C_17  and  C_18
REMARK   11  A    between atoms: C_18  and  C_19
REMARK   12  A    between atoms: C_21  and  O_22
REMARK                            x       y       z     vdW  Elec       q    Type
REMARK                         _______ _______ _______ _____ _____    ______ ____
ROOT
ATOM      1  O   UNL     1      -1.599   0.721   0.194  0.00  0.00    -0.326 OA
ATOM      2  C   UNL     1      -3.853  -1.030  -0.131  0.00  0.00    +0.172 C 
ATOM      3  C   UNL     1      -4.002   0.425   0.316  0.00  0.00    +0.169 C 
ATOM      4  C   UNL     1      -2.446  -1.555   0.155  0.00  0.00    +0.196 C 
ATOM      5  C   UNL     1      -2.849   1.278  -0.218  0.00  0.00    +0.176 C 
ATOM      6  C   UNL     1      -1.377  -0.581  -0.343  0.00  0.00    +0.266 C 
ENDROOT
BRANCH   2   7
ATOM      7  O   UNL     1      -4.807  -1.813   0.588  0.00  0.00    -0.379 OA
ATOM      8  H   UNL     1      -5.700  -1.480   0.407  0.00  0.00    +0.211 HD
ENDBRANCH   2   7
BRANCH   3   9
ATOM      9  O   UNL     1      -5.237   0.943  -0.171  0.00  0.00    -0.379 OA
ATOM     10  H   UNL     1      -5.969   0.404   0.166  0.00  0.00    +0.211 HD
ENDBRANCH   3   9
BRANCH   4  11
ATOM     11  O   UNL     1      -2.260  -2.802  -0.515  0.00  0.00    -0.378 OA
ATOM     12  H   UNL     1      -2.930  -3.434  -0.212  0.00  0.00    +0.211 HD
ENDBRANCH   4  11
BRANCH   6  13
ATOM     13  O   UNL     1      -0.105  -1.068   0.085  0.00  0.00    -0.329 OA
BRANCH  13  14
ATOM     14  C   UNL     1       0.949  -0.215  -0.339  0.00  0.00    +0.145 C 
BRANCH  14  15
ATOM     15  C   UNL     1       2.270  -0.778   0.165  0.00  0.00    +0.032 C 
BRANCH  15  16
ATOM     16  C   UNL     1       3.454   0.084  -0.270  0.00  0.00    +0.003 C 
BRANCH  16  17
ATOM     17  C   UNL     1       4.780  -0.514   0.207  0.00  0.00    +0.000 C 
BRANCH  17  18
ATOM     18  C   UNL     1       6.000   0.325  -0.182  0.00  0.00    +0.000 C 
BRANCH  18  19
ATOM     19  C   UNL     1       7.318  -0.233   0.356  0.00  0.00    +0.000 C 
ATOM     20  C   UNL     1       8.489   0.672   0.004  0.00  0.00    +0.000 C 
ENDBRANCH  18  19
ENDBRANCH  17  18
ENDBRANCH  16  17
ENDBRANCH  15  16
ENDBRANCH  14  15
ENDBRANCH  13  14
ENDBRANCH   6  13
BRANCH   5  21
ATOM     21  C   UNL     1      -2.912   2.707   0.311  0.00  0.00    +0.169 C 
BRANCH  21  22
ATOM     22  O   UNL     1      -1.814   3.431  -0.213  0.00  0.00    -0.379 OA
ATOM     23  H   UNL     1      -1.841   4.343   0.115  0.00  0.00    +0.211 HD
ENDBRANCH  21  22
ENDBRANCH   5  21
TORSDOF 12
