REMARK  Name = 4286
REMARK  5 active torsions:
REMARK  status: ('A' for Active; 'I' for Inactive)
REMARK    1  A    between atoms: N_2  and  C_7
REMARK    2  A    between atoms: N_3  and  C_17
REMARK    3  A    between atoms: C_17  and  C_18
REMARK    4  A    between atoms: C_23  and  N_24
REMARK    5  A    between atoms: N_24  and  C_27
REMARK                            x       y       z     vdW  Elec       q    Type
REMARK                         _______ _______ _______ _____ _____    ______ ____
ROOT
ATOM      1  O   UNL     1      -0.848  -1.286   1.194  0.00  0.00    -0.253 OA
ATOM      2  N   UNL     1      -1.794  -0.958  -0.900  0.00  0.00    -0.292 N 
ATOM      3  N   UNL     1       0.155  -2.158  -0.708  0.00  0.00    -0.285 N 
ATOM      4  C   UNL     1      -0.831  -1.451  -0.025  0.00  0.00    +0.301 C 
ATOM      5  H   UNL     1      -1.693  -1.145  -1.861  0.00  0.00    +0.151 HD
ATOM      6  H   UNL     1       0.085  -2.239  -1.687  0.00  0.00    +0.151 HD
ENDROOT
BRANCH   2   7
ATOM      7  C   UNL     1      -2.936  -0.185  -0.464  0.00  0.00    +0.058 C 
ATOM      8  C   UNL     1      -5.024   1.033  -1.218  0.00  0.00    +0.002 C 
ATOM      9  C   UNL     1      -5.011  -0.191   0.986  0.00  0.00    +0.002 C 
ATOM     10  C   UNL     1      -3.674   1.929   0.714  0.00  0.00    +0.002 C 
ATOM     11  C   UNL     1      -3.809   0.208  -1.677  0.00  0.00    +0.018 C 
ATOM     12  C   UNL     1      -3.797  -1.011   0.517  0.00  0.00    +0.018 C 
ATOM     13  C   UNL     1      -2.464   1.101   0.247  0.00  0.00    +0.018 C 
ATOM     14  C   UNL     1      -5.861   0.196  -0.236  0.00  0.00    +0.000 C 
ATOM     15  C   UNL     1      -4.531   2.305  -0.507  0.00  0.00    +0.000 C 
ATOM     16  C   UNL     1      -4.519   1.087   1.685  0.00  0.00    +0.000 C 
ENDBRANCH   2   7
BRANCH   3  17
ATOM     17  C   UNL     1       1.277  -2.778  -0.042  0.00  0.00    +0.118 C 
BRANCH  17  18
ATOM     18  C   UNL     1       2.451  -1.842   0.066  0.00  0.00    -0.002 C 
ATOM     19  C   UNL     1       2.572  -1.022   1.179  0.00  0.00    -0.001 C 
ATOM     20  C   UNL     1       3.398  -1.814  -0.948  0.00  0.00    -0.001 C 
ATOM     21  C   UNL     1       3.661  -0.157   1.280  0.00  0.00    +0.019 C 
ATOM     22  C   UNL     1       4.487  -0.949  -0.848  0.00  0.00    +0.019 C 
ATOM     23  C   UNL     1       4.619  -0.120   0.267  0.00  0.00    +0.084 C 
BRANCH  23  24
ATOM     24  N   UNL     1       5.710   0.748   0.367  0.00  0.00    -0.214 NA
BRANCH  24  27
ATOM     25  N   UNL     1       6.654   2.844  -0.048  0.00  0.00    -0.370 N 
ATOM     26  N   UNL     1       4.511   2.512  -0.757  0.00  0.00    -0.370 N 
ATOM     27  C   UNL     1       5.604   1.960  -0.126  0.00  0.00    +0.193 C 
ATOM     28  H   UNL     1       7.497   2.571   0.381  0.00  0.00    +0.159 HD
ATOM     29  H   UNL     1       6.563   3.751  -0.421  0.00  0.00    +0.159 HD
ATOM     30  H   UNL     1       3.691   1.979  -0.877  0.00  0.00    +0.159 HD
ATOM     31  H   UNL     1       4.549   3.438  -1.087  0.00  0.00    +0.159 HD
ENDBRANCH  24  27
ENDBRANCH  23  24
ENDBRANCH  17  18
ENDBRANCH   3  17
TORSDOF 5
