REMARK  Name = 314123
REMARK  1 active torsions:
REMARK  status: ('A' for Active; 'I' for Inactive)
REMARK    1  A    between atoms: C_8  and  C_15
REMARK                            x       y       z     vdW  Elec       q    Type
REMARK                         _______ _______ _______ _____ _____    ______ ____
ROOT
ATOM      1  N   UNL     1       0.500   2.191  -0.202  0.00  0.00    -0.279 N 
ATOM      2  N   UNL     1      -0.849   2.041  -0.196  0.00  0.00    -0.173 NA
ATOM      3  C   UNL     1       0.184   0.028  -0.002  0.00  0.00    +0.033 A 
ATOM      4  C   UNL     1       0.753  -1.343   0.129  0.00  0.00    -0.001 C 
ATOM      5  C   UNL     1       1.132   1.009  -0.088  0.00  0.00    +0.061 A 
ATOM      6  C   UNL     1       2.240  -0.939   0.100  0.00  0.00    -0.013 C 
ATOM      7  C   UNL     1       2.440   0.464  -0.030  0.00  0.00    +0.084 C 
ATOM      8  C   UNL     1      -1.029   0.712  -0.073  0.00  0.00    +0.102 A 
ATOM      9  C   UNL     1       3.330  -1.786   0.186  0.00  0.00    -0.004 C 
ATOM     10  C   UNL     1       3.691   1.037  -0.076  0.00  0.00    -0.016 C 
ATOM     11  C   UNL     1       4.609  -1.218   0.140  0.00  0.00    -0.001 C 
ATOM     12  C   UNL     1       4.786   0.175   0.011  0.00  0.00    -0.004 C 
ATOM     13  H   UNL     1       0.960   3.058  -0.280  0.00  0.00    +0.189 HD
ENDROOT
BRANCH   8  15
ATOM     14  N   UNL     1      -4.921  -0.944   0.061  0.00  0.00    -0.242 NA
ATOM     15  C   UNL     1      -2.353   0.149  -0.027  0.00  0.00    +0.022 C 
ATOM     16  C   UNL     1      -2.579  -1.133  -0.512  0.00  0.00    +0.022 C 
ATOM     17  C   UNL     1      -3.404   0.887   0.501  0.00  0.00    +0.022 C 
ATOM     18  C   UNL     1      -3.871  -1.629  -0.445  0.00  0.00    +0.099 C 
ATOM     19  C   UNL     1      -4.659   0.300   0.522  0.00  0.00    +0.099 C 
ENDBRANCH   8  15
TORSDOF 1
