REMARK  Name = 5497045
REMARK  6 active torsions:
REMARK  status: ('A' for Active; 'I' for Inactive)
REMARK    1  A    between atoms: C_1  and  C_5
REMARK    2  A    between atoms: C_1  and  N_15
REMARK    3  A    between atoms: N_4  and  C_7
REMARK    4  A    between atoms: C_7  and  C_11
REMARK    5  A    between atoms: C_16  and  O_18
REMARK    6  A    between atoms: O_18  and  C_19
REMARK                            x       y       z     vdW  Elec       q    Type
REMARK                         _______ _______ _______ _____ _____    ______ ____
ROOT
ATOM      1  C   UNL     1      -0.187  -1.496  -0.182  0.00  0.00    +0.151 C 
ATOM      2  C   UNL     1      -0.611  -2.946  -0.007  0.00  0.00    +0.031 C 
ENDROOT
BRANCH   1   5
ATOM      3  O   UNL     1      -0.915  -0.258   1.770  0.00  0.00    -0.273 OA
ATOM      4  N   UNL     1      -2.190  -0.145  -0.165  0.00  0.00    -0.297 N 
ATOM      5  C   UNL     1      -1.106  -0.563   0.595  0.00  0.00    +0.241 C 
ATOM      6  H   UNL     1      -2.253  -0.445  -1.101  0.00  0.00    +0.150 HD
BRANCH   4   7
ATOM      7  C   UNL     1      -3.227   0.711   0.360  0.00  0.00    +0.148 C 
ATOM      8  C   UNL     1      -2.891   2.177   0.136  0.00  0.00    +0.031 C 
BRANCH   7  11
ATOM      9  O   UNL     1      -4.631  -0.494  -1.213  0.00  0.00    -0.274 OA
ATOM     10  N   UNL     1      -5.620   1.013   0.210  0.00  0.00    -0.327 N 
ATOM     11  C   UNL     1      -4.537   0.342  -0.318  0.00  0.00    +0.237 C 
ATOM     12  H   UNL     1      -6.522   0.854  -0.152  0.00  0.00    +0.145 HD
ATOM     13  H   UNL     1      -5.492   1.652   0.947  0.00  0.00    +0.145 HD
ENDBRANCH   7  11
ENDBRANCH   4   7
ENDBRANCH   1   5
BRANCH   1  15
ATOM     14  O   UNL     1       1.742   0.451  -1.142  0.00  0.00    -0.226 OA
ATOM     15  N   UNL     1       1.158  -1.284   0.284  0.00  0.00    -0.264 N 
ATOM     16  C   UNL     1       2.012  -0.329  -0.234  0.00  0.00    +0.402 C 
ATOM     17  H   UNL     1       1.490  -1.854   1.015  0.00  0.00    +0.153 HD
BRANCH  16  18
ATOM     18  O   UNL     1       3.212  -0.376   0.416  0.00  0.00    -0.442 OA
BRANCH  18  19
ATOM     19  C   UNL     1       4.198   0.566  -0.021  0.00  0.00    +0.138 C 
ATOM     20  C   UNL     1       3.645   1.976   0.178  0.00  0.00    +0.044 C 
ATOM     21  C   UNL     1       4.500   0.303  -1.496  0.00  0.00    +0.044 C 
ATOM     22  C   UNL     1       5.448   0.353   0.829  0.00  0.00    +0.044 C 
ENDBRANCH  18  19
ENDBRANCH  16  18
ENDBRANCH   1  15
TORSDOF 6
