REMARK  Name = 447227
REMARK  10 active torsions:
REMARK  status: ('A' for Active; 'I' for Inactive)
REMARK    1  A    between atoms: N_2  and  C_14
REMARK    2  A    between atoms: C_3  and  C_5
REMARK    3  A    between atoms: C_5  and  C_6
REMARK    4  A    between atoms: C_5  and  O_12
REMARK    5  A    between atoms: C_6  and  C_9
REMARK    6  A    between atoms: C_9  and  O_10
REMARK    7  A    between atoms: C_14  and  C_15
REMARK    8  A    between atoms: C_15  and  C_18
REMARK    9  A    between atoms: N_17  and  C_20
REMARK   10  A    between atoms: C_21  and  S_22
REMARK                            x       y       z     vdW  Elec       q    Type
REMARK                         _______ _______ _______ _____ _____    ______ ____
ROOT
ATOM      1  O   UNL     1      -2.012   1.776   1.413  0.00  0.00    -0.272 OA
ATOM      2  N   UNL     1      -0.885   1.669  -0.613  0.00  0.00    -0.302 N 
ATOM      3  C   UNL     1      -1.900   1.335   0.270  0.00  0.00    +0.249 C 
ATOM      4  H   UNL     1      -0.887   1.258  -1.508  0.00  0.00    +0.150 HD
ENDROOT
BRANCH   3   5
ATOM      5  C   UNL     1      -2.879   0.318  -0.312  0.00  0.00    +0.189 C 
BRANCH   5   6
ATOM      6  C   UNL     1      -2.526  -1.165   0.006  0.00  0.00    +0.060 C 
ATOM      7  C   UNL     1      -2.554  -1.427   1.525  0.00  0.00    +0.005 C 
ATOM      8  C   UNL     1      -3.596  -2.076  -0.642  0.00  0.00    +0.005 C 
BRANCH   6   9
ATOM      9  C   UNL     1      -1.137  -1.544  -0.565  0.00  0.00    +0.140 C 
BRANCH   9  10
ATOM     10  O   UNL     1      -0.816  -2.900  -0.273  0.00  0.00    -0.382 OA
ATOM     11  H   UNL     1       0.056  -3.112  -0.641  0.00  0.00    +0.210 HD
ENDBRANCH   9  10
ENDBRANCH   6   9
ENDBRANCH   5   6
BRANCH   5  12
ATOM     12  O   UNL     1      -4.158   0.634   0.231  0.00  0.00    -0.376 OA
ATOM     13  H   UNL     1      -4.818   0.010  -0.112  0.00  0.00    +0.211 HD
ENDBRANCH   5  12
ENDBRANCH   3   5
BRANCH   2  14
ATOM     14  C   UNL     1       0.176   2.592  -0.281  0.00  0.00    +0.099 C 
BRANCH  14  15
ATOM     15  C   UNL     1       1.376   1.891   0.341  0.00  0.00    +0.107 C 
BRANCH  15  18
ATOM     16  O   UNL     1       1.612   0.623  -1.709  0.00  0.00    -0.275 OA
ATOM     17  N   UNL     1       3.108   0.250   0.037  0.00  0.00    -0.282 N 
ATOM     18  C   UNL     1       2.019   0.860  -0.575  0.00  0.00    +0.228 C 
ATOM     19  H   UNL     1       3.340   0.524   0.954  0.00  0.00    +0.155 HD
BRANCH  17  20
ATOM     20  C   UNL     1       3.873  -0.708  -0.561  0.00  0.00    +0.070 C 
ATOM     21  C   UNL     1       4.916  -1.279   0.050  0.00  0.00    +0.043 C 
BRANCH  21  22
ATOM     22  S   UNL     1       5.383  -0.850   1.657  0.00  0.00    -0.140 S 
ATOM     23  H   UNL     1       6.468  -1.583   2.025  0.00  0.00    +0.107 HD
ENDBRANCH  21  22
ENDBRANCH  17  20
ENDBRANCH  15  18
ENDBRANCH  14  15
ENDBRANCH   2  14
TORSDOF 10
