REMARK  Name = 7167925
REMARK  4 active torsions:
REMARK  status: ('A' for Active; 'I' for Inactive)
REMARK    1  A    between atoms: C_2  and  O_8
REMARK    2  A    between atoms: C_3  and  O_10
REMARK    3  A    between atoms: C_4  and  O_12
REMARK    4  A    between atoms: C_6  and  O_14
REMARK                            x       y       z     vdW  Elec       q    Type
REMARK                         _______ _______ _______ _____ _____    ______ ____
ROOT
ATOM      1  O   UNL     1       0.603   1.173  -0.062  0.00  0.00    -0.329 OA
ATOM      2  C   UNL     1      -1.155  -1.034   0.457  0.00  0.00    +0.171 C 
ATOM      3  C   UNL     1      -1.677   0.374   0.168  0.00  0.00    +0.167 C 
ATOM      4  C   UNL     1       0.236  -1.238  -0.146  0.00  0.00    +0.196 C 
ATOM      5  C   UNL     1      -0.641   1.414   0.608  0.00  0.00    +0.147 C 
ATOM      6  C   UNL     1       1.173  -0.096   0.257  0.00  0.00    +0.266 C 
ATOM      7  C   UNL     1      -1.070   2.838   0.273  0.00  0.00    +0.035 C 
ENDROOT
BRANCH   2   8
ATOM      8  O   UNL     1      -2.072  -1.985  -0.075  0.00  0.00    -0.379 OA
ATOM      9  H   UNL     1      -2.948  -1.844   0.316  0.00  0.00    +0.211 HD
ENDBRANCH   2   8
BRANCH   3  10
ATOM     10  O   UNL     1      -1.914   0.519  -1.234  0.00  0.00    -0.379 OA
ATOM     11  H   UNL     1      -2.569  -0.136  -1.521  0.00  0.00    +0.211 HD
ENDBRANCH   3  10
BRANCH   4  12
ATOM     12  O   UNL     1       0.790  -2.461   0.339  0.00  0.00    -0.378 OA
ATOM     13  H   UNL     1       0.209  -3.198   0.094  0.00  0.00    +0.211 HD
ENDBRANCH   4  12
BRANCH   6  14
ATOM     14  O   UNL     1       2.400  -0.265  -0.453  0.00  0.00    -0.326 OA
ATOM     15  C   UNL     1       3.326   0.760  -0.132  0.00  0.00    +0.177 C 
ENDBRANCH   6  14
TORSDOF 4
