REMARK  Name = 2354
REMARK  6 active torsions:
REMARK  status: ('A' for Active; 'I' for Inactive)
REMARK    1  A    between atoms: N_1  and  C_3
REMARK    2  A    between atoms: N_1  and  N_16
REMARK    3  A    between atoms: C_4  and  C_11
REMARK    4  A    between atoms: N_15  and  N_16
REMARK    5  A    between atoms: N_15  and  C_18
REMARK    6  A    between atoms: C_17  and  C_25
REMARK                            x       y       z     vdW  Elec       q    Type
REMARK                         _______ _______ _______ _____ _____    ______ ____
ROOT
ATOM      1  N   UNL     1       1.030  -1.538  -0.005  0.00  0.00    -0.243 N 
ATOM      2  H   UNL     1       0.997  -2.522  -0.010  0.00  0.00    +0.170 HD
ENDROOT
BRANCH   1   3
ATOM      3  C   UNL     1       2.274  -0.892  -0.002  0.00  0.00    +0.061 C 
ATOM      4  C   UNL     1       4.758   0.397   0.001  0.00  0.00    +0.031 C 
ATOM      5  C   UNL     1       2.345   0.505   0.010  0.00  0.00    +0.016 C 
ATOM      6  C   UNL     1       3.457  -1.639  -0.012  0.00  0.00    +0.016 C 
ATOM      7  C   UNL     1       3.583   1.148   0.012  0.00  0.00    +0.004 C 
ATOM      8  C   UNL     1       4.695  -0.997  -0.011  0.00  0.00    +0.004 C 
BRANCH   4  11
ATOM      9  N   UNL     1       6.144   2.457   0.012  0.00  0.00    -0.343 N 
ATOM     10  N   UNL     1       7.161   0.353  -0.013  0.00  0.00    -0.285 NA
ATOM     11  C   UNL     1       6.049   1.067   0.001  0.00  0.00    +0.117 C 
ATOM     12  H   UNL     1       7.029   2.890   0.012  0.00  0.00    +0.144 HD
ATOM     13  H   UNL     1       5.327   3.006   0.019  0.00  0.00    +0.144 HD
ATOM     14  H   UNL     1       8.036   0.804  -0.013  0.00  0.00    +0.188 HD
ENDBRANCH   4  11
ENDBRANCH   1   3
BRANCH   1  15
ATOM     15  N   UNL     1      -0.118  -0.841  -0.001  0.00  0.00    -0.018 NA
BRANCH  15  16
ATOM     16  N   UNL     1      -1.053  -1.670  -0.005  0.00  0.00    -0.129 NA
BRANCH  16  18
ATOM     17  C   UNL     1      -4.738   0.321   0.007  0.00  0.00    +0.031 C 
ATOM     18  C   UNL     1      -2.283  -1.005  -0.001  0.00  0.00    +0.087 C 
ATOM     19  C   UNL     1      -4.125  -0.004  -1.203  0.00  0.00    +0.004 C 
ATOM     20  C   UNL     1      -4.123  -0.018   1.213  0.00  0.00    +0.004 C 
ATOM     21  C   UNL     1      -2.897  -0.666  -1.207  0.00  0.00    +0.018 C 
ATOM     22  C   UNL     1      -2.896  -0.680   1.209  0.00  0.00    +0.018 C 
BRANCH  17  25
ATOM     23  N   UNL     1      -6.653   1.367  -1.177  0.00  0.00    -0.343 N 
ATOM     24  N   UNL     1      -6.593   1.324   1.159  0.00  0.00    -0.285 NA
ATOM     25  C   UNL     1      -6.016   1.014   0.011  0.00  0.00    +0.117 C 
ATOM     26  H   UNL     1      -7.519   1.836  -1.151  0.00  0.00    +0.144 HD
ATOM     27  H   UNL     1      -6.238   1.148  -2.042  0.00  0.00    +0.144 HD
ATOM     28  H   UNL     1      -7.459   1.793   1.164  0.00  0.00    +0.188 HD
ENDBRANCH  17  25
ENDBRANCH  16  18
ENDBRANCH  15  16
ENDBRANCH   1  15
TORSDOF 6
