REMARK  Name = 162636
REMARK  2 active torsions:
REMARK  status: ('A' for Active; 'I' for Inactive)
REMARK    1  A    between atoms: N_3  and  C_7
REMARK    2  A    between atoms: C_9  and  O_15
REMARK                            x       y       z     vdW  Elec       q    Type
REMARK                         _______ _______ _______ _____ _____    ______ ____
ROOT
ATOM      1  N   UNL     1       1.409   1.144   0.000  0.00  0.00    -0.305 N 
ATOM      2  N   UNL     1       1.713  -1.057   0.000  0.00  0.00    -0.305 N 
ATOM      3  C   UNL     1       0.150   0.601   0.000  0.00  0.00    +0.063 C 
ATOM      4  C   UNL     1       0.366  -0.774   0.000  0.00  0.00    +0.060 C 
ATOM      5  C   UNL     1      -1.121   1.177   0.000  0.00  0.00    +0.052 C 
ATOM      6  C   UNL     1       2.308   0.114   0.000  0.00  0.00    +0.204 C 
ATOM      7  C   UNL     1      -0.739  -1.641   0.000  0.00  0.00    +0.019 C 
ATOM      8  C   UNL     1      -2.210   0.299   0.001  0.00  0.00    +0.135 C 
ATOM      9  C   UNL     1      -2.025  -1.085   0.000  0.00  0.00    +0.038 C 
ATOM     10  H   UNL     1       1.627   2.105  -0.001  0.00  0.00    +0.150 HD
ATOM     11  H   UNL     1       2.138  -1.945   0.000  0.00  0.00    +0.150 HD
ENDROOT
BRANCH   6  12
ATOM     12  N   UNL     1       3.625   0.414   0.001  0.00  0.00    -0.291 NA
ATOM     13  H   UNL     1       3.916   1.355   0.000  0.00  0.00    +0.122 HD
ATOM     14  H   UNL     1       4.295  -0.308   0.001  0.00  0.00    +0.122 HD
ENDBRANCH   6  12
BRANCH   8  15
ATOM     15  O   UNL     1      -3.476   0.806   0.000  0.00  0.00    -0.505 OA
ATOM     16  H   UNL     1      -3.609   1.734   0.000  0.00  0.00    +0.292 HD
ENDBRANCH   8  15
TORSDOF 2
