REMARK  Name = 1102
REMARK  9 active torsions:
REMARK  status: ('A' for Active; 'I' for Inactive)
REMARK    1  A    between atoms: N_1  and  C_4
REMARK    2  A    between atoms: N_1  and  C_12
REMARK    3  A    between atoms: C_4  and  C_5
REMARK    4  A    between atoms: C_5  and  C_6
REMARK    5  A    between atoms: C_6  and  C_7
REMARK    6  A    between atoms: C_7  and  N_8
REMARK    7  A    between atoms: C_12  and  C_13
REMARK    8  A    between atoms: C_13  and  C_14
REMARK    9  A    between atoms: C_14  and  N_15
REMARK                            x       y       z     vdW  Elec       q    Type
REMARK                         _______ _______ _______ _____ _____    ______ ____
ROOT
ATOM      1  N   UNL     1      -0.632  -0.384  -0.018  0.00  0.00    +0.384 N 
ATOM      2  H   UNL     1      -0.639  -0.983   0.807  0.00  0.00    -0.085 HD
ATOM      3  H   UNL     1      -0.647  -0.949  -0.868  0.00  0.00    -0.085 HD
ENDROOT
BRANCH   1   4
ATOM      4  C   UNL     1       0.585   0.419  -0.015  0.00  0.00    -0.082 C 
BRANCH   4   5
ATOM      5  C   UNL     1       1.818  -0.484  -0.021  0.00  0.00    -0.026 C 
BRANCH   5   6
ATOM      6  C   UNL     1       3.107   0.344  -0.008  0.00  0.00    -0.026 C 
BRANCH   6   7
ATOM      7  C   UNL     1       4.379  -0.505   0.014  0.00  0.00    -0.086 C 
BRANCH   7   8
ATOM      8  N   UNL     1       5.589   0.309   0.024  0.00  0.00    +0.380 N 
ATOM      9  H   UNL     1       6.408  -0.300   0.038  0.00  0.00    -0.089 HD
ATOM     10  H   UNL     1       5.593   0.903   0.852  0.00  0.00    -0.089 HD
ATOM     11  H   UNL     1       5.614   0.892  -0.813  0.00  0.00    -0.089 HD
ENDBRANCH   7   8
ENDBRANCH   6   7
ENDBRANCH   5   6
ENDBRANCH   4   5
ENDBRANCH   1   4
BRANCH   1  12
ATOM     12  C   UNL     1      -1.815   0.464  -0.002  0.00  0.00    -0.084 C 
BRANCH  12  13
ATOM     13  C   UNL     1      -3.107  -0.355   0.003  0.00  0.00    -0.047 C 
BRANCH  13  14
ATOM     14  C   UNL     1      -4.366   0.516   0.001  0.00  0.00    -0.088 C 
BRANCH  14  15
ATOM     15  N   UNL     1      -5.558  -0.324   0.022  0.00  0.00    +0.380 N 
ATOM     16  H   UNL     1      -6.390   0.267   0.021  0.00  0.00    -0.089 HD
ATOM     17  H   UNL     1      -5.553  -0.901   0.863  0.00  0.00    -0.089 HD
ATOM     18  H   UNL     1      -5.566  -0.924  -0.802  0.00  0.00    -0.089 HD
ENDBRANCH  14  15
ENDBRANCH  13  14
ENDBRANCH  12  13
ENDBRANCH   1  12
TORSDOF 9
