REMARK  Name = 449346
REMARK  8 active torsions:
REMARK  status: ('A' for Active; 'I' for Inactive)
REMARK    1  A    between atoms: C_1  and  C_4
REMARK    2  A    between atoms: C_1  and  O_9
REMARK    3  A    between atoms: C_1  and  C_11
REMARK    4  A    between atoms: N_3  and  C_6
REMARK    5  A    between atoms: C_6  and  C_7
REMARK    6  A    between atoms: C_11  and  O_12
REMARK    7  A    between atoms: C_11  and  C_15
REMARK    8  A    between atoms: C_15  and  O_16
REMARK                            x       y       z     vdW  Elec       q    Type
REMARK                         _______ _______ _______ _____ _____    ______ ____
ROOT
ATOM      1  C   UNL     1      -0.706   0.887  -0.369  0.00  0.00    +0.225 C 
ENDROOT
BRANCH   1   4
ATOM      2  O   UNL     1       1.185   1.966   0.683  0.00  0.00    -0.272 OA
ATOM      3  N   UNL     1       1.585   0.242  -0.820  0.00  0.00    -0.302 N 
ATOM      4  C   UNL     1       0.778   1.112  -0.102  0.00  0.00    +0.252 C 
ATOM      5  H   UNL     1       1.156  -0.407  -1.424  0.00  0.00    +0.150 HD
BRANCH   3   6
ATOM      6  C   UNL     1       3.026   0.245  -0.719  0.00  0.00    +0.089 C 
BRANCH   6   7
ATOM      7  C   UNL     1       3.534  -0.687   0.374  0.00  0.00    +0.021 C 
ATOM      8  C   UNL     1       3.146  -2.139   0.136  0.00  0.00    +0.002 C 
ENDBRANCH   6   7
ENDBRANCH   3   6
ENDBRANCH   1   4
BRANCH   1   9
ATOM      9  O   UNL     1      -1.449   1.868   0.341  0.00  0.00    -0.374 OA
ATOM     10  H   UNL     1      -2.396   1.735   0.179  0.00  0.00    +0.211 HD
ENDBRANCH   1   9
BRANCH   1  11
ATOM     11  C   UNL     1      -1.150  -0.521   0.040  0.00  0.00    +0.246 C 
BRANCH  11  12
ATOM     12  O   UNL     1      -0.884  -0.708   1.425  0.00  0.00    -0.372 OA
ATOM     13  H   UNL     1       0.063  -0.585   1.592  0.00  0.00    +0.211 HD
ENDBRANCH  11  12
BRANCH  11  15
ATOM     14  O   UNL     1      -3.456  -0.929   0.698  0.00  0.00    -0.247 OA
ATOM     15  C   UNL     1      -2.636  -0.719  -0.187  0.00  0.00    +0.344 C 
BRANCH  15  16
ATOM     16  O   UNL     1      -2.973  -0.618  -1.499  0.00  0.00    -0.478 OA
ATOM     17  H   UNL     1      -2.311  -0.457  -2.141  0.00  0.00    +0.295 HD
ENDBRANCH  15  16
ENDBRANCH  11  15
ENDBRANCH   1  11
TORSDOF 8
