REMARK  Name = 17753979
REMARK  9 active torsions:
REMARK  status: ('A' for Active; 'I' for Inactive)
REMARK    1  A    between atoms: C_1  and  O_2
REMARK    2  A    between atoms: C_1  and  O_4
REMARK    3  A    between atoms: C_1  and  CA_11
REMARK    4  A    between atoms: O_4  and  P_5
REMARK    5  A    between atoms: P_5  and  O_7
REMARK    6  A    between atoms: P_5  and  O_9
REMARK    7  A    between atoms: CA_11  and  N_12
REMARK    8  A    between atoms: CA_11  and  C_17
REMARK    9  A    between atoms: C_17  and  O_18
REMARK                            x       y       z     vdW  Elec       q    Type
REMARK                         _______ _______ _______ _____ _____    ______ ____
ROOT
ATOM      1  C   UNL     1       0.137  -0.731  -0.155  0.00  0.00    +0.232 C 
ENDROOT
BRANCH   1   2
ATOM      2  O   UNL     1       0.281  -1.279   1.153  0.00  0.00    -0.361 OA
ATOM      3  H   UNL     1      -0.594  -1.494   1.512  0.00  0.00    +0.213 HD
ENDBRANCH   1   2
BRANCH   1   4
ATOM      4  O   UNL     1      -0.712   0.412  -0.142  0.00  0.00    -0.250 OA
BRANCH   4   5
ATOM      5  P   UNL     1      -2.317   0.249  -0.033  0.00  0.00    +0.475 P 
ATOM      6  O   UNL     1      -3.072   1.547  -0.032  0.00  0.00    -0.227 OA
BRANCH   5   7
ATOM      7  O   UNL     1      -2.708  -0.755  -1.239  0.00  0.00    -0.303 OA
ATOM      8  H   UNL     1      -2.180  -1.565  -1.169  0.00  0.00    +0.222 HD
ENDBRANCH   5   7
BRANCH   5   9
ATOM      9  O   UNL     1      -2.543  -0.646   1.295  0.00  0.00    -0.303 OA
ATOM     10  H   UNL     1      -2.028  -1.465   1.225  0.00  0.00    +0.222 HD
ENDBRANCH   5   9
ENDBRANCH   4   5
ENDBRANCH   1   4
BRANCH   1  11
ATOM     11  CA  UNL     1       1.508  -0.380  -0.749  0.00  0.00    +0.093 C 
BRANCH  11  12
ATOM     12  N   UNL     1       2.372  -1.559  -0.806  0.00  0.00    +0.392 N 
ATOM     13  H1  UNL     1       1.909  -2.294  -1.341  0.00  0.00    -0.088 HD
ATOM     14  H2  UNL     1       2.556  -1.892   0.140  0.00  0.00    -0.088 HD
ATOM     15  H3  UNL     1       3.252  -1.314  -1.258  0.00  0.00    -0.088 HD
ENDBRANCH  11  12
BRANCH  11  17
ATOM     16  OXT UNL     1       2.950   0.466   0.994  0.00  0.00    -0.252 OA
ATOM     17  C   UNL     1       2.208   0.706   0.048  0.00  0.00    +0.298 C 
BRANCH  17  18
ATOM     18  O   UNL     1       1.896   1.969  -0.334  0.00  0.00    -0.481 OA
ATOM     19  H   UNL     1       1.324   2.110  -1.063  0.00  0.00    +0.295 HD
ENDBRANCH  17  18
ENDBRANCH  11  17
ENDBRANCH   1  11
TORSDOF 9
