REMARK  Name = 5289320
REMARK  9 active torsions:
REMARK  status: ('A' for Active; 'I' for Inactive)
REMARK    1  A    between atoms: C_1  and  N_3
REMARK    2  A    between atoms: C_1  and  C_12
REMARK    3  A    between atoms: C_1  and  C_22
REMARK    4  A    between atoms: C_4  and  C_6
REMARK    5  A    between atoms: C_12  and  C_15
REMARK    6  A    between atoms: C_22  and  C_23
REMARK    7  A    between atoms: C_23  and  C_24
REMARK    8  A    between atoms: C_24  and  N_25
REMARK    9  A    between atoms: N_25  and  C_28
REMARK                            x       y       z     vdW  Elec       q    Type
REMARK                         _______ _______ _______ _____ _____    ______ ____
ROOT
ATOM      1  C   UNL     1       0.946   0.644  -0.961  0.00  0.00    +0.137 C 
ENDROOT
BRANCH   1   3
ATOM      2  O   UNL     1       2.467  -0.266   1.339  0.00  0.00    -0.275 OA
ATOM      3  N   UNL     1       2.381   0.538  -0.845  0.00  0.00    -0.299 N 
ATOM      4  C   UNL     1       3.018   0.090   0.301  0.00  0.00    +0.222 C 
ATOM      5  H   UNL     1       2.933   0.796  -1.617  0.00  0.00    +0.150 HD
BRANCH   4   6
ATOM      6  C   UNL     1       4.508   0.054   0.145  0.00  0.00    +0.076 C 
ATOM      7  C   UNL     1       4.955  -1.316  -0.380  0.00  0.00    +0.009 C 
ATOM      8  C   UNL     1       5.197   0.239   1.498  0.00  0.00    +0.009 C 
ATOM      9  C   UNL     1       5.966  -1.840   0.633  0.00  0.00    +0.001 C 
ATOM     10  C   UNL     1       5.569  -1.170   1.936  0.00  0.00    +0.001 C 
ENDBRANCH   4   6
ENDBRANCH   1   3
BRANCH   1  12
ATOM     11  O   UNL     1       1.063  -1.395  -2.204  0.00  0.00    -0.286 OA
ATOM     12  C   UNL     1       0.402  -0.716  -1.413  0.00  0.00    +0.226 C 
BRANCH  12  15
ATOM     13  S   UNL     1      -1.522  -2.705  -1.351  0.00  0.00    -0.050 S 
ATOM     14  N   UNL     1      -1.596  -0.504  -0.009  0.00  0.00    -0.396 NA
ATOM     15  C   UNL     1      -0.884  -1.193  -0.870  0.00  0.00    +0.197 C 
ATOM     16  C   UNL     1      -2.884  -2.445  -0.326  0.00  0.00    +0.058 C 
ATOM     17  C   UNL     1      -2.746  -1.209   0.313  0.00  0.00    +0.120 C 
ATOM     18  C   UNL     1      -3.994  -3.276  -0.103  0.00  0.00    +0.008 C 
ATOM     19  C   UNL     1      -3.757  -0.792   1.206  0.00  0.00    +0.085 C 
ATOM     20  C   UNL     1      -4.980  -2.839   0.785  0.00  0.00    -0.004 C 
ATOM     21  C   UNL     1      -4.865  -1.613   1.432  0.00  0.00    -0.019 C 
ENDBRANCH  12  15
ENDBRANCH   1  12
BRANCH   1  22
ATOM     22  C   UNL     1       0.536   1.792  -1.891  0.00  0.00    +0.030 C 
BRANCH  22  23
ATOM     23  C   UNL     1       0.683   3.192  -1.276  0.00  0.00    +0.029 C 
BRANCH  23  24
ATOM     24  C   UNL     1      -0.217   3.387  -0.059  0.00  0.00    +0.129 C 
BRANCH  24  25
ATOM     25  N   UNL     1      -1.617   3.198  -0.441  0.00  0.00    -0.240 NA
BRANCH  25  28
ATOM     26  N   UNL     1      -2.287   3.638   1.824  0.00  0.00    -0.370 N 
ATOM     27  N   UNL     1      -3.838   3.172   0.221  0.00  0.00    -0.370 N 
ATOM     28  C   UNL     1      -2.501   3.334   0.498  0.00  0.00    +0.189 C 
ATOM     29  H   UNL     1      -1.370   3.780   2.154  0.00  0.00    +0.159 HD
ATOM     30  H   UNL     1      -3.050   3.714   2.441  0.00  0.00    +0.159 HD
ATOM     31  H   UNL     1      -4.128   2.952  -0.694  0.00  0.00    +0.159 HD
ATOM     32  H   UNL     1      -4.506   3.277   0.937  0.00  0.00    +0.159 HD
ENDBRANCH  25  28
ENDBRANCH  24  25
ENDBRANCH  23  24
ENDBRANCH  22  23
ENDBRANCH   1  22
TORSDOF 9
