REMARK  Name = 187
REMARK  4 active torsions:
REMARK  status: ('A' for Active; 'I' for Inactive)
REMARK    1  A    between atoms: C_1  and  N_2
REMARK    2  A    between atoms: C_1  and  C_6
REMARK    3  A    between atoms: C_6  and  O_7
REMARK    4  A    between atoms: O_7  and  C_9
REMARK                            x       y       z     vdW  Elec       q    Type
REMARK                         _______ _______ _______ _____ _____    ______ ____
ROOT
ATOM      1  C   UNL     1      -0.904  -0.827   0.027  0.00  0.00    -0.025 C 
ENDROOT
BRANCH   1   2
ATOM      2  N   UNL     1      -2.193  -0.017  -0.003  0.00  0.00    +0.388 N 
ATOM      3  C   UNL     1      -2.215   0.856  -1.249  0.00  0.00    -0.096 C 
ATOM      4  C   UNL     1      -3.385  -0.962  -0.024  0.00  0.00    -0.096 C 
ATOM      5  C   UNL     1      -2.267   0.865   1.236  0.00  0.00    -0.096 C 
ENDBRANCH   1   2
BRANCH   1   6
ATOM      6  C   UNL     1       0.281   0.118   0.017  0.00  0.00    +0.186 C 
BRANCH   6   7
ATOM      7  O   UNL     1       1.488  -0.632   0.009  0.00  0.00    -0.451 OA
BRANCH   7   9
ATOM      8  O   UNL     1       2.723   1.320  -0.003  0.00  0.00    -0.250 OA
ATOM      9  C   UNL     1       2.644   0.099  -0.001  0.00  0.00    +0.317 C 
ATOM     10  C   UNL     1       3.828  -0.819  -0.009  0.00  0.00    +0.121 C 
ENDBRANCH   7   9
ENDBRANCH   6   7
ENDBRANCH   1   6
TORSDOF 4
