REMARK  Name = 24239
REMARK  1 active torsions:
REMARK  status: ('A' for Active; 'I' for Inactive)
REMARK    1  A    between atoms: C_6  and  N_13
REMARK                            x       y       z     vdW  Elec       q    Type
REMARK                         _______ _______ _______ _____ _____    ______ ____
ROOT
ATOM      1  N   UNL     1       2.201  -1.340   0.000  0.00  0.00    -0.236 N 
ATOM      2  N   UNL     1       3.328  -0.608  -0.001  0.00  0.00    -0.180 NA
ATOM      3  C   UNL     1       1.050  -0.599   0.000  0.00  0.00    +0.068 C 
ATOM      4  C   UNL     1       1.469   0.727   0.000  0.00  0.00    +0.036 C 
ATOM      5  C   UNL     1      -0.295  -0.973   0.001  0.00  0.00    +0.040 C 
ATOM      6  C   UNL     1      -1.240   0.059   0.002  0.00  0.00    +0.144 C 
ATOM      7  C   UNL     1       0.508   1.752   0.000  0.00  0.00    +0.005 C 
ATOM      8  C   UNL     1      -0.847   1.399   0.001  0.00  0.00    +0.024 C 
ATOM      9  C   UNL     1       2.878   0.649  -0.001  0.00  0.00    +0.119 C 
ATOM     10  H   UNL     1       2.203  -2.324   0.000  0.00  0.00    +0.174 HD
ENDROOT
BRANCH   6  13
ATOM     11  O   UNL     1      -3.464   0.667  -0.002  0.00  0.00    -0.126 OA
ATOM     12  O   UNL     1      -2.965  -1.471   0.000  0.00  0.00    -0.126 OA
ATOM     13  N   UNL     1      -2.624  -0.264   0.000  0.00  0.00    +0.058 N 
ENDBRANCH   6  13
TORSDOF 1
