REMARK  Name = 6027
REMARK  4 active torsions:
REMARK  status: ('A' for Active; 'I' for Inactive)
REMARK    1  A    between atoms: C_2  and  O_7
REMARK    2  A    between atoms: C_3  and  O_9
REMARK    3  A    between atoms: C_4  and  O_11
REMARK    4  A    between atoms: C_5  and  O_13
REMARK                            x       y       z     vdW  Elec       q    Type
REMARK                         _______ _______ _______ _____ _____    ______ ____
ROOT
ATOM      1  O   UNL     1      -0.620  -1.615   0.746  0.00  0.00    -0.326 OA
ATOM      2  C   UNL     1       0.578   0.839  -0.213  0.00  0.00    +0.172 C 
ATOM      3  C   UNL     1      -0.802   0.793   0.445  0.00  0.00    +0.196 C 
ATOM      4  C   UNL     1       1.412  -0.368   0.222  0.00  0.00    +0.169 C 
ATOM      5  C   UNL     1      -1.473  -0.571   0.268  0.00  0.00    +0.262 C 
ATOM      6  C   UNL     1       0.629  -1.665   0.061  0.00  0.00    +0.176 C 
ENDROOT
BRANCH   2   7
ATOM      7  O   UNL     1       1.228   2.040   0.208  0.00  0.00    -0.379 OA
ATOM      8  H   UNL     1       0.700   2.806  -0.067  0.00  0.00    +0.211 HD
ENDBRANCH   2   7
BRANCH   3   9
ATOM      9  O   UNL     1      -1.642   1.806  -0.097  0.00  0.00    -0.378 OA
ATOM     10  H   UNL     1      -1.218   2.671   0.014  0.00  0.00    +0.211 HD
ENDBRANCH   3   9
BRANCH   4  11
ATOM     11  O   UNL     1       2.593  -0.458  -0.567  0.00  0.00    -0.379 OA
ATOM     12  H   UNL     1       3.105   0.361  -0.477  0.00  0.00    +0.211 HD
ENDBRANCH   4  11
BRANCH   5  13
ATOM     13  O   UNL     1      -1.903  -0.799  -1.073  0.00  0.00    -0.358 OA
ATOM     14  H   UNL     1      -2.320  -1.673  -1.135  0.00  0.00    +0.213 HD
ENDBRANCH   5  13
TORSDOF 4
