REMARK  Name = 5288022
REMARK  11 active torsions:
REMARK  status: ('A' for Active; 'I' for Inactive)
REMARK    1  A    between atoms: C_2  and  C_4
REMARK    2  A    between atoms: C_2  and  S_12
REMARK    3  A    between atoms: C_3  and  C_5
REMARK    4  A    between atoms: C_5  and  C_6
REMARK    5  A    between atoms: C_6  and  C_7
REMARK    6  A    between atoms: C_7  and  C_8
REMARK    7  A    between atoms: C_8  and  C_9
REMARK    8  A    between atoms: C_9  and  C_10
REMARK    9  A    between atoms: S_12  and  C_13
REMARK   10  A    between atoms: C_13  and  C_14
REMARK   11  A    between atoms: C_14  and  N_16
REMARK                            x       y       z     vdW  Elec       q    Type
REMARK                         _______ _______ _______ _____ _____    ______ ____
ROOT
ATOM      1  O   UNL     1       0.788  -1.101  -1.278  0.00  0.00    -0.280 OA
ATOM      2  C   UNL     1       1.275  -1.665  -0.307  0.00  0.00    +0.221 C 
ENDROOT
BRANCH   2   4
ATOM      3  C   UNL     1      -0.797  -2.313   0.817  0.00  0.00    -0.022 C 
ATOM      4  C   UNL     1       0.508  -2.538   0.616  0.00  0.00    +0.044 C 
BRANCH   3   5
ATOM      5  C   UNL     1      -1.554  -1.200   0.148  0.00  0.00    +0.026 C 
BRANCH   5   6
ATOM      6  C   UNL     1      -3.020  -1.113   0.586  0.00  0.00    +0.005 C 
BRANCH   6   7
ATOM      7  C   UNL     1      -3.775   0.066  -0.038  0.00  0.00    +0.000 C 
BRANCH   7   8
ATOM      8  C   UNL     1      -5.239   0.081   0.409  0.00  0.00    +0.000 C 
BRANCH   8   9
ATOM      9  C   UNL     1      -6.063   1.198  -0.239  0.00  0.00    +0.000 C 
BRANCH   9  10
ATOM     10  C   UNL     1      -7.541   1.169   0.150  0.00  0.00    +0.000 C 
ATOM     11  C   UNL     1      -8.310   2.304  -0.508  0.00  0.00    +0.000 C 
ENDBRANCH   9  10
ENDBRANCH   8   9
ENDBRANCH   7   8
ENDBRANCH   6   7
ENDBRANCH   5   6
ENDBRANCH   3   5
ENDBRANCH   2   4
BRANCH   2  12
ATOM     12  S   UNL     1       2.970  -1.523   0.145  0.00  0.00    -0.071 S 
BRANCH  12  13
ATOM     13  C   UNL     1       3.569  -0.424  -1.157  0.00  0.00    +0.086 C 
BRANCH  13  14
ATOM     14  C   UNL     1       5.067  -0.173  -1.055  0.00  0.00    +0.101 C 
BRANCH  14  16
ATOM     15  O   UNL     1       5.255   2.676  -0.530  0.00  0.00    -0.275 OA
ATOM     16  N   UNL     1       5.448   0.466   0.176  0.00  0.00    -0.303 N 
ATOM     17  C   UNL     1       5.510   1.843   0.335  0.00  0.00    +0.223 C 
ATOM     18  C   UNL     1       5.911   2.244   1.730  0.00  0.00    +0.095 C 
ATOM     19  H   UNL     1       5.676  -0.104   0.946  0.00  0.00    +0.149 HD
ENDBRANCH  14  16
ENDBRANCH  13  14
ENDBRANCH  12  13
ENDBRANCH   2  12
TORSDOF 11
