REMARK  Name = 14463
REMARK  7 active torsions:
REMARK  status: ('A' for Active; 'I' for Inactive)
REMARK    1  A    between atoms: CA_1  and  N_2
REMARK    2  A    between atoms: CA_1  and  C_7
REMARK    3  A    between atoms: CA_1  and  C_10
REMARK    4  A    between atoms: C_7  and  O_8
REMARK    5  A    between atoms: C_10  and  O_11
REMARK    6  A    between atoms: C_10  and  C_14
REMARK    7  A    between atoms: C_14  and  O_15
REMARK                            x       y       z     vdW  Elec       q    Type
REMARK                         _______ _______ _______ _____ _____    ______ ____
ROOT
ATOM      1  CA  UNL     1      -0.729  -0.346   0.773  0.00  0.00    +0.074 C 
ENDROOT
BRANCH   1   2
ATOM      2  N   UNL     1      -1.752  -1.388   0.914  0.00  0.00    +0.391 N 
ATOM      3  H1  UNL     1      -1.399  -2.132   1.515  0.00  0.00    -0.088 HD
ATOM      4  H2  UNL     1      -1.975  -1.771  -0.005  0.00  0.00    -0.088 HD
ATOM      5  H3  UNL     1      -2.592  -0.985   1.328  0.00  0.00    -0.088 HD
ENDBRANCH   1   2
BRANCH   1   7
ATOM      6  OXT UNL     1      -2.057   0.545  -1.073  0.00  0.00    -0.253 OA
ATOM      7  C   UNL     1      -1.301   0.738  -0.130  0.00  0.00    +0.296 C 
BRANCH   7   8
ATOM      8  O   UNL     1      -0.861   1.976   0.216  0.00  0.00    -0.482 OA
ATOM      9  H   UNL     1      -0.283   2.081   0.946  0.00  0.00    +0.295 HD
ENDBRANCH   7   8
ENDBRANCH   1   7
BRANCH   1  10
ATOM     10  C   UNL     1       0.555  -0.963   0.202  0.00  0.00    +0.200 C 
BRANCH  10  11
ATOM     11  O   UNL     1       0.289  -1.576  -1.052  0.00  0.00    -0.375 OA
ATOM     12  H   UNL     1      -0.415  -2.235  -0.946  0.00  0.00    +0.211 HD
ENDBRANCH  10  11
BRANCH  10  14
ATOM     13  O   UNL     1       2.164   0.362  -1.060  0.00  0.00    -0.248 OA
ATOM     14  C   UNL     1       1.655   0.061   0.010  0.00  0.00    +0.339 C 
BRANCH  14  15
ATOM     15  O   UNL     1       2.037   0.592   1.199  0.00  0.00    -0.479 OA
ATOM     16  H   UNL     1       1.611   0.324   1.990  0.00  0.00    +0.295 HD
ENDBRANCH  14  15
ENDBRANCH  10  14
ENDBRANCH   1  10
TORSDOF 7
