REMARK  Name = 6956329
REMARK  2 active torsions:
REMARK  status: ('A' for Active; 'I' for Inactive)
REMARK    1  A    between atoms: C_5  and  N_18
REMARK    2  A    between atoms: C_16  and  C_27
REMARK                            x       y       z     vdW  Elec       q    Type
REMARK                         _______ _______ _______ _____ _____    ______ ____
ROOT
ATOM      1  F   UNL     1      -1.701   2.906  -0.266  0.00  0.00    -0.203 F 
ATOM      2  O   UNL     1      -1.005  -1.742   0.283  0.00  0.00    -0.471 OA
ATOM      3  O   UNL     1       3.329   2.417  -0.141  0.00  0.00    -0.286 OA
ATOM      4  N   UNL     1       1.841  -1.360   0.185  0.00  0.00    -0.281 N 
ATOM      5  C   UNL     1      -1.343   0.574  -0.004  0.00  0.00    +0.111 C 
ATOM      6  C   UNL     1      -0.454  -0.493   0.136  0.00  0.00    +0.168 C 
ATOM      7  C   UNL     1       0.933  -0.285   0.101  0.00  0.00    +0.091 C 
ATOM      8  C   UNL     1       1.253  -2.702   0.192  0.00  0.00    +0.121 C 
ATOM      9  C   UNL     1      -0.098  -2.657   0.907  0.00  0.00    +0.225 C 
ATOM     10  C   UNL     1       1.407   1.035  -0.028  0.00  0.00    +0.058 C 
ATOM     11  C   UNL     1      -0.855   1.872  -0.142  0.00  0.00    +0.156 C 
ATOM     12  C   UNL     1       0.519   2.109  -0.148  0.00  0.00    +0.036 C 
ATOM     13  C   UNL     1       3.198  -1.111   0.158  0.00  0.00    +0.075 C 
ATOM     14  C   UNL     1       1.130  -3.229  -1.240  0.00  0.00    +0.026 C 
ATOM     15  C   UNL     1       2.874   1.284  -0.045  0.00  0.00    +0.205 C 
ATOM     16  C   UNL     1       3.762   0.097   0.059  0.00  0.00    +0.133 C 
ENDROOT
BRANCH   5  18
ATOM     17  N   UNL     1      -5.554   0.093  -0.096  0.00  0.00    +0.388 N 
ATOM     18  N   UNL     1      -2.727   0.361   0.007  0.00  0.00    -0.308 N 
ATOM     19  C   UNL     1      -4.857   0.250   1.231  0.00  0.00    -0.056 C 
ATOM     20  C   UNL     1      -4.687  -0.661  -1.073  0.00  0.00    -0.056 C 
ATOM     21  C   UNL     1      -3.552   1.010   1.030  0.00  0.00    +0.068 C 
ATOM     22  C   UNL     1      -3.385   0.100  -1.280  0.00  0.00    +0.068 C 
ATOM     23  C   UNL     1      -6.909  -0.538   0.053  0.00  0.00    -0.101 C 
ATOM     24  H   UNL     1      -5.708   1.027  -0.477  0.00  0.00    -0.080 HD
ENDBRANCH   5  18
BRANCH  16  27
ATOM     25  O   UNL     1       5.728   1.373  -0.052  0.00  0.00    -0.240 OA
ATOM     26  O   UNL     1       5.885  -0.902   0.129  0.00  0.00    -0.240 OA
ATOM     27  C   UNL     1       5.269   0.199   0.044  0.00  0.00    +0.392 C 
ENDBRANCH  16  27
TORSDOF 2
