REMARK  Name = 5287969
REMARK  5 active torsions:
REMARK  status: ('A' for Active; 'I' for Inactive)
REMARK    1  A    between atoms: C_3  and  C_13
REMARK    2  A    between atoms: C_5  and  O_29
REMARK    3  A    between atoms: C_8  and  O_31
REMARK    4  A    between atoms: C_10  and  C_23
REMARK    5  A    between atoms: C_14  and  O_20
REMARK                            x       y       z     vdW  Elec       q    Type
REMARK                         _______ _______ _______ _____ _____    ______ ____
ROOT
ATOM      1  O   UNL     1       0.142   0.449  -0.225  0.00  0.00    -0.453 OA
ATOM      2  O   UNL     1      -1.599   4.116   0.131  0.00  0.00    -0.286 OA
ATOM      3  C   UNL     1      -1.959  -0.627  -0.270  0.00  0.00    +0.048 C 
ATOM      4  C   UNL     1      -1.225   0.556  -0.186  0.00  0.00    +0.150 C 
ATOM      5  C   UNL     1      -3.353  -0.582  -0.235  0.00  0.00    +0.136 C 
ATOM      6  C   UNL     1      -1.885   1.778  -0.067  0.00  0.00    +0.107 C 
ATOM      7  C   UNL     1      -4.012   0.642  -0.116  0.00  0.00    +0.073 C 
ATOM      8  C   UNL     1      -3.280   1.827  -0.031  0.00  0.00    +0.143 C 
ATOM      9  C   UNL     1      -1.086   3.010   0.022  0.00  0.00    +0.205 C 
ATOM     10  C   UNL     1       0.898   1.609  -0.150  0.00  0.00    +0.149 C 
ATOM     11  C   UNL     1       0.380   2.842  -0.027  0.00  0.00    +0.080 C 
ENDROOT
BRANCH   3  13
ATOM     12  N   UNL     1       0.867  -3.949   0.023  0.00  0.00    +0.387 N 
ATOM     13  C   UNL     1      -1.251  -1.965  -0.398  0.00  0.00    +0.051 C 
ATOM     14  C   UNL     1      -1.037  -2.648   0.967  0.00  0.00    +0.094 C 
ATOM     15  C   UNL     1       0.075  -1.933  -1.177  0.00  0.00    -0.016 C 
ATOM     16  C   UNL     1      -0.390  -4.029   0.787  0.00  0.00    -0.047 C 
ATOM     17  C   UNL     1       0.661  -3.344  -1.299  0.00  0.00    -0.077 C 
ATOM     18  C   UNL     1       1.472  -5.274  -0.108  0.00  0.00    -0.101 C 
ATOM     19  H   UNL     1       1.505  -3.346   0.542  0.00  0.00    -0.080 HD
BRANCH  14  20
ATOM     20  O   UNL     1      -0.183  -1.874   1.810  0.00  0.00    -0.386 OA
ATOM     21  H   UNL     1      -0.569  -0.994   1.941  0.00  0.00    +0.210 HD
ENDBRANCH  14  20
ENDBRANCH   3  13
BRANCH  10  23
ATOM     22 CL   UNL     1       2.397   1.126   2.529  0.00  0.00    -0.082 Cl
ATOM     23  C   UNL     1       2.356   1.379  -0.195  0.00  0.00    +0.045 C 
ATOM     24  C   UNL     1       3.117   1.153   0.957  0.00  0.00    +0.061 C 
ATOM     25  C   UNL     1       2.986   1.391  -1.444  0.00  0.00    +0.004 C 
ATOM     26  C   UNL     1       4.493   0.941   0.861  0.00  0.00    +0.011 C 
ATOM     27  C   UNL     1       4.362   1.179  -1.540  0.00  0.00    +0.000 C 
ATOM     28  C   UNL     1       5.115   0.955  -0.388  0.00  0.00    +0.001 C 
ENDBRANCH  10  23
BRANCH   5  29
ATOM     29  O   UNL     1      -4.090  -1.726  -0.317  0.00  0.00    -0.506 OA
ATOM     30  H   UNL     1      -3.660  -2.555  -0.397  0.00  0.00    +0.292 HD
ENDBRANCH   5  29
BRANCH   8  31
ATOM     31  O   UNL     1      -3.971   2.995   0.085  0.00  0.00    -0.505 OA
ATOM     32  H   UNL     1      -3.510   3.809   0.145  0.00  0.00    +0.292 HD
ENDBRANCH   8  31
TORSDOF 5
