REMARK  Name = 446273
REMARK  6 active torsions:
REMARK  status: ('A' for Active; 'I' for Inactive)
REMARK    1  A    between atoms: C_1  and  P_2
REMARK    2  A    between atoms: C_1  and  C_8
REMARK    3  A    between atoms: P_2  and  O_4
REMARK    4  A    between atoms: P_2  and  O_6
REMARK    5  A    between atoms: C_8  and  N_10
REMARK    6  A    between atoms: N_10  and  O_12
REMARK                            x       y       z     vdW  Elec       q    Type
REMARK                         _______ _______ _______ _____ _____    ______ ____
ROOT
ATOM      1  C   UNL     1       0.736   0.960   0.952  0.00  0.00    +0.140 C 
ENDROOT
BRANCH   1   2
ATOM      2  P   UNL     1       1.571  -0.140  -0.216  0.00  0.00    +0.339 P 
ATOM      3  O   UNL     1       0.900  -0.222  -1.541  0.00  0.00    -0.258 OA
BRANCH   2   4
ATOM      4  O   UNL     1       1.675  -1.513   0.617  0.00  0.00    -0.324 OA
ATOM      5  H   UNL     1       2.115  -2.188   0.076  0.00  0.00    +0.220 HD
ENDBRANCH   2   4
BRANCH   2   6
ATOM      6  O   UNL     1       3.075   0.432  -0.214  0.00  0.00    -0.324 OA
ATOM      7  H   UNL     1       3.622  -0.094  -0.818  0.00  0.00    +0.220 HD
ENDBRANCH   2   6
ENDBRANCH   1   2
BRANCH   1   8
ATOM      8  C   UNL     1      -0.690   0.535   1.247  0.00  0.00    +0.137 C 
BRANCH   8  10
ATOM      9  O   UNL     1      -2.075  -1.724   0.097  0.00  0.00    -0.263 OA
ATOM     10  N   UNL     1      -1.493   0.519   0.056  0.00  0.00    -0.164 N 
ATOM     11  C   UNL     1      -2.111  -0.608  -0.409  0.00  0.00    +0.327 C 
BRANCH  10  12
ATOM     12  O   UNL     1      -1.587   1.762  -0.589  0.00  0.00    -0.291 OA
ATOM     13  H   UNL     1      -1.077   2.422  -0.095  0.00  0.00    +0.242 HD
ENDBRANCH  10  12
ENDBRANCH   8  10
ENDBRANCH   1   8
TORSDOF 6
