REMARK  Name = 84265
REMARK  6 active torsions:
REMARK  status: ('A' for Active; 'I' for Inactive)
REMARK    1  A    between atoms: C_2  and  O_12
REMARK    2  A    between atoms: C_3  and  N_8
REMARK    3  A    between atoms: C_4  and  O_14
REMARK    4  A    between atoms: C_5  and  C_18
REMARK    5  A    between atoms: C_6  and  O_16
REMARK    6  A    between atoms: C_18  and  O_19
REMARK                            x       y       z     vdW  Elec       q    Type
REMARK                         _______ _______ _______ _____ _____    ______ ____
ROOT
ATOM      1  O   UNL     1       1.627  -0.867   0.687  0.00  0.00    -0.327 OA
ATOM      2  C   UNL     1      -0.196   0.765  -0.827  0.00  0.00    +0.162 C 
ATOM      3  C   UNL     1      -0.684  -0.240   0.224  0.00  0.00    +0.158 C 
ATOM      4  C   UNL     1       1.229   1.227  -0.503  0.00  0.00    +0.169 C 
ATOM      5  C   UNL     1       2.149   0.013  -0.320  0.00  0.00    +0.176 C 
ATOM      6  C   UNL     1       0.328  -1.383   0.383  0.00  0.00    +0.253 C 
ENDROOT
BRANCH   3   8
ATOM      7  O   UNL     1      -3.251   0.905   0.953  0.00  0.00    -0.275 OA
ATOM      8  N   UNL     1      -1.997  -0.748  -0.104  0.00  0.00    -0.299 N 
ATOM      9  C   UNL     1      -3.170  -0.127   0.292  0.00  0.00    +0.223 C 
ATOM     10  C   UNL     1      -4.394  -0.850  -0.204  0.00  0.00    +0.095 C 
ATOM     11  H   UNL     1      -2.060  -1.575  -0.634  0.00  0.00    +0.150 HD
ENDBRANCH   3   8
BRANCH   2  12
ATOM     12  O   UNL     1      -1.071   1.890  -0.855  0.00  0.00    -0.380 OA
ATOM     13  H   UNL     1      -1.972   1.594  -1.060  0.00  0.00    +0.211 HD
ENDBRANCH   2  12
BRANCH   4  14
ATOM     14  O   UNL     1       1.195   2.000   0.699  0.00  0.00    -0.379 OA
ATOM     15  H   UNL     1       0.611   2.765   0.575  0.00  0.00    +0.211 HD
ENDBRANCH   4  14
BRANCH   6  16
ATOM     16  O   UNL     1       0.346  -2.196  -0.790  0.00  0.00    -0.359 OA
ATOM     17  H   UNL     1       0.989  -2.914  -0.676  0.00  0.00    +0.213 HD
ENDBRANCH   6  16
BRANCH   5  18
ATOM     18  C   UNL     1       3.562   0.398   0.106  0.00  0.00    +0.169 C 
BRANCH  18  19
ATOM     19  O   UNL     1       4.325  -0.785   0.259  0.00  0.00    -0.379 OA
ATOM     20  H   UNL     1       5.227  -0.555   0.530  0.00  0.00    +0.211 HD
ENDBRANCH  18  19
ENDBRANCH   5  18
TORSDOF 6
