REMARK  Name = 448539
REMARK  9 active torsions:
REMARK  status: ('A' for Active; 'I' for Inactive)
REMARK    1  A    between atoms: C_1  and  C_2
REMARK    2  A    between atoms: C_1  and  CA_11
REMARK    3  A    between atoms: C_2  and  C_3
REMARK    4  A    between atoms: C_3  and  N_4
REMARK    5  A    between atoms: N_4  and  C_6
REMARK    6  A    between atoms: C_6  and  S_9
REMARK    7  A    between atoms: CA_11  and  N_12
REMARK    8  A    between atoms: CA_11  and  C_17
REMARK    9  A    between atoms: C_17  and  O_18
REMARK                            x       y       z     vdW  Elec       q    Type
REMARK                         _______ _______ _______ _____ _____    ______ ____
ROOT
ATOM      1  C   UNL     1       0.771  -0.441  -0.889  0.00  0.00    -0.009 C 
ENDROOT
BRANCH   1   2
ATOM      2  C   UNL     1       0.150  -0.833   0.459  0.00  0.00    +0.022 C 
BRANCH   2   3
ATOM      3  C   UNL     1      -1.370  -0.941   0.389  0.00  0.00    +0.114 C 
BRANCH   3   4
ATOM      4  N   UNL     1      -1.946   0.354   0.025  0.00  0.00    -0.217 NA
BRANCH   4   6
ATOM      5  N   UNL     1      -4.068   1.450  -0.327  0.00  0.00    -0.381 N 
ATOM      6  C   UNL     1      -3.230   0.409  -0.025  0.00  0.00    +0.142 C 
ATOM      7  H   UNL     1      -5.043   1.315  -0.317  0.00  0.00    +0.158 HD
ATOM      8  H   UNL     1      -3.695   2.332  -0.555  0.00  0.00    +0.158 HD
BRANCH   6   9
ATOM      9  S   UNL     1      -4.075  -1.095   0.358  0.00  0.00    -0.109 S 
ATOM     10  H   UNL     1      -3.166  -2.066   0.644  0.00  0.00    +0.110 HD
ENDBRANCH   6   9
ENDBRANCH   4   6
ENDBRANCH   3   4
ENDBRANCH   2   3
ENDBRANCH   1   2
BRANCH   1  11
ATOM     11  CA  UNL     1       2.303  -0.354  -0.818  0.00  0.00    +0.036 C 
BRANCH  11  12
ATOM     12  N   UNL     1       2.852  -1.629  -0.362  0.00  0.00    +0.389 N 
ATOM     13  H1  UNL     1       2.565  -2.371  -1.000  0.00  0.00    -0.088 HD
ATOM     14  H2  UNL     1       2.505  -1.833   0.575  0.00  0.00    -0.088 HD
ATOM     15  H3  UNL     1       3.871  -1.573  -0.342  0.00  0.00    -0.088 HD
ENDBRANCH  11  12
BRANCH  11  17
ATOM     16  OXT UNL     1       3.460   0.454   1.169  0.00  0.00    -0.253 OA
ATOM     17  C   UNL     1       2.776   0.686   0.180  0.00  0.00    +0.293 C 
BRANCH  17  18
ATOM     18  O   UNL     1       2.376   1.940  -0.159  0.00  0.00    -0.482 OA
ATOM     19  H   UNL     1       1.853   2.074  -0.925  0.00  0.00    +0.295 HD
ENDBRANCH  17  18
ENDBRANCH  11  17
ENDBRANCH   1  11
TORSDOF 9
