REMARK  Name = 1746
REMARK  1 active torsions:
REMARK  status: ('A' for Active; 'I' for Inactive)
REMARK    1  A    between atoms: C_6  and  C_13
REMARK                            x       y       z     vdW  Elec       q    Type
REMARK                         _______ _______ _______ _____ _____    ______ ____
ROOT
ATOM      1  I   UNL     1       2.171   3.004   0.000  0.00  0.00    -0.043 I 
ATOM      2  S   UNL     1      -0.969  -1.689   0.000  0.00  0.00    -0.084 S 
ATOM      3  C   UNL     1       0.699   0.287   0.000  0.00  0.00    +0.012 C 
ATOM      4  C   UNL     1       0.656  -1.111   0.000  0.00  0.00    +0.030 C 
ATOM      5  C   UNL     1      -0.622   0.848   0.000  0.00  0.00    +0.010 C 
ATOM      6  C   UNL     1      -1.609  -0.109   0.000  0.00  0.00    +0.058 C 
ATOM      7  C   UNL     1       1.967   0.917   0.000  0.00  0.00    +0.031 C 
ATOM      8  C   UNL     1       1.834  -1.884   0.000  0.00  0.00    +0.007 C 
ATOM      9  C   UNL     1       3.137   0.153   0.000  0.00  0.00    +0.006 C 
ATOM     10  C   UNL     1       3.068  -1.233   0.000  0.00  0.00    +0.001 C 
ENDROOT
BRANCH   6  13
ATOM     11  N   UNL     1      -3.900  -0.825  -0.002  0.00  0.00    -0.386 N 
ATOM     12  N   UNL     1      -3.426   1.459   0.001  0.00  0.00    -0.344 N 
ATOM     13  C   UNL     1      -3.007   0.181   0.001  0.00  0.00    +0.102 C 
ATOM     14  H   UNL     1      -4.864  -0.627  -0.001  0.00  0.00    +0.157 HD
ATOM     15  H   UNL     1      -3.589  -1.759  -0.004  0.00  0.00    +0.157 HD
ATOM     16  H   UNL     1      -4.390   1.661   0.002  0.00  0.00    +0.144 HD
ATOM     17  H   UNL     1      -2.769   2.192   0.001  0.00  0.00    +0.144 HD
ENDBRANCH   6  13
TORSDOF 1
