REMARK  Name = 97184
REMARK  4 active torsions:
REMARK  status: ('A' for Active; 'I' for Inactive)
REMARK    1  A    between atoms: N_1  and  C1*_12
REMARK    2  A    between atoms: C3*_13  and  O3*_16
REMARK    3  A    between atoms: C4*_15  and  C5*_18
REMARK    4  A    between atoms: C5*_18  and  O5*_19
REMARK                            x       y       z     vdW  Elec       q    Type
REMARK                         _______ _______ _______ _____ _____    ______ ____
ROOT
ATOM      1  N   UNL     1       0.139   0.136  -0.077  0.00  0.00    -0.249 N 
ATOM      2  N   UNL     1       1.540   1.836   0.283  0.00  0.00    -0.244 NA
ATOM      3  N   UNL     1       1.743  -1.668  -0.358  0.00  0.00    -0.228 NA
ATOM      4  N   UNL     1       4.036  -0.862  -0.134  0.00  0.00    -0.247 NA
ATOM      5  C   UNL     1       1.401  -0.390  -0.133  0.00  0.00    +0.151 C 
ATOM      6  C   UNL     1       0.278   1.477   0.175  0.00  0.00    +0.223 C 
ATOM      7  C   UNL     1       2.253   0.679   0.093  0.00  0.00    +0.122 C 
ATOM      8  C   UNL     1       3.617   0.408   0.088  0.00  0.00    +0.076 C 
ATOM      9  C   UNL     1       3.087  -1.807  -0.340  0.00  0.00    +0.252 C 
ATOM     10  C   UNL     1       4.664   1.443   0.312  0.00  0.00    +0.053 C 
ENDROOT
BRANCH   1  12
ATOM     11  O4* UNL     1      -2.087   0.272  -0.886  0.00  0.00    -0.335 OA
ATOM     12  C1* UNL     1      -1.119  -0.582  -0.252  0.00  0.00    +0.197 C 
ATOM     13  C3* UNL     1      -3.208  -1.147   0.665  0.00  0.00    +0.144 C 
ATOM     14  C2* UNL     1      -1.747  -1.069   1.046  0.00  0.00    +0.083 C 
ATOM     15  C4* UNL     1      -3.381   0.023  -0.297  0.00  0.00    +0.173 C 
BRANCH  13  16
ATOM     16  O3* UNL     1      -3.428  -2.373  -0.029  0.00  0.00    -0.382 OA
ATOM     17  H3* UNL     1      -3.318  -3.117   0.584  0.00  0.00    +0.210 HD
ENDBRANCH  13  16
BRANCH  15  18
ATOM     18  C5* UNL     1      -3.833   1.297   0.404  0.00  0.00    +0.169 C 
BRANCH  18  19
ATOM     19  O5* UNL     1      -3.955   2.327  -0.561  0.00  0.00    -0.379 OA
ATOM     20  H5* UNL     1      -4.243   3.145  -0.127  0.00  0.00    +0.211 HD
ENDBRANCH  18  19
ENDBRANCH  15  18
ENDBRANCH   1  12
TORSDOF 4
