REMARK  Name = 611002
REMARK  3 active torsions:
REMARK  status: ('A' for Active; 'I' for Inactive)
REMARK    1  A    between atoms: N_1  and  C_6
REMARK    2  A    between atoms: N_1  and  C_13
REMARK    3  A    between atoms: C_18  and  O_19
REMARK                            x       y       z     vdW  Elec       q    Type
REMARK                         _______ _______ _______ _____ _____    ______ ____
ROOT
ATOM      1  N   UNL     1      -0.307  -1.456  -0.392  0.00  0.00    -0.303 N 
ATOM      2  H   UNL     1      -0.364  -2.374  -0.743  0.00  0.00    +0.153 HD
ENDROOT
BRANCH   1   6
ATOM      3  O   UNL     1       1.929  -3.106   0.340  0.00  0.00    -0.208 OA
ATOM      4  N   UNL     1       3.199  -1.152   0.382  0.00  0.00    -0.332 NA
ATOM      5  C   UNL     1       1.450   0.250  -0.207  0.00  0.00    +0.056 C 
ATOM      6  C   UNL     1       0.936  -0.978  -0.166  0.00  0.00    +0.147 C 
ATOM      7  C   UNL     1       2.862   0.072   0.144  0.00  0.00    +0.146 C 
ATOM      8  C   UNL     1       2.049  -1.897   0.212  0.00  0.00    +0.219 C 
ATOM      9  C   UNL     1       0.914   1.543  -0.500  0.00  0.00    +0.005 C 
ATOM     10  C   UNL     1       3.709   1.283   0.183  0.00  0.00    +0.033 C 
ATOM     11  C   UNL     1       1.734   2.606  -0.448  0.00  0.00    +0.000 C 
ATOM     12  C   UNL     1       3.139   2.465  -0.103  0.00  0.00    +0.003 C 
ENDBRANCH   1   6
BRANCH   1  13
ATOM     13  C   UNL     1      -1.530  -0.793  -0.184  0.00  0.00    +0.049 C 
ATOM     14  C   UNL     1      -2.635  -1.093  -0.984  0.00  0.00    +0.018 C 
ATOM     15  C   UNL     1      -1.644   0.170   0.822  0.00  0.00    +0.018 C 
ATOM     16  C   UNL     1      -3.848  -0.435  -0.778  0.00  0.00    +0.038 C 
ATOM     17  C   UNL     1      -2.857   0.828   1.027  0.00  0.00    +0.038 C 
ATOM     18  C   UNL     1      -3.958   0.526   0.227  0.00  0.00    +0.134 C 
BRANCH  18  19
ATOM     19  O   UNL     1      -5.142   1.167   0.428  0.00  0.00    -0.506 OA
ATOM     20  H   UNL     1      -5.882   0.964  -0.110  0.00  0.00    +0.292 HD
ENDBRANCH  18  19
ENDBRANCH   1  13
TORSDOF 3
