REMARK  Name = 6991971
REMARK  4 active torsions:
REMARK  status: ('A' for Active; 'I' for Inactive)
REMARK    1  A    between atoms: CA_1  and  N_2
REMARK    2  A    between atoms: CA_1  and  C_8
REMARK    3  A    between atoms: CA_1  and  CB_9
REMARK    4  A    between atoms: CB_9  and  CG_12
REMARK                            x       y       z     vdW  Elec       q    Type
REMARK                         _______ _______ _______ _____ _____    ______ ____
ROOT
ATOM      1  CA  ASN A   1      -0.675  -0.681  -0.663  0.00  0.00    +0.049 C 
ENDROOT
BRANCH   1   2
ATOM      2  N   ASN A   1      -0.692  -1.913   0.189  0.00  0.00    +0.389 N 
ATOM      3  H1  ASN A   1      -0.112  -2.632  -0.242  0.00  0.00    -0.088 HD
ATOM      4  H2  ASN A   1      -1.649  -2.254   0.275  0.00  0.00    -0.088 HD
ATOM      5  H3  ASN A   1      -0.326  -1.691   1.115  0.00  0.00    -0.088 HD
ENDBRANCH   1   2
BRANCH   1   8
ATOM      6  O   ASN A   1      -1.166   1.628  -0.474  0.00  0.00    -0.248 OA
ATOM      7  OXT ASN A   1      -2.458   0.144   0.680  0.00  0.00    -0.248 OA
ATOM      8  C   ASN A   1      -1.523   0.474  -0.102  0.00  0.00    +0.345 C 
ENDBRANCH   1   8
BRANCH   1   9
ATOM      9  CB  ASN A   1       0.780  -0.343  -0.995  0.00  0.00    +0.074 C 
BRANCH   9  12
ATOM     10  OD1 ASN A   1       1.184   0.244   1.331  0.00  0.00    -0.275 OA
ATOM     11  ND2 ASN A   1       2.932   0.341  -0.158  0.00  0.00    -0.329 N 
ATOM     12  CG  ASN A   1       1.619   0.105   0.192  0.00  0.00    +0.218 C 
ATOM     13 HD21 ASN A   1       3.577   0.638   0.524  0.00  0.00    +0.145 HD
ATOM     14 HD22 ASN A   1       3.224   0.214  -1.089  0.00  0.00    +0.145 HD
ENDBRANCH   9  12
ENDBRANCH   1   9
TORSDOF 4
