REMARK  Name = 13017
REMARK  1 active torsions:
REMARK  status: ('A' for Active; 'I' for Inactive)
REMARK    1  A    between atoms: C_1  and  N_8
REMARK                            x       y       z     vdW  Elec       q    Type
REMARK                         _______ _______ _______ _____ _____    ______ ____
ROOT
ATOM      1  C   UNL     1       0.278   0.265  -0.600  0.00  0.00    +0.072 C 
ATOM      2  C   UNL     1      -0.291  -1.155  -0.683  0.00  0.00    +0.020 C 
ATOM      3  C   UNL     1      -0.837   1.315  -0.655  0.00  0.00    +0.020 C 
ATOM      4  C   UNL     1      -1.389  -1.407   0.350  0.00  0.00    +0.002 C 
ATOM      5  C   UNL     1      -1.933   1.059   0.379  0.00  0.00    +0.002 C 
ATOM      6  C   UNL     1      -2.492  -0.356   0.268  0.00  0.00    +0.000 C 
ENDROOT
BRANCH   1   8
ATOM      7  O   UNL     1       3.141  -0.289  -0.275  0.00  0.00    -0.265 OA
ATOM      8  N   UNL     1       1.089   0.430   0.586  0.00  0.00    -0.299 N 
ATOM      9  C   UNL     1       2.434   0.138   0.629  0.00  0.00    +0.299 C 
ATOM     10  H   UNL     1       0.658   0.770   1.403  0.00  0.00    +0.150 HD
ENDBRANCH   1   8
TORSDOF 1
