REMARK  Name = 447206
REMARK  9 active torsions:
REMARK  status: ('A' for Active; 'I' for Inactive)
REMARK    1  A    between atoms: C_2  and  O_18
REMARK    2  A    between atoms: C_3  and  C_20
REMARK    3  A    between atoms: C_4  and  N_8
REMARK    4  A    between atoms: C_12  and  C_15
REMARK    5  A    between atoms: C_15  and  O_16
REMARK    6  A    between atoms: C_20  and  O_21
REMARK    7  A    between atoms: O_21  and  P_22
REMARK    8  A    between atoms: P_22  and  O_24
REMARK    9  A    between atoms: P_22  and  O_26
REMARK                            x       y       z     vdW  Elec       q    Type
REMARK                         _______ _______ _______ _____ _____    ______ ____
ROOT
ATOM      1  O   UNL     1       0.567  -1.534   0.994  0.00  0.00    -0.335 OA
ATOM      2  C   UNL     1       1.198  -2.921  -0.823  0.00  0.00    +0.144 C 
ATOM      3  C   UNL     1       1.716  -1.952   0.231  0.00  0.00    +0.174 C 
ATOM      4  C   UNL     1      -0.628  -1.934   0.308  0.00  0.00    +0.202 C 
ATOM      5  C   UNL     1      -0.215  -2.442  -1.063  0.00  0.00    +0.083 C 
ENDROOT
BRANCH   4   8
ATOM      6  O   UNL     1      -3.469  -2.116   0.374  0.00  0.00    -0.252 OA
ATOM      7  O   UNL     1      -3.937   2.447   0.039  0.00  0.00    -0.270 OA
ATOM      8  N   UNL     1      -1.530  -0.822   0.241  0.00  0.00    -0.219 N 
ATOM      9  N   UNL     1      -3.688   0.161   0.206  0.00  0.00    -0.236 N 
ATOM     10  C   UNL     1      -0.999   0.457   0.135  0.00  0.00    +0.074 C 
ATOM     11  C   UNL     1      -2.928  -1.012   0.281  0.00  0.00    +0.315 C 
ATOM     12  C   UNL     1      -1.728   1.577   0.063  0.00  0.00    +0.076 C 
ATOM     13  C   UNL     1      -3.210   1.459   0.100  0.00  0.00    +0.252 C 
ATOM     14  H   UNL     1      -4.666   0.054   0.232  0.00  0.00    +0.159 HD
BRANCH  12  15
ATOM     15  C   UNL     1      -1.135   2.945  -0.051  0.00  0.00    +0.169 C 
BRANCH  15  16
ATOM     16  O   UNL     1      -0.968   3.286  -1.416  0.00  0.00    -0.377 OA
ATOM     17  H   UNL     1      -0.583   4.174  -1.482  0.00  0.00    +0.211 HD
ENDBRANCH  15  16
ENDBRANCH  12  15
ENDBRANCH   4   8
BRANCH   2  18
ATOM     18  O   UNL     1       1.173  -4.245  -0.294  0.00  0.00    -0.382 OA
ATOM     19  H   UNL     1       2.081  -4.549  -0.141  0.00  0.00    +0.210 HD
ENDBRANCH   2  18
BRANCH   3  20
ATOM     20  C   UNL     1       2.355  -0.707  -0.372  0.00  0.00    +0.186 C 
BRANCH  20  21
ATOM     21  O   UNL     1       2.795   0.137   0.679  0.00  0.00    -0.271 OA
BRANCH  21  22
ATOM     22  P   UNL     1       3.514   1.535   0.296  0.00  0.00    +0.473 P 
ATOM     23  O   UNL     1       3.949   2.367   1.467  0.00  0.00    -0.227 OA
BRANCH  22  24
ATOM     24  O   UNL     1       2.462   2.246  -0.705  0.00  0.00    -0.303 OA
ATOM     25  H   UNL     1       2.240   1.638  -1.427  0.00  0.00    +0.222 HD
ENDBRANCH  22  24
BRANCH  22  26
ATOM     26  O   UNL     1       4.708   1.067  -0.690  0.00  0.00    -0.303 OA
ATOM     27  H   UNL     1       4.340   0.538  -1.415  0.00  0.00    +0.222 HD
ENDBRANCH  22  26
ENDBRANCH  21  22
ENDBRANCH  20  21
ENDBRANCH   3  20
TORSDOF 9
