REMARK  Name = 6409
REMARK  2 active torsions:
REMARK  status: ('A' for Active; 'I' for Inactive)
REMARK    1  A    between atoms: C_4  and  C_5
REMARK    2  A    between atoms: C_5  and  O_6
REMARK                            x       y       z     vdW  Elec       q    Type
REMARK                         _______ _______ _______ _____ _____    ______ ____
ROOT
ATOM      1  F   UNL     1       0.481  -0.723   1.123  0.00  0.00    -0.167 F 
ATOM      2  F   UNL     1       1.475   0.840  -0.028  0.00  0.00    -0.167 F 
ATOM      3  F   UNL     1       0.499  -0.823  -1.055  0.00  0.00    -0.167 F 
ATOM      4  C   UNL     1       0.405   0.018  -0.004  0.00  0.00    +0.425 C 
ENDROOT
BRANCH   4   5
ATOM      5  C   UNL     1      -0.884   0.797  -0.041  0.00  0.00    +0.242 C 
BRANCH   5   6
ATOM      6  O   UNL     1      -1.976  -0.109   0.004  0.00  0.00    -0.375 OA
ATOM      7  H   UNL     1      -2.809   0.386  -0.020  0.00  0.00    +0.211 HD
ENDBRANCH   5   6
ENDBRANCH   4   5
TORSDOF 2
