REMARK  Name = 447534
REMARK  5 active torsions:
REMARK  status: ('A' for Active; 'I' for Inactive)
REMARK    1  A    between atoms: N_2  and  C_6
REMARK    2  A    between atoms: C_3  and  P_13
REMARK    3  A    between atoms: C_5  and  C_11
REMARK    4  A    between atoms: P_13  and  O_15
REMARK    5  A    between atoms: P_13  and  O_17
REMARK                            x       y       z     vdW  Elec       q    Type
REMARK                         _______ _______ _______ _____ _____    ______ ____
ROOT
ATOM      1  O   UNL     1       1.829  -1.660  -0.022  0.00  0.00    -0.262 OA
ATOM      2  N   UNL     1       0.959   0.532   0.006  0.00  0.00    -0.274 N 
ATOM      3  C   UNL     1       1.948  -0.446   0.030  0.00  0.00    +0.329 C 
ATOM      4  H   UNL     1       1.273   1.463   0.059  0.00  0.00    +0.155 HD
ENDROOT
BRANCH   2   6
ATOM      5  C   UNL     1      -3.184   0.008  -0.265  0.00  0.00    -0.022 C 
ATOM      6  C   UNL     1      -0.422   0.357  -0.085  0.00  0.00    +0.051 C 
ATOM      7  C   UNL     1      -2.648   1.293  -0.185  0.00  0.00    -0.003 C 
ATOM      8  C   UNL     1      -2.340  -1.103  -0.255  0.00  0.00    -0.003 C 
ATOM      9  C   UNL     1      -1.267   1.467  -0.095  0.00  0.00    +0.014 C 
ATOM     10  C   UNL     1      -0.959  -0.928  -0.164  0.00  0.00    +0.014 C 
BRANCH   5  11
ATOM     11  C   UNL     1      -4.661  -0.179  -0.362  0.00  0.00    +0.026 C 
ATOM     12  C   UNL     1      -5.322  -0.303   1.008  0.00  0.00    +0.005 C 
ENDBRANCH   5  11
ENDBRANCH   2   6
BRANCH   3  13
ATOM     13  P   UNL     1       3.631   0.157   0.165  0.00  0.00    +0.412 P 
ATOM     14  O   UNL     1       3.885   0.958   1.411  0.00  0.00    -0.249 OA
BRANCH  13  15
ATOM     15  O   UNL     1       3.940   0.973  -1.201  0.00  0.00    -0.318 OA
ATOM     16  H   UNL     1       4.845   1.320  -1.173  0.00  0.00    +0.220 HD
ENDBRANCH  13  15
BRANCH  13  17
ATOM     17  O   UNL     1       4.611  -1.126   0.013  0.00  0.00    -0.318 OA
ATOM     18  H   UNL     1       5.534  -0.837   0.081  0.00  0.00    +0.220 HD
ENDBRANCH  13  17
ENDBRANCH   3  13
TORSDOF 5
