REMARK  Name = 3893
REMARK  11 active torsions:
REMARK  status: ('A' for Active; 'I' for Inactive)
REMARK    1  A    between atoms: C_1  and  C_2
REMARK    2  A    between atoms: C_1  and  C_9
REMARK    3  A    between atoms: C_2  and  C_3
REMARK    4  A    between atoms: C_3  and  C_4
REMARK    5  A    between atoms: C_4  and  C_5
REMARK    6  A    between atoms: C_5  and  C_6
REMARK    7  A    between atoms: C_6  and  C_7
REMARK    8  A    between atoms: C_9  and  C_10
REMARK    9  A    between atoms: C_10  and  C_11
REMARK   10  A    between atoms: C_11  and  C_13
REMARK   11  A    between atoms: C_13  and  O_14
REMARK                            x       y       z     vdW  Elec       q    Type
REMARK                         _______ _______ _______ _____ _____    ______ ____
ROOT
ATOM      1  C   UNL     1      -0.858  -0.274  -0.036  0.00  0.00    +0.000 C 
ENDROOT
BRANCH   1   2
ATOM      2  C   UNL     1       0.462   0.503  -0.022  0.00  0.00    +0.000 C 
BRANCH   2   3
ATOM      3  C   UNL     1       1.699  -0.398  -0.060  0.00  0.00    +0.000 C 
BRANCH   3   4
ATOM      4  C   UNL     1       2.988   0.427  -0.021  0.00  0.00    +0.000 C 
BRANCH   4   5
ATOM      5  C   UNL     1       4.223  -0.475  -0.022  0.00  0.00    +0.000 C 
BRANCH   5   6
ATOM      6  C   UNL     1       5.543   0.299   0.048  0.00  0.00    +0.000 C 
BRANCH   6   7
ATOM      7  C   UNL     1       6.816  -0.548  -0.034  0.00  0.00    +0.000 C 
ATOM      8  C   UNL     1       8.095   0.263   0.093  0.00  0.00    +0.000 C 
ENDBRANCH   6   7
ENDBRANCH   5   6
ENDBRANCH   4   5
ENDBRANCH   3   4
ENDBRANCH   2   3
ENDBRANCH   1   2
BRANCH   1   9
ATOM      9  C   UNL     1      -2.094   0.629  -0.022  0.00  0.00    +0.001 C 
BRANCH   9  10
ATOM     10  C   UNL     1      -3.383  -0.200  -0.049  0.00  0.00    +0.012 C 
BRANCH  10  11
ATOM     11  C   UNL     1      -4.637   0.669  -0.002  0.00  0.00    +0.109 C 
BRANCH  11  13
ATOM     12  O   UNL     1      -5.928  -1.371   0.065  0.00  0.00    -0.250 OA
ATOM     13  C   UNL     1      -5.904  -0.147   0.032  0.00  0.00    +0.314 C 
BRANCH  13  14
ATOM     14  O   UNL     1      -7.021   0.622   0.028  0.00  0.00    -0.480 OA
ATOM     15  H   UNL     1      -6.947   1.555   0.002  0.00  0.00    +0.295 HD
ENDBRANCH  13  14
ENDBRANCH  11  13
ENDBRANCH  10  11
ENDBRANCH   9  10
ENDBRANCH   1   9
TORSDOF 11
