REMARK  Name = 25272413
REMARK  4 active torsions:
REMARK  status: ('A' for Active; 'I' for Inactive)
REMARK    1  A    between atoms: C_3  and  C_12
REMARK    2  A    between atoms: C_12  and  CA_13
REMARK    3  A    between atoms: CA_13  and  N_14
REMARK    4  A    between atoms: CA_13  and  C_20
REMARK                            x       y       z     vdW  Elec       q    Type
REMARK                         _______ _______ _______ _____ _____    ______ ____
ROOT
ATOM      1  F   UNL     1       0.161   2.108  -0.438  0.00  0.00    -0.204 F 
ATOM      2  N   UNL     1       1.937  -2.138  -0.019  0.00  0.00    -0.312 N 
ATOM      3  C   UNL     1       0.089  -0.984  -0.443  0.00  0.00    -0.006 C 
ATOM      4  C   UNL     1       1.145  -0.060  -0.206  0.00  0.00    +0.038 C 
ATOM      5  C   UNL     1       2.293  -0.810   0.057  0.00  0.00    +0.050 C 
ATOM      6  C   UNL     1       0.606  -2.253  -0.320  0.00  0.00    +0.058 C 
ATOM      7  C   UNL     1       1.235   1.346  -0.191  0.00  0.00    +0.141 C 
ATOM      8  C   UNL     1       3.532  -0.221   0.337  0.00  0.00    +0.015 C 
ATOM      9  C   UNL     1       2.467   1.948   0.087  0.00  0.00    +0.030 C 
ATOM     10  C   UNL     1       3.596   1.175   0.346  0.00  0.00    +0.004 C 
ATOM     11  H   UNL     1       2.550  -2.895   0.123  0.00  0.00    +0.152 HD
ENDROOT
BRANCH   3  12
ATOM     12  C   UNL     1      -1.315  -0.654  -0.763  0.00  0.00    +0.017 C 
BRANCH  12  13
ATOM     13  CA  UNL     1      -2.143  -0.196   0.460  0.00  0.00    +0.045 C 
BRANCH  13  14
ATOM     14  N   UNL     1      -2.445  -1.400   1.296  0.00  0.00    +0.389 N 
ATOM     15  H1  UNL     1      -1.573  -1.860   1.558  0.00  0.00    -0.088 HD
ATOM     16  H2  UNL     1      -3.024  -2.048   0.762  0.00  0.00    -0.088 HD
ATOM     17  H3  UNL     1      -2.944  -1.113   2.138  0.00  0.00    -0.088 HD
ENDBRANCH  13  14
BRANCH  13  20
ATOM     18  O   UNL     1      -4.195  -0.126  -0.708  0.00  0.00    -0.248 OA
ATOM     19  OXT UNL     1      -3.544   1.721   0.473  0.00  0.00    -0.248 OA
ATOM     20  C   UNL     1      -3.419   0.544   0.032  0.00  0.00    +0.345 C 
ENDBRANCH  13  20
ENDBRANCH  12  13
ENDBRANCH   3  12
TORSDOF 4
