REMARK  Name = 446457
REMARK  0 active torsions:
REMARK  status: ('A' for Active; 'I' for Inactive)
REMARK                            x       y       z     vdW  Elec       q    Type
REMARK                         _______ _______ _______ _____ _____    ______ ____
ROOT
ATOM      1 CL   UNL     1       0.164   3.005   0.000  0.00  0.00    -0.085 Cl
ATOM      2  F   UNL     1       3.009  -0.964   0.000  0.00  0.00    -0.152 F 
ATOM      3  N   UNL     1       1.554   0.799  -0.001  0.00  0.00    -0.267 N 
ATOM      4  N   UNL     1       0.794  -1.470   0.000  0.00  0.00    -0.306 NA
ATOM      5  N   UNL     1      -2.116   0.625   0.000  0.00  0.00    -0.234 NA
ATOM      6  N   UNL     1      -1.609  -1.625   0.000  0.00  0.00    -0.182 NA
ATOM      7  C   UNL     1      -0.762   0.471   0.000  0.00  0.00    +0.163 C 
ATOM      8  C   UNL     1      -0.486  -0.972   0.000  0.00  0.00    +0.105 C 
ATOM      9  C   UNL     1       0.277   1.303   0.000  0.00  0.00    +0.205 C 
ATOM     10  C   UNL     1       1.731  -0.566   0.000  0.00  0.00    +0.338 C 
ATOM     11  C   UNL     1      -2.555  -0.605   0.000  0.00  0.00    +0.262 C 
ATOM     12  H   UNL     1       2.330   1.404  -0.001  0.00  0.00    +0.153 HD
ENDROOT
TORSDOF 0
