REMARK  Name = 4641
REMARK  6 active torsions:
REMARK  status: ('A' for Active; 'I' for Inactive)
REMARK    1  A    between atoms: N_3  and  C_8
REMARK    2  A    between atoms: N_4  and  C_16
REMARK    3  A    between atoms: C_5  and  C_22
REMARK    4  A    between atoms: C_13  and  O_14
REMARK    5  A    between atoms: C_22  and  C_23
REMARK    6  A    between atoms: C_23  and  C_24
REMARK                            x       y       z     vdW  Elec       q    Type
REMARK                         _______ _______ _______ _____ _____    ______ ____
ROOT
ATOM      1  O   UNL     1       1.773   1.304  -2.223  0.00  0.00    -0.272 OA
ATOM      2  O   UNL     1       1.719  -2.874  -0.034  0.00  0.00    -0.272 OA
ATOM      3  N   UNL     1       0.185   0.175  -0.856  0.00  0.00    -0.179 N 
ATOM      4  N   UNL     1       0.127  -1.123  -0.292  0.00  0.00    -0.179 N 
ATOM      5  C   UNL     1       2.202  -0.893  -1.323  0.00  0.00    +0.157 C 
ATOM      6  C   UNL     1       1.375   0.344  -1.580  0.00  0.00    +0.254 C 
ATOM      7  C   UNL     1       1.361  -1.775  -0.431  0.00  0.00    +0.254 C 
ENDROOT
BRANCH   3   8
ATOM      8  C   UNL     1      -0.598   1.282  -0.406  0.00  0.00    +0.074 C 
ATOM      9  C   UNL     1      -0.608   2.474  -1.133  0.00  0.00    +0.020 C 
ATOM     10  C   UNL     1      -1.356   1.175   0.762  0.00  0.00    +0.020 C 
ATOM     11  C   UNL     1      -1.371   3.556  -0.692  0.00  0.00    +0.038 C 
ATOM     12  C   UNL     1      -2.119   2.256   1.202  0.00  0.00    +0.038 C 
ATOM     13  C   UNL     1      -2.127   3.447   0.475  0.00  0.00    +0.134 C 
BRANCH  13  14
ATOM     14  O   UNL     1      -2.874   4.501   0.903  0.00  0.00    -0.506 OA
ATOM     15  H   UNL     1      -2.879   5.300   0.415  0.00  0.00    +0.292 HD
ENDBRANCH  13  14
ENDBRANCH   3   8
BRANCH   4  16
ATOM     16  C   UNL     1      -1.085  -1.825  -0.013  0.00  0.00    +0.073 C 
ATOM     17  C   UNL     1      -1.054  -3.011   0.724  0.00  0.00    +0.017 C 
ATOM     18  C   UNL     1      -2.306  -1.328  -0.475  0.00  0.00    +0.017 C 
ATOM     19  C   UNL     1      -2.238  -3.696   0.997  0.00  0.00    +0.001 C 
ATOM     20  C   UNL     1      -3.489  -2.013  -0.202  0.00  0.00    +0.001 C 
ATOM     21  C   UNL     1      -3.455  -3.198   0.534  0.00  0.00    +0.000 C 
ENDBRANCH   4  16
BRANCH   5  22
ATOM     22  C   UNL     1       3.525  -0.551  -0.663  0.00  0.00    +0.018 C 
BRANCH  22  23
ATOM     23  C   UNL     1       3.317   0.158   0.675  0.00  0.00    +0.001 C 
BRANCH  23  24
ATOM     24  C   UNL     1       4.651   0.471   1.352  0.00  0.00    +0.000 C 
ATOM     25  C   UNL     1       4.447   1.146   2.699  0.00  0.00    +0.000 C 
ENDBRANCH  23  24
ENDBRANCH  22  23
ENDBRANCH   5  22
TORSDOF 6
