REMARK  Name = 446753
REMARK  4 active torsions:
REMARK  status: ('A' for Active; 'I' for Inactive)
REMARK    1  A    between atoms: C_8  and  C_18
REMARK    2  A    between atoms: C_19  and  C_20
REMARK    3  A    between atoms: C_21  and  O_26
REMARK    4  A    between atoms: C_23  and  O_28
REMARK                            x       y       z     vdW  Elec       q    Type
REMARK                         _______ _______ _______ _____ _____    ______ ____
ROOT
ATOM      1  N   UNL     1       1.590  -2.140  -0.521  0.00  0.00    -0.181 NA
ATOM      2  N   UNL     1       3.520  -1.080  -1.238  0.00  0.00    -0.273 NA
ATOM      3  N   UNL     1       4.235   1.012  -0.283  0.00  0.00    -0.312 NA
ATOM      4  N   UNL     1       3.011   2.047   1.396  0.00  0.00    -0.332 N 
ATOM      5  N   UNL     1       5.479  -0.020  -1.976  0.00  0.00    -0.283 N 
ATOM      6  C   UNL     1       1.093  -0.118   1.310  0.00  0.00    -0.006 C 
ATOM      7  C   UNL     1       2.221  -0.078   0.476  0.00  0.00    +0.115 C 
ATOM      8  C   UNL     1       0.214  -1.183   1.219  0.00  0.00    +0.017 C 
ATOM      9  C   UNL     1       2.446  -1.113  -0.440  0.00  0.00    +0.104 C 
ATOM     10  C   UNL     1       0.771   0.943   2.319  0.00  0.00    +0.032 C 
ATOM     11  C   UNL     1       3.150   0.959   0.508  0.00  0.00    +0.201 C 
ATOM     12  C   UNL     1       0.506  -2.161   0.293  0.00  0.00    +0.110 C 
ATOM     13  C   UNL     1       4.356  -0.027  -1.121  0.00  0.00    +0.206 C 
ATOM     14  H   UNL     1       3.681   2.768   1.401  0.00  0.00    +0.145 HD
ATOM     15  H   UNL     1       2.243   2.086   2.011  0.00  0.00    +0.145 HD
ATOM     16  H   UNL     1       5.618  -0.758  -2.613  0.00  0.00    +0.156 HD
ATOM     17  H   UNL     1       6.124   0.723  -1.936  0.00  0.00    +0.156 HD
ENDROOT
BRANCH   8  18
ATOM     18  C   UNL     1      -0.979  -1.309   2.041  0.00  0.00    +0.001 C 
ATOM     19  C   UNL     1      -2.211  -0.861   1.703  0.00  0.00    +0.003 C 
BRANCH  19  20
ATOM     20  C   UNL     1      -2.548  -0.171   0.445  0.00  0.00    +0.037 C 
ATOM     21  C   UNL     1      -2.989  -0.890  -0.655  0.00  0.00    +0.139 C 
ATOM     22  C   UNL     1      -2.412   1.209   0.394  0.00  0.00    +0.040 C 
ATOM     23  C   UNL     1      -2.725   1.884  -0.786  0.00  0.00    +0.139 C 
ATOM     24  C   UNL     1      -3.302  -0.214  -1.834  0.00  0.00    +0.040 C 
ATOM     25  C   UNL     1      -3.170   1.173  -1.900  0.00  0.00    +0.040 C 
BRANCH  21  26
ATOM     26  O   UNL     1      -3.128  -2.246  -0.618  0.00  0.00    -0.471 OA
ATOM     27  C   UNL     1      -4.394  -2.756  -0.207  0.00  0.00    +0.252 C 
ENDBRANCH  21  26
BRANCH  23  28
ATOM     28  O   UNL     1      -2.597   3.238  -0.850  0.00  0.00    -0.471 OA
ATOM     29  C   UNL     1      -2.137   3.903   0.326  0.00  0.00    +0.252 C 
ENDBRANCH  23  28
ENDBRANCH  19  20
ENDBRANCH   8  18
TORSDOF 4
