REMARK  Name = 7111748
REMARK  4 active torsions:
REMARK  status: ('A' for Active; 'I' for Inactive)
REMARK    1  A    between atoms: CA_1  and  N_2
REMARK    2  A    between atoms: CA_1  and  C_8
REMARK    3  A    between atoms: CA_1  and  C_9
REMARK    4  A    between atoms: C_9  and  C_11
REMARK                            x       y       z     vdW  Elec       q    Type
REMARK                         _______ _______ _______ _____ _____    ______ ____
ROOT
ATOM      1  CA  UNL     1      -1.540  -0.638   0.374  0.00  0.00    +0.045 C 
ENDROOT
BRANCH   1   2
ATOM      2  N   UNL     1      -2.771  -1.443   0.094  0.00  0.00    +0.389 N 
ATOM      3  H1  UNL     1      -2.588  -2.426   0.299  0.00  0.00    -0.088 HD
ATOM      4  H2  UNL     1      -3.026  -1.343  -0.889  0.00  0.00    -0.088 HD
ATOM      5  H3  UNL     1      -3.536  -1.110   0.680  0.00  0.00    -0.088 HD
ENDBRANCH   1   2
BRANCH   1   8
ATOM      6  O   UNL     1      -1.997   1.130  -1.125  0.00  0.00    -0.248 OA
ATOM      7  OXT UNL     1      -1.661   1.625   1.082  0.00  0.00    -0.248 OA
ATOM      8  C   UNL     1      -1.750   0.856   0.084  0.00  0.00    +0.345 C 
ENDBRANCH   1   8
BRANCH   1   9
ATOM      9  C   UNL     1      -0.409  -1.235  -0.473  0.00  0.00    +0.022 C 
BRANCH   9  11
ATOM     10  S   UNL     1       1.773   0.152  -1.436  0.00  0.00    -0.091 S 
ATOM     11  C   UNL     1       0.929  -0.600  -0.171  0.00  0.00    +0.006 C 
ATOM     12  C   UNL     1       1.567  -0.551   1.027  0.00  0.00    +0.003 C 
ATOM     13  C   UNL     1       2.811   0.135   0.914  0.00  0.00    +0.007 C 
ATOM     14  C   UNL     1       3.047   0.570  -0.371  0.00  0.00    +0.035 C 
ENDBRANCH   9  11
ENDBRANCH   1   9
TORSDOF 4
