REMARK  Name = 168120
REMARK  8 active torsions:
REMARK  status: ('A' for Active; 'I' for Inactive)
REMARK    1  A    between atoms: C_2  and  O_19
REMARK    2  A    between atoms: C_3  and  O_21
REMARK    3  A    between atoms: C_4  and  N_7
REMARK    4  A    between atoms: C_5  and  C_23
REMARK    5  A    between atoms: C_23  and  O_24
REMARK    6  A    between atoms: O_24  and  P_25
REMARK    7  A    between atoms: P_25  and  O_27
REMARK    8  A    between atoms: P_25  and  O_29
REMARK                            x       y       z     vdW  Elec       q    Type
REMARK                         _______ _______ _______ _____ _____    ______ ____
ROOT
ATOM      1  O   UNL     1       0.572  -1.097   1.017  0.00  0.00    -0.333 OA
ATOM      2  C   UNL     1      -0.153  -2.296  -0.893  0.00  0.00    +0.187 C 
ATOM      3  C   UNL     1       1.259  -2.740  -0.562  0.00  0.00    +0.171 C 
ATOM      4  C   UNL     1      -0.600  -1.699   0.433  0.00  0.00    +0.229 C 
ATOM      5  C   UNL     1       1.745  -1.623   0.355  0.00  0.00    +0.176 C 
ENDROOT
BRANCH   4   7
ATOM      6 BR   UNL     1      -3.834  -2.590   0.759  0.00  0.00    +0.004 Br
ATOM      7  N   UNL     1      -1.658  -0.699   0.309  0.00  0.00    -0.215 N 
ATOM      8  N   UNL     1      -3.700   0.203   0.259  0.00  0.00    -0.374 NA
ATOM      9  N   UNL     1      -0.321   1.286  -0.112  0.00  0.00    -0.227 NA
ATOM     10  N   UNL     1      -1.725   3.263  -0.385  0.00  0.00    -0.227 NA
ATOM     11  C   UNL     1      -1.481   0.635   0.064  0.00  0.00    +0.169 C 
ATOM     12  C   UNL     1      -3.009  -0.907   0.417  0.00  0.00    +0.225 C 
ATOM     13  C   UNL     1      -2.757   1.175   0.038  0.00  0.00    +0.196 C 
ATOM     14  C   UNL     1      -2.857   2.542  -0.198  0.00  0.00    +0.155 C 
ATOM     15  C   UNL     1      -0.545   2.600  -0.332  0.00  0.00    +0.253 C 
ATOM     16  N   UNL     1      -4.112   3.173  -0.242  0.00  0.00    -0.341 N 
ATOM     17  H   UNL     1      -4.170   4.142  -0.409  0.00  0.00    +0.144 HD
ATOM     18  H   UNL     1      -4.933   2.647  -0.106  0.00  0.00    +0.144 HD
ENDBRANCH   4   7
BRANCH   2  19
ATOM     19  O   UNL     1      -0.987  -3.361  -1.299  0.00  0.00    -0.378 OA
ATOM     20  H   UNL     1      -0.671  -3.715  -2.145  0.00  0.00    +0.211 HD
ENDBRANCH   2  19
BRANCH   3  21
ATOM     21  O   UNL     1       1.212  -3.958   0.180  0.00  0.00    -0.379 OA
ATOM     22  H   UNL     1       0.904  -4.676  -0.394  0.00  0.00    +0.211 HD
ENDBRANCH   3  21
BRANCH   5  23
ATOM     23  C   UNL     1       2.420  -0.486  -0.400  0.00  0.00    +0.186 C 
BRANCH  23  24
ATOM     24  O   UNL     1       2.824   0.501   0.532  0.00  0.00    -0.271 OA
BRANCH  24  25
ATOM     25  P   UNL     1       4.131   1.395   0.193  0.00  0.00    +0.473 P 
ATOM     26  O   UNL     1       4.488   2.415   1.234  0.00  0.00    -0.227 OA
BRANCH  25  27
ATOM     27  O   UNL     1       3.818   1.988  -1.278  0.00  0.00    -0.303 OA
ATOM     28  H   UNL     1       3.599   1.260  -1.881  0.00  0.00    +0.222 HD
ENDBRANCH  25  27
BRANCH  25  29
ATOM     29  O   UNL     1       5.268   0.280  -0.089  0.00  0.00    -0.303 OA
ATOM     30  H   UNL     1       4.955  -0.335  -0.771  0.00  0.00    +0.222 HD
ENDBRANCH  25  29
ENDBRANCH  24  25
ENDBRANCH  23  24
ENDBRANCH   5  23
TORSDOF 8
