REMARK  Name = 54682930
REMARK  1 active torsions:
REMARK  status: ('A' for Active; 'I' for Inactive)
REMARK    1  A    between atoms: C_5  and  O_12
REMARK                            x       y       z     vdW  Elec       q    Type
REMARK                         _______ _______ _______ _____ _____    ______ ____
ROOT
ATOM      1  O   UNL     1      -0.914  -1.434  -0.020  0.00  0.00    -0.421 OA
ATOM      2  O   UNL     1      -3.194  -1.258   0.028  0.00  0.00    -0.244 OA
ATOM      3  C   UNL     1       0.455   0.594  -0.006  0.00  0.00    +0.069 C 
ATOM      4  C   UNL     1       0.347  -0.799  -0.017  0.00  0.00    +0.152 C 
ATOM      5  C   UNL     1      -0.788   1.373  -0.010  0.00  0.00    +0.143 C 
ATOM      6  C   UNL     1       1.745   1.140   0.021  0.00  0.00    +0.006 C 
ATOM      7  C   UNL     1       1.464  -1.638  -0.017  0.00  0.00    +0.038 C 
ATOM      8  C   UNL     1      -1.972   0.754   0.004  0.00  0.00    +0.119 C 
ATOM      9  C   UNL     1       2.875   0.312   0.023  0.00  0.00    +0.000 C 
ATOM     10  C   UNL     1       2.734  -1.074   0.002  0.00  0.00    +0.003 C 
ATOM     11  C   UNL     1      -2.097  -0.712   0.008  0.00  0.00    +0.349 C 
ENDROOT
BRANCH   5  12
ATOM     12  O   UNL     1      -0.655   2.743  -0.017  0.00  0.00    -0.505 OA
ATOM     13  H   UNL     1       0.198   3.131  -0.026  0.00  0.00    +0.292 HD
ENDBRANCH   5  12
TORSDOF 1
