REMARK  Name = 5289024
REMARK  4 active torsions:
REMARK  status: ('A' for Active; 'I' for Inactive)
REMARK    1  A    between atoms: C_5  and  O_11
REMARK    2  A    between atoms: C_6  and  O_13
REMARK    3  A    between atoms: C_8  and  C_15
REMARK    4  A    between atoms: C_15  and  O_16
REMARK                            x       y       z     vdW  Elec       q    Type
REMARK                         _______ _______ _______ _____ _____    ______ ____
ROOT
ATOM      1  S   UNL     1       1.359   1.776  -0.460  0.00  0.00    -0.069 S 
ATOM      2  O   UNL     1      -0.975   1.097   0.805  0.00  0.00    -0.340 OA
ATOM      3  N   UNL     1       2.381  -0.472   0.417  0.00  0.00    -0.264 NA
ATOM      4  C   UNL     1       0.956  -0.479   0.840  0.00  0.00    +0.170 C 
ATOM      5  C   UNL     1       0.175  -1.413  -0.089  0.00  0.00    +0.165 C 
ATOM      6  C   UNL     1      -1.329  -1.171   0.010  0.00  0.00    +0.169 C 
ATOM      7  C   UNL     1       0.436   0.961   0.862  0.00  0.00    +0.192 C 
ATOM      8  C   UNL     1      -1.636   0.314  -0.189  0.00  0.00    +0.175 C 
ATOM      9  C   UNL     1       2.629   0.594  -0.271  0.00  0.00    +0.082 C 
ATOM     10  C   UNL     1       3.956   0.883  -0.886  0.00  0.00    +0.059 C 
ENDROOT
BRANCH   5  11
ATOM     11  O   UNL     1       0.461  -2.762   0.289  0.00  0.00    -0.380 OA
ATOM     12  H   UNL     1       1.416  -2.920   0.227  0.00  0.00    +0.211 HD
ENDBRANCH   5  11
BRANCH   6  13
ATOM     13  O   UNL     1      -1.966  -1.952  -0.999  0.00  0.00    -0.379 OA
ATOM     14  H   UNL     1      -1.762  -2.890  -0.859  0.00  0.00    +0.211 HD
ENDBRANCH   6  13
BRANCH   8  15
ATOM     15  C   UNL     1      -3.127   0.617  -0.071  0.00  0.00    +0.169 C 
BRANCH  15  16
ATOM     16  O   UNL     1      -3.320   2.007  -0.257  0.00  0.00    -0.379 OA
ATOM     17  H   UNL     1      -4.265   2.215  -0.185  0.00  0.00    +0.211 HD
ENDBRANCH  15  16
ENDBRANCH   8  15
TORSDOF 4
