REMARK  Name = 5289470
REMARK  14 active torsions:
REMARK  status: ('A' for Active; 'I' for Inactive)
REMARK    1  A    between atoms: CA_1  and  C_4
REMARK    2  A    between atoms: CA_1  and  N_21
REMARK    3  A    between atoms: CA_1  and  CB_34
REMARK    4  A    between atoms: N_3  and  CA_6
REMARK    5  A    between atoms: CA_6  and  C_8
REMARK    6  A    between atoms: CA_6  and  CB_11
REMARK    7  A    between atoms: C_8  and  O_9
REMARK    8  A    between atoms: CB_11  and  CG_12
REMARK    9  A    between atoms: CZ_17  and  OH_18
REMARK   10  A    between atoms: C_22  and  C_24
REMARK   11  A    between atoms: C_24  and  S_25
REMARK   12  A    between atoms: C_24  and  C_27
REMARK   13  A    between atoms: C_27  and  C_28
REMARK   14  A    between atoms: CB_34  and  CG_35
REMARK                            x       y       z     vdW  Elec       q    Type
REMARK                         _______ _______ _______ _____ _____    ______ ____
ROOT
ATOM      1  CA  UNL     1      -1.787  -0.202  -0.272  0.00  0.00    +0.153 C 
ENDROOT
BRANCH   1   4
ATOM      2  O   UNL     1       0.126  -0.577  -1.712  0.00  0.00    -0.273 OA
ATOM      3  N   UNL     1      -0.539  -2.270  -0.269  0.00  0.00    -0.295 N 
ATOM      4  C   UNL     1      -0.638  -1.016  -0.855  0.00  0.00    +0.241 C 
ATOM      5  H   UNL     1      -1.206  -2.523   0.410  0.00  0.00    +0.150 HD
BRANCH   3   6
ATOM      6  CA  UNL     1       0.494  -3.224  -0.604  0.00  0.00    +0.176 C 
BRANCH   6   8
ATOM      7  OXT UNL     1       0.589  -5.389  -1.679  0.00  0.00    -0.248 OA
ATOM      8  C   UNL     1      -0.099  -4.474  -1.237  0.00  0.00    +0.332 C 
BRANCH   8   9
ATOM      9  O   UNL     1      -1.452  -4.508  -1.272  0.00  0.00    -0.479 OA
ATOM     10  H   UNL     1      -1.948  -3.792  -0.926  0.00  0.00    +0.295 HD
ENDBRANCH   8   9
ENDBRANCH   6   8
BRANCH   6  11
ATOM     11  CB  UNL     1       1.318  -3.604   0.633  0.00  0.00    +0.057 C 
BRANCH  11  12
ATOM     12  CG  UNL     1       2.335  -2.554   1.008  0.00  0.00    -0.020 C 
ATOM     13  CD1 UNL     1       3.623  -2.606   0.474  0.00  0.00    -0.001 C 
ATOM     14  CD2 UNL     1       1.988  -1.531   1.891  0.00  0.00    -0.001 C 
ATOM     15  CE1 UNL     1       4.563  -1.636   0.822  0.00  0.00    +0.036 C 
ATOM     16  CE2 UNL     1       2.928  -0.561   2.239  0.00  0.00    +0.036 C 
ATOM     17  CZ  UNL     1       4.215  -0.614   1.705  0.00  0.00    +0.134 C 
BRANCH  17  18
ATOM     18  OH  UNL     1       5.132   0.333   2.044  0.00  0.00    -0.506 OA
ATOM     19  HH  UNL     1       5.997   0.297   1.685  0.00  0.00    +0.292 HD
ENDBRANCH  17  18
ENDBRANCH  11  12
ENDBRANCH   6  11
ENDBRANCH   3   6
ENDBRANCH   1   4
BRANCH   1  21
ATOM     20  O   UNL     1      -0.333   1.018   1.882  0.00  0.00    -0.274 OA
ATOM     21  N   UNL     1      -1.345   1.168  -0.200  0.00  0.00    -0.297 N 
ATOM     22  C   ACE A   0      -0.644   1.671   0.888  0.00  0.00    +0.232 C 
ATOM     23  H   UNL     1      -1.548   1.771  -0.952  0.00  0.00    +0.150 HD
BRANCH  22  24
ATOM     24  C   UNL     1      -0.311   3.153   0.741  0.00  0.00    +0.124 C 
BRANCH  24  25
ATOM     25  S   UNL     1      -1.220   4.031   2.063  0.00  0.00    -0.159 S 
ATOM     26  H   UNL     1      -2.552   3.787   1.936  0.00  0.00    +0.103 HD
ENDBRANCH  24  25
BRANCH  24  27
ATOM     27  C   UNL     1       1.192   3.427   0.882  0.00  0.00    +0.046 C 
BRANCH  27  28
ATOM     28  C   UNL     1       1.937   3.204  -0.415  0.00  0.00    -0.021 C 
ATOM     29  C   UNL     1       2.462   1.947  -0.711  0.00  0.00    -0.004 C 
ATOM     30  C   UNL     1       2.098   4.257  -1.316  0.00  0.00    -0.004 C 
ATOM     31  C   UNL     1       3.149   1.742  -1.908  0.00  0.00    -0.000 C 
ATOM     32  C   UNL     1       2.785   4.052  -2.513  0.00  0.00    -0.000 C 
ATOM     33  C   UNL     1       3.310   2.794  -2.809  0.00  0.00    -0.000 C 
ENDBRANCH  27  28
ENDBRANCH  24  27
ENDBRANCH  22  24
ENDBRANCH   1  21
BRANCH   1  34
ATOM     34  CB  UNL     1      -3.044  -0.360  -1.134  0.00  0.00    +0.055 C 
BRANCH  34  35
ATOM     35  CG  UNL     1      -4.306   0.029  -0.404  0.00  0.00    -0.020 C 
ATOM     36  CD1 UNL     1      -4.765   1.345  -0.456  0.00  0.00    -0.004 C 
ATOM     37  CD2 UNL     1      -5.013  -0.928   0.325  0.00  0.00    -0.004 C 
ATOM     38  CE1 UNL     1      -5.931   1.704   0.220  0.00  0.00    -0.000 C 
ATOM     39  CE2 UNL     1      -6.179  -0.568   1.001  0.00  0.00    -0.000 C 
ATOM     40  CZ  UNL     1      -6.638   0.748   0.948  0.00  0.00    -0.000 C 
ENDBRANCH  34  35
ENDBRANCH   1  34
TORSDOF 14
