REMARK  Name = 3022
REMARK  4 active torsions:
REMARK  status: ('A' for Active; 'I' for Inactive)
REMARK    1  A    between atoms: C_6  and  C_15
REMARK    2  A    between atoms: C_7  and  C_19
REMARK    3  A    between atoms: C_15  and  O_16
REMARK    4  A    between atoms: C_19  and  O_20
REMARK                            x       y       z     vdW  Elec       q    Type
REMARK                         _______ _______ _______ _____ _____    ______ ____
ROOT
ATOM      1  O   UNL     1       0.000  -0.664   0.001  0.00  0.00    -0.453 OA
ATOM      2  C   UNL     1       0.713   1.482   0.000  0.00  0.00    +0.038 A 
ATOM      3  C   UNL     1      -0.713   1.482   0.000  0.00  0.00    +0.038 A 
ATOM      4  C   UNL     1       1.096   0.145   0.001  0.00  0.00    +0.151 A 
ATOM      5  C   UNL     1      -1.096   0.145   0.001  0.00  0.00    +0.151 A 
ATOM      6  C   UNL     1       2.421  -0.289   0.001  0.00  0.00    +0.110 C 
ATOM      7  C   UNL     1      -2.421  -0.289   0.000  0.00  0.00    +0.110 C 
ATOM      8  C   UNL     1       1.719   2.466   0.000  0.00  0.00    +0.003 C 
ATOM      9  C   UNL     1      -1.719   2.466   0.000  0.00  0.00    +0.003 C 
ATOM     10  C   UNL     1       3.402   0.706   0.000  0.00  0.00    +0.010 C 
ATOM     11  C   UNL     1      -3.402   0.706   0.000  0.00  0.00    +0.010 C 
ATOM     12  C   UNL     1       3.060   2.060   0.000  0.00  0.00    +0.000 C 
ATOM     13  C   UNL     1      -3.060   2.060  -0.001  0.00  0.00    +0.000 C 
ENDROOT
BRANCH   6  15
ATOM     14  O   UNL     1       1.966  -2.638   0.001  0.00  0.00    -0.245 OA
ATOM     15  C   UNL     1       2.770  -1.697   0.000  0.00  0.00    +0.341 C 
BRANCH  15  16
ATOM     16  O   UNL     1       4.117  -1.903  -0.002  0.00  0.00    -0.477 OA
ATOM     17  H   UNL     1       4.703  -1.173  -0.003  0.00  0.00    +0.295 HD
ENDBRANCH  15  16
ENDBRANCH   6  15
BRANCH   7  19
ATOM     18  O   UNL     1      -1.966  -2.638   0.000  0.00  0.00    -0.245 OA
ATOM     19  C   UNL     1      -2.769  -1.697   0.000  0.00  0.00    +0.341 C 
BRANCH  19  20
ATOM     20  O   UNL     1      -4.117  -1.904   0.000  0.00  0.00    -0.477 OA
ATOM     21  H   UNL     1      -4.703  -1.173  -0.001  0.00  0.00    +0.295 HD
ENDBRANCH  19  20
ENDBRANCH   7  19
TORSDOF 4
