REMARK  Name = 2396
REMARK  6 active torsions:
REMARK  status: ('A' for Active; 'I' for Inactive)
REMARK    1  A    between atoms: C_4  and  C_20
REMARK    2  A    between atoms: C_5  and  C_10
REMARK    3  A    between atoms: N_19  and  C_28
REMARK    4  A    between atoms: C_28  and  C_29
REMARK    5  A    between atoms: C_29  and  C_30
REMARK    6  A    between atoms: C_30  and  N_31
REMARK                            x       y       z     vdW  Elec       q    Type
REMARK                         _______ _______ _______ _____ _____    ______ ____
ROOT
ATOM      1  O   UNL     1      -1.670   3.971  -0.914  0.00  0.00    -0.270 OA
ATOM      2  O   UNL     1      -4.543   0.578  -2.003  0.00  0.00    -0.270 OA
ATOM      3  N   UNL     1      -3.374   2.539  -1.575  0.00  0.00    -0.248 N 
ATOM      4  C   UNL     1      -1.465   1.575  -0.780  0.00  0.00    +0.059 C 
ATOM      5  C   UNL     1      -2.314   0.577  -1.090  0.00  0.00    +0.059 C 
ATOM      6  C   UNL     1      -2.143   2.860  -1.087  0.00  0.00    +0.252 C 
ATOM      7  C   UNL     1      -3.563   1.189  -1.613  0.00  0.00    +0.252 C 
ATOM      8  H   UNL     1      -4.045   3.199  -1.865  0.00  0.00    +0.158 HD
ENDROOT
BRANCH   5  10
ATOM      9  N   UNL     1      -1.593  -2.918  -1.545  0.00  0.00    -0.312 N 
ATOM     10  C   UNL     1      -2.131  -0.837  -0.991  0.00  0.00    +0.020 C 
ATOM     11  C   UNL     1      -2.424  -1.682   0.116  0.00  0.00    +0.015 C 
ATOM     12  C   UNL     1      -2.077  -2.982  -0.258  0.00  0.00    +0.048 C 
ATOM     13  C   UNL     1      -1.621  -1.626  -1.996  0.00  0.00    +0.062 C 
ATOM     14  C   UNL     1      -2.953  -1.465   1.404  0.00  0.00    +0.001 C 
ATOM     15  C   UNL     1      -2.233  -4.080   0.596  0.00  0.00    +0.015 C 
ATOM     16  C   UNL     1      -3.114  -2.554   2.268  0.00  0.00    +0.000 C 
ATOM     17  C   UNL     1      -2.759  -3.840   1.869  0.00  0.00    +0.001 C 
ATOM     18  H   UNL     1      -1.272  -3.690  -2.065  0.00  0.00    +0.152 HD
ENDBRANCH   5  10
BRANCH   4  20
ATOM     19  N   UNL     1       2.070   1.386  -0.118  0.00  0.00    -0.286 N 
ATOM     20  C   UNL     1      -0.147   1.510  -0.231  0.00  0.00    +0.021 C 
ATOM     21  C   UNL     1       1.627   1.436   1.185  0.00  0.00    +0.052 C 
ATOM     22  C   UNL     1       0.234   1.515   1.143  0.00  0.00    +0.015 C 
ATOM     23  C   UNL     1       1.007   1.430  -0.980  0.00  0.00    +0.066 C 
ATOM     24  C   UNL     1       2.347   1.418   2.385  0.00  0.00    +0.015 C 
ATOM     25  C   UNL     1      -0.479   1.579   2.357  0.00  0.00    +0.001 C 
ATOM     26  C   UNL     1       1.619   1.483   3.576  0.00  0.00    +0.001 C 
ATOM     27  C   UNL     1       0.228   1.562   3.565  0.00  0.00    +0.000 C 
BRANCH  19  28
ATOM     28  C   UNL     1       3.453   1.300  -0.534  0.00  0.00    +0.093 C 
BRANCH  28  29
ATOM     29  C   UNL     1       3.924  -0.147  -0.673  0.00  0.00    -0.001 C 
BRANCH  29  30
ATOM     30  C   UNL     1       5.388  -0.209  -1.101  0.00  0.00    -0.076 C 
BRANCH  30  31
ATOM     31  N   UNL     1       5.815  -1.595  -1.250  0.00  0.00    +0.384 N 
ATOM     32  C   UNL     1       5.702  -2.308   0.024  0.00  0.00    -0.101 C 
ATOM     33  C   UNL     1       7.190  -1.661  -1.748  0.00  0.00    -0.101 C 
ATOM     34  H   UNL     1       5.202  -2.046  -1.929  0.00  0.00    -0.080 HD
ENDBRANCH  30  31
ENDBRANCH  29  30
ENDBRANCH  28  29
ENDBRANCH  19  28
ENDBRANCH   4  20
TORSDOF 6
