REMARK  Name = 446857
REMARK  8 active torsions:
REMARK  status: ('A' for Active; 'I' for Inactive)
REMARK    1  A    between atoms: C_2  and  O_15
REMARK    2  A    between atoms: C_3  and  O_17
REMARK    3  A    between atoms: C_4  and  N_6
REMARK    4  A    between atoms: C_5  and  C_19
REMARK    5  A    between atoms: C_19  and  O_20
REMARK    6  A    between atoms: O_20  and  P_21
REMARK    7  A    between atoms: P_21  and  O_23
REMARK    8  A    between atoms: P_21  and  O_25
REMARK                            x       y       z     vdW  Elec       q    Type
REMARK                         _______ _______ _______ _____ _____    ______ ____
ROOT
ATOM      1  O   UNL     1       0.734   0.089   0.056  0.00  0.00    -0.333 OA
ATOM      2  C   UNL     1      -0.328  -2.036  -0.147  0.00  0.00    +0.187 C 
ATOM      3  C   UNL     1       1.155  -2.191  -0.416  0.00  0.00    +0.171 C 
ATOM      4  C   UNL     1      -0.489  -0.537  -0.391  0.00  0.00    +0.224 C 
ATOM      5  C   UNL     1       1.721  -0.942   0.250  0.00  0.00    +0.176 C 
ENDROOT
BRANCH   4   6
ATOM      6  N   UNL     1      -1.645   0.087   0.241  0.00  0.00    -0.253 N 
ATOM      7  N   UNL     1      -2.872   1.097   1.814  0.00  0.00    -0.196 NA
ATOM      8  N   UNL     1      -4.916   1.277   0.510  0.00  0.00    -0.170 NA
ATOM      9  N   UNL     1      -4.736   0.355  -1.741  0.00  0.00    -0.220 NA
ATOM     10  C   UNL     1      -2.882   0.286  -0.313  0.00  0.00    +0.134 C 
ATOM     11  C   UNL     1      -1.693   0.592   1.518  0.00  0.00    +0.233 C 
ATOM     12  C   UNL     1      -3.622   0.912   0.681  0.00  0.00    +0.050 C 
ATOM     13  C   UNL     1      -3.446   0.003  -1.542  0.00  0.00    +0.126 C 
ATOM     14  C   UNL     1      -5.382   0.962  -0.718  0.00  0.00    +0.209 C 
ENDBRANCH   4   6
BRANCH   2  15
ATOM     15  O   UNL     1      -0.612  -2.358   1.212  0.00  0.00    -0.378 OA
ATOM     16  H   UNL     1      -0.504  -3.313   1.347  0.00  0.00    +0.211 HD
ENDBRANCH   2  15
BRANCH   3  17
ATOM     17  O   UNL     1       1.703  -3.373   0.126  0.00  0.00    -0.379 OA
ATOM     18  H   UNL     1       1.319  -4.143  -0.322  0.00  0.00    +0.211 HD
ENDBRANCH   3  17
BRANCH   5  19
ATOM     19  C   UNL     1       3.047  -0.496  -0.339  0.00  0.00    +0.186 C 
BRANCH  19  20
ATOM     20  O   UNL     1       3.479   0.672   0.339  0.00  0.00    -0.271 OA
BRANCH  20  21
ATOM     21  P   UNL     1       4.880   1.349  -0.107  0.00  0.00    +0.473 P 
ATOM     22  O   UNL     1       5.262   2.581   0.661  0.00  0.00    -0.227 OA
BRANCH  21  23
ATOM     23  O   UNL     1       4.717   1.552  -1.703  0.00  0.00    -0.303 OA
ATOM     24  H   UNL     1       4.471   0.708  -2.113  0.00  0.00    +0.222 HD
ENDBRANCH  21  23
BRANCH  21  25
ATOM     25  O   UNL     1       5.926   0.121   0.007  0.00  0.00    -0.303 OA
ATOM     26  H   UNL     1       5.603  -0.629  -0.516  0.00  0.00    +0.222 HD
ENDBRANCH  21  25
ENDBRANCH  20  21
ENDBRANCH  19  20
ENDBRANCH   5  19
TORSDOF 8
