REMARK  Name = 446856
REMARK  8 active torsions:
REMARK  status: ('A' for Active; 'I' for Inactive)
REMARK    1  A    between atoms: C_2  and  O_15
REMARK    2  A    between atoms: C_3  and  N_6
REMARK    3  A    between atoms: C_4  and  O_17
REMARK    4  A    between atoms: C_5  and  C_19
REMARK    5  A    between atoms: C_19  and  O_20
REMARK    6  A    between atoms: O_20  and  P_21
REMARK    7  A    between atoms: P_21  and  O_23
REMARK    8  A    between atoms: P_21  and  O_25
REMARK                            x       y       z     vdW  Elec       q    Type
REMARK                         _______ _______ _______ _____ _____    ______ ____
ROOT
ATOM      1  O   UNL     1       0.741   0.093   0.066  0.00  0.00    -0.333 OA
ATOM      2  C   UNL     1      -0.326  -2.029  -0.143  0.00  0.00    +0.187 C 
ATOM      3  C   UNL     1      -0.486  -0.529  -0.378  0.00  0.00    +0.224 C 
ATOM      4  C   UNL     1       1.156  -2.185  -0.422  0.00  0.00    +0.171 C 
ATOM      5  C   UNL     1       1.728  -0.941   0.248  0.00  0.00    +0.176 C 
ENDROOT
BRANCH   3   6
ATOM      6  N   UNL     1      -1.637   0.093   0.265  0.00  0.00    -0.262 N 
ATOM      7  N   UNL     1      -2.848   1.090   1.850  0.00  0.00    -0.251 NA
ATOM      8  C   UNL     1      -2.882   0.293  -0.285  0.00  0.00    +0.065 C 
ATOM      9  C   UNL     1      -1.673   0.589   1.544  0.00  0.00    +0.221 C 
ATOM     10  C   UNL     1      -3.616   0.915   0.722  0.00  0.00    +0.073 C 
ATOM     11  C   UNL     1      -3.409  -0.009  -1.541  0.00  0.00    +0.015 C 
ATOM     12  C   UNL     1      -4.956   1.262   0.479  0.00  0.00    +0.073 C 
ATOM     13  C   UNL     1      -4.744   0.343  -1.766  0.00  0.00    -0.003 C 
ATOM     14  C   UNL     1      -5.505   0.967  -0.775  0.00  0.00    -0.020 C 
ENDBRANCH   3   6
BRANCH   2  15
ATOM     15  O   UNL     1      -0.601  -2.359   1.216  0.00  0.00    -0.378 OA
ATOM     16  H   UNL     1      -1.551  -2.257   1.387  0.00  0.00    +0.211 HD
ENDBRANCH   2  15
BRANCH   4  17
ATOM     17  O   UNL     1       1.705  -3.371   0.110  0.00  0.00    -0.379 OA
ATOM     18  H   UNL     1       1.317  -4.137  -0.341  0.00  0.00    +0.211 HD
ENDBRANCH   4  17
BRANCH   5  19
ATOM     19  C   UNL     1       3.051  -0.494  -0.346  0.00  0.00    +0.186 C 
BRANCH  19  20
ATOM     20  O   UNL     1       3.489   0.670   0.336  0.00  0.00    -0.271 OA
BRANCH  20  21
ATOM     21  P   UNL     1       4.888   1.348  -0.115  0.00  0.00    +0.473 P 
ATOM     22  O   UNL     1       5.276   2.575   0.657  0.00  0.00    -0.227 OA
BRANCH  21  23
ATOM     23  O   UNL     1       4.716   1.560  -1.709  0.00  0.00    -0.303 OA
ATOM     24  H   UNL     1       4.466   0.719  -2.122  0.00  0.00    +0.222 HD
ENDBRANCH  21  23
BRANCH  21  25
ATOM     25  O   UNL     1       5.933   0.118  -0.014  0.00  0.00    -0.303 OA
ATOM     26  H   UNL     1       5.605  -0.628  -0.540  0.00  0.00    +0.222 HD
ENDBRANCH  21  25
ENDBRANCH  20  21
ENDBRANCH  19  20
ENDBRANCH   5  19
TORSDOF 8
