REMARK  Name = 5289084
REMARK  16 active torsions:
REMARK  status: ('A' for Active; 'I' for Inactive)
REMARK    1  A    between atoms: C_1  and  S_2
REMARK    2  A    between atoms: C_1  and  C_8
REMARK    3  A    between atoms: C_1  and  C_16
REMARK    4  A    between atoms: S_2  and  S_3
REMARK    5  A    between atoms: S_3  and  C_4
REMARK    6  A    between atoms: C_4  and  C_5
REMARK    7  A    between atoms: C_5  and  O_6
REMARK    8  A    between atoms: C_8  and  C_9
REMARK    9  A    between atoms: C_9  and  C_10
REMARK   10  A    between atoms: C_10  and  C_11
REMARK   11  A    between atoms: C_11  and  C_13
REMARK   12  A    between atoms: C_13  and  O_14
REMARK   13  A    between atoms: C_16  and  C_17
REMARK   14  A    between atoms: C_17  and  S_18
REMARK   15  A    between atoms: S_18  and  C_19
REMARK   16  A    between atoms: C_19  and  N_20
REMARK                            x       y       z     vdW  Elec       q    Type
REMARK                         _______ _______ _______ _____ _____    ______ ____
ROOT
ATOM      1  C   UNL     1      -0.692  -0.157   0.893  0.00  0.00    +0.059 C 
ENDROOT
BRANCH   1   2
ATOM      2  S   UNL     1      -1.321  -0.972  -0.624  0.00  0.00    -0.083 S 
BRANCH   2   3
ATOM      3  S   UNL     1      -1.664  -2.874   0.066  0.00  0.00    -0.080 S 
BRANCH   3   4
ATOM      4  C   UNL     1      -3.380  -2.760   0.629  0.00  0.00    +0.100 C 
BRANCH   4   5
ATOM      5  C   UNL     1      -4.354  -2.868  -0.534  0.00  0.00    +0.150 C 
BRANCH   5   6
ATOM      6  O   UNL     1      -4.183  -4.113  -1.199  0.00  0.00    -0.381 OA
ATOM      7  H   UNL     1      -4.808  -4.173  -1.938  0.00  0.00    +0.210 HD
ENDBRANCH   5   6
ENDBRANCH   4   5
ENDBRANCH   3   4
ENDBRANCH   2   3
ENDBRANCH   1   2
BRANCH   1   8
ATOM      8  C   UNL     1       0.793  -0.498   1.115  0.00  0.00    +0.012 C 
BRANCH   8   9
ATOM      9  C   UNL     1       1.763   0.028   0.048  0.00  0.00    +0.001 C 
BRANCH   9  10
ATOM     10  C   UNL     1       3.212  -0.327   0.403  0.00  0.00    +0.012 C 
BRANCH  10  11
ATOM     11  C   UNL     1       4.206   0.145  -0.659  0.00  0.00    +0.109 C 
BRANCH  11  13
ATOM     12  O   UNL     1       6.029  -0.676   0.734  0.00  0.00    -0.250 OA
ATOM     13  C   UNL     1       5.648  -0.133  -0.293  0.00  0.00    +0.314 C 
BRANCH  13  14
ATOM     14  O   UNL     1       6.499   0.322  -1.250  0.00  0.00    -0.480 OA
ATOM     15  H   UNL     1       6.160   0.732  -2.022  0.00  0.00    +0.295 HD
ENDBRANCH  13  14
ENDBRANCH  11  13
ENDBRANCH  10  11
ENDBRANCH   9  10
ENDBRANCH   8   9
ENDBRANCH   1   8
BRANCH   1  16
ATOM     16  C   UNL     1      -1.023   1.345   0.811  0.00  0.00    +0.023 C 
BRANCH  16  17
ATOM     17  C   UNL     1      -2.502   1.636   1.071  0.00  0.00    +0.056 C 
BRANCH  17  18
ATOM     18  S   UNL     1      -2.837   3.418   0.946  0.00  0.00    -0.165 S 
BRANCH  18  19
ATOM     19  C   UNL     1      -2.929   3.569  -0.861  0.00  0.00    -0.026 C 
BRANCH  19  20
ATOM     20  N   UNL     1      -3.265   4.916  -1.295  0.00  0.00    +0.387 N 
ATOM     21  H   UNL     1      -3.304   4.946  -2.314  0.00  0.00    -0.088 HD
ATOM     22  H   UNL     1      -2.554   5.568  -0.963  0.00  0.00    -0.088 HD
ATOM     23  H   UNL     1      -4.173   5.180  -0.912  0.00  0.00    -0.088 HD
ENDBRANCH  19  20
ENDBRANCH  18  19
ENDBRANCH  17  18
ENDBRANCH  16  17
ENDBRANCH   1  16
TORSDOF 16
