REMARK  Name = 449471
REMARK  15 active torsions:
REMARK  status: ('A' for Active; 'I' for Inactive)
REMARK    1  A    between atoms: CA_1  and  N_3
REMARK    2  A    between atoms: CA_1  and  C_19
REMARK    3  A    between atoms: CA_1  and  CB_26
REMARK    4  A    between atoms: C_4  and  C_6
REMARK    5  A    between atoms: C_6  and  C_7
REMARK    6  A    between atoms: C_7  and  CA_8
REMARK    7  A    between atoms: CA_8  and  N_9
REMARK    8  A    between atoms: CA_8  and  C_14
REMARK    9  A    between atoms: C_14  and  O_15
REMARK   10  A    between atoms: N_18  and  CA_21
REMARK   11  A    between atoms: CA_21  and  C_23
REMARK   12  A    between atoms: C_23  and  O_24
REMARK   13  A    between atoms: CB_26  and  SG_27
REMARK   14  A    between atoms: SG_27  and  C_28
REMARK   15  A    between atoms: C_28  and  C_29
REMARK                            x       y       z     vdW  Elec       q    Type
REMARK                         _______ _______ _______ _____ _____    ______ ____
ROOT
ATOM      1  CA  UNL     1      -2.723   0.826  -0.612  0.00  0.00    +0.159 C 
ENDROOT
BRANCH   1   3
ATOM      2  O   UNL     1      -2.116   3.547  -1.358  0.00  0.00    -0.275 OA
ATOM      3  N   UNL     1      -2.212   1.869   0.246  0.00  0.00    -0.298 N 
ATOM      4  C   UNL     1      -1.950   3.154  -0.207  0.00  0.00    +0.223 C 
ATOM      5  H   UNL     1      -2.042   1.660   1.193  0.00  0.00    +0.150 HD
BRANCH   4   6
ATOM      6  C   UNL     1      -1.412   4.039   0.905  0.00  0.00    +0.083 C 
BRANCH   6   7
ATOM      7  C   UNL     1      -0.107   3.503   1.498  0.00  0.00    -0.001 C 
BRANCH   7   8
ATOM      8  CA  UNL     1       0.994   3.323   0.448  0.00  0.00    +0.036 C 
BRANCH   8   9
ATOM      9  N   UNL     1       2.206   2.810   1.092  0.00  0.00    +0.389 N 
ATOM     10  H1  UNL     1       2.001   1.915   1.537  0.00  0.00    -0.088 HD
ATOM     11  H2  UNL     1       2.524   3.475   1.796  0.00  0.00    -0.088 HD
ATOM     12  H3  UNL     1       2.935   2.682   0.390  0.00  0.00    -0.088 HD
ENDBRANCH   8   9
BRANCH   8  14
ATOM     13  OXT UNL     1       2.194   5.436   0.256  0.00  0.00    -0.253 OA
ATOM     14  C   UNL     1       1.369   4.649  -0.191  0.00  0.00    +0.293 C 
BRANCH  14  15
ATOM     15  O   UNL     1       0.661   4.893  -1.324  0.00  0.00    -0.482 OA
ATOM     16  H   UNL     1       0.039   4.264  -1.632  0.00  0.00    +0.295 HD
ENDBRANCH  14  15
ENDBRANCH   8  14
ENDBRANCH   7   8
ENDBRANCH   6   7
ENDBRANCH   4   6
ENDBRANCH   1   3
BRANCH   1  19
ATOM     17  O   UNL     1      -3.826   0.062   1.410  0.00  0.00    -0.273 OA
ATOM     18  N   UNL     1      -4.282  -1.026  -0.588  0.00  0.00    -0.294 N 
ATOM     19  C   ACE A   1      -3.665  -0.063   0.197  0.00  0.00    +0.242 C 
ATOM     20  H   UNL     1      -4.087  -1.045  -1.553  0.00  0.00    +0.150 HD
BRANCH  18  21
ATOM     21  CA  UNL     1      -5.199  -2.002  -0.047  0.00  0.00    +0.200 C 
BRANCH  21  23
ATOM     22  OXT UNL     1      -5.111  -4.221   0.884  0.00  0.00    -0.248 OA
ATOM     23  C   UNL     1      -4.512  -3.266   0.404  0.00  0.00    +0.334 C 
BRANCH  23  24
ATOM     24  O   UNL     1      -3.170  -3.244   0.229  0.00  0.00    -0.479 OA
ATOM     25  H   UNL     1      -2.758  -2.490  -0.143  0.00  0.00    +0.295 HD
ENDBRANCH  23  24
ENDBRANCH  21  23
ENDBRANCH  18  21
ENDBRANCH   1  19
BRANCH   1  26
ATOM     26  CB  UNL     1      -1.607   0.049  -1.313  0.00  0.00    +0.087 C 
BRANCH  26  27
ATOM     27  SG  UNL     1      -0.508  -0.850  -0.169  0.00  0.00    -0.133 S 
BRANCH  27  28
ATOM     28  C   UNL     1       0.646  -1.513  -1.391  0.00  0.00    +0.084 C 
BRANCH  28  29
ATOM     29  C   UNL     1       1.729  -2.342  -0.758  0.00  0.00    -0.011 C 
ATOM     30  C   UNL     1       2.943  -1.780  -0.331  0.00  0.00    -0.003 C 
ATOM     31  C   UNL     1       3.923  -2.615   0.258  0.00  0.00    -0.000 C 
ATOM     32  C   UNL     1       1.484  -3.707  -0.606  0.00  0.00    -0.003 C 
ATOM     33  C   UNL     1       3.207  -0.408  -0.476  0.00  0.00    -0.000 C 
ATOM     34  C   UNL     1       3.659  -3.986   0.403  0.00  0.00    -0.000 C 
ATOM     35  C   UNL     1       2.447  -4.527  -0.026  0.00  0.00    -0.000 C 
ATOM     36  C   UNL     1       5.137  -2.053   0.684  0.00  0.00    -0.000 C 
ATOM     37  C   UNL     1       4.419   0.133  -0.047  0.00  0.00    -0.000 C 
ATOM     38  C   UNL     1       5.383  -0.688   0.532  0.00  0.00    -0.000 C 
ENDBRANCH  28  29
ENDBRANCH  27  28
ENDBRANCH  26  27
ENDBRANCH   1  26
TORSDOF 15
