REMARK  Name = 444865
REMARK  1 active torsions:
REMARK  status: ('A' for Active; 'I' for Inactive)
REMARK    1  A    between atoms: C_19  and  O_20
REMARK                            x       y       z     vdW  Elec       q    Type
REMARK                         _______ _______ _______ _____ _____    ______ ____
ROOT
ATOM      1  O   UNL     1      -4.936  -1.161  -0.101  0.00  0.00    -0.296 OA
ATOM      2  C   UNL     1      -2.597  -0.582   0.230  0.00  0.00    +0.056 C 
ATOM      3  C   UNL     1      -2.002   0.683  -0.421  0.00  0.00    +0.029 C 
ATOM      4  C   UNL     1      -1.993  -1.771  -0.504  0.00  0.00    +0.012 C 
ATOM      5  C   UNL     1      -2.940   1.803   0.030  0.00  0.00    +0.012 C 
ATOM      6  C   UNL     1      -4.066  -0.303  -0.033  0.00  0.00    +0.150 C 
ATOM      7  C   UNL     1      -0.514   0.760  -0.226  0.00  0.00    -0.026 C 
ATOM      8  C   UNL     1      -4.332   1.185  -0.168  0.00  0.00    +0.065 C 
ATOM      9  C   UNL     1      -0.460  -1.793  -0.355  0.00  0.00    +0.026 C 
ATOM     10  C   UNL     1       0.246  -0.439  -0.257  0.00  0.00    -0.026 C 
ATOM     11  C   UNL     1      -2.428  -0.695   1.756  0.00  0.00    +0.008 C 
ATOM     12  C   UNL     1       0.134   1.990  -0.103  0.00  0.00    -0.005 C 
ATOM     13  C   UNL     1       1.667  -0.382  -0.137  0.00  0.00    -0.004 C 
ATOM     14  C   UNL     1       2.295   0.882  -0.004  0.00  0.00    +0.003 C 
ATOM     15  C   UNL     1       1.520   2.048   0.012  0.00  0.00    -0.000 C 
ATOM     16  C   UNL     1       2.502  -1.525  -0.141  0.00  0.00    +0.003 C 
ATOM     17  C   UNL     1       3.692   0.969   0.115  0.00  0.00    +0.037 C 
ATOM     18  C   UNL     1       3.890  -1.423  -0.021  0.00  0.00    +0.037 C 
ATOM     19  C   UNL     1       4.485  -0.176   0.105  0.00  0.00    +0.134 C 
ENDROOT
BRANCH  19  20
ATOM     20  O   UNL     1       5.836  -0.072   0.222  0.00  0.00    -0.506 OA
ATOM     21  H   UNL     1       6.236   0.771   0.307  0.00  0.00    +0.292 HD
ENDBRANCH  19  20
TORSDOF 1
