REMARK  Name = 145729
REMARK  10 active torsions:
REMARK  status: ('A' for Active; 'I' for Inactive)
REMARK    1  A    between atoms: C_2  and  O_15
REMARK    2  A    between atoms: C_3  and  C_17
REMARK    3  A    between atoms: C_5  and  N_8
REMARK    4  A    between atoms: C_17  and  O_18
REMARK    5  A    between atoms: O_18  and  P_19
REMARK    6  A    between atoms: P_19  and  O_21
REMARK    7  A    between atoms: P_19  and  O_23
REMARK    8  A    between atoms: O_23  and  P_24
REMARK    9  A    between atoms: P_24  and  O_26
REMARK   10  A    between atoms: P_24  and  O_28
REMARK                            x       y       z     vdW  Elec       q    Type
REMARK                         _______ _______ _______ _____ _____    ______ ____
ROOT
ATOM      1  O   UNL     1       1.216   1.675   0.947  0.00  0.00    -0.335 OA
ATOM      2  C   UNL     1       1.292   3.055  -0.979  0.00  0.00    +0.144 C 
ATOM      3  C   UNL     1       0.439   2.640   0.212  0.00  0.00    +0.174 C 
ATOM      4  C   UNL     1       2.127   1.825  -1.248  0.00  0.00    +0.083 C 
ATOM      5  C   UNL     1       2.330   1.254   0.147  0.00  0.00    +0.202 C 
ENDROOT
BRANCH   5   8
ATOM      6  O   UNL     1       4.739  -0.209   0.016  0.00  0.00    -0.252 OA
ATOM      7  O   UNL     1       2.507  -4.239   0.188  0.00  0.00    -0.270 OA
ATOM      8  N   UNL     1       2.407  -0.177   0.156  0.00  0.00    -0.219 N 
ATOM      9  N   UNL     1       3.625  -2.215   0.101  0.00  0.00    -0.236 N 
ATOM     10  C   UNL     1       3.667  -0.814   0.086  0.00  0.00    +0.315 C 
ATOM     11  C   UNL     1       1.244  -0.932   0.234  0.00  0.00    +0.076 C 
ATOM     12  C   UNL     1       1.220  -2.266   0.248  0.00  0.00    +0.074 C 
ATOM     13  C   UNL     1       2.493  -3.011   0.177  0.00  0.00    +0.254 C 
ATOM     14  H   UNL     1       4.491  -2.682   0.052  0.00  0.00    +0.159 HD
ENDBRANCH   5   8
BRANCH   2  15
ATOM     15  O   UNL     1       2.141   4.141  -0.613  0.00  0.00    -0.382 OA
ATOM     16  H   UNL     1       1.602   4.929  -0.442  0.00  0.00    +0.210 HD
ENDBRANCH   2  15
BRANCH   3  17
ATOM     17  C   UNL     1      -0.868   1.975  -0.198  0.00  0.00    +0.186 C 
BRANCH  17  18
ATOM     18  O   UNL     1      -1.586   1.615   0.971  0.00  0.00    -0.270 OA
BRANCH  18  19
ATOM     19  P   UNL     1      -3.023   0.885   0.844  0.00  0.00    +0.484 P 
ATOM     20  O   UNL     1      -3.679   0.557   2.154  0.00  0.00    -0.227 OA
BRANCH  19  21
ATOM     21  O   UNL     1      -3.890   1.863  -0.110  0.00  0.00    -0.302 OA
ATOM     22  H   UNL     1      -3.403   2.027  -0.933  0.00  0.00    +0.222 HD
ENDBRANCH  19  21
BRANCH  19  23
ATOM     23  O   UNL     1      -2.745  -0.400  -0.097  0.00  0.00    -0.186 OA
BRANCH  23  24
ATOM     24  P   UNL     1      -3.758  -1.485  -0.736  0.00  0.00    +0.481 P 
ATOM     25  O   UNL     1      -4.797  -0.909  -1.652  0.00  0.00    -0.227 OA
BRANCH  24  26
ATOM     26  O   UNL     1      -4.334  -2.257   0.562  0.00  0.00    -0.302 OA
ATOM     27  H   UNL     1      -3.595  -2.594   1.092  0.00  0.00    +0.222 HD
ENDBRANCH  24  26
BRANCH  24  28
ATOM     28  O   UNL     1      -2.766  -2.569  -1.411  0.00  0.00    -0.302 OA
ATOM     29  H   UNL     1      -2.133  -2.884  -0.748  0.00  0.00    +0.222 HD
ENDBRANCH  24  28
ENDBRANCH  23  24
ENDBRANCH  19  23
ENDBRANCH  18  19
ENDBRANCH  17  18
ENDBRANCH   3  17
TORSDOF 10
