REMARK  Name = 17753995
REMARK  6 active torsions:
REMARK  status: ('A' for Active; 'I' for Inactive)
REMARK    1  A    between atoms: C_2  and  N_7
REMARK    2  A    between atoms: C_3  and  O_11
REMARK    3  A    between atoms: C_4  and  C_17
REMARK    4  A    between atoms: C_5  and  O_13
REMARK    5  A    between atoms: C_6  and  O_15
REMARK    6  A    between atoms: C_17  and  O_18
REMARK                            x       y       z     vdW  Elec       q    Type
REMARK                         _______ _______ _______ _____ _____    ______ ____
ROOT
ATOM      1  O   UNL     1       0.790   1.079  -0.585  0.00  0.00    -0.331 OA
ATOM      2  C   UNL     1       0.211  -1.250  -0.123  0.00  0.00    -0.005 C 
ATOM      3  C   UNL     1      -1.234  -0.833   0.194  0.00  0.00    +0.125 C 
ATOM      4  C   UNL     1       1.191  -0.092   0.141  0.00  0.00    +0.130 C 
ATOM      5  C   UNL     1      -1.567   0.492  -0.497  0.00  0.00    +0.192 C 
ATOM      6  C   UNL     1      -0.505   1.557  -0.220  0.00  0.00    +0.262 C 
ENDROOT
BRANCH   2   7
ATOM      7  N   UNL     1       0.558  -2.432   0.670  0.00  0.00    +0.385 N 
ATOM      8  H   UNL     1      -0.107  -3.181   0.474  0.00  0.00    -0.089 HD
ATOM      9  H   UNL     1       0.524  -2.198   1.662  0.00  0.00    -0.089 HD
ATOM     10  H   UNL     1       1.499  -2.741   0.426  0.00  0.00    -0.089 HD
ENDBRANCH   2   7
BRANCH   3  11
ATOM     11  O   UNL     1      -2.117  -1.844  -0.297  0.00  0.00    -0.384 OA
ATOM     12  H   UNL     1      -1.914  -2.688   0.135  0.00  0.00    +0.210 HD
ENDBRANCH   3  11
BRANCH   5  13
ATOM     13  O   UNL     1      -2.833   0.978  -0.067  0.00  0.00    -0.378 OA
ATOM     14  H   UNL     1      -3.512   0.307  -0.239  0.00  0.00    +0.211 HD
ENDBRANCH   5  13
BRANCH   6  15
ATOM     15  O   UNL     1      -0.545   2.038   1.122  0.00  0.00    -0.358 OA
ATOM     16  H   UNL     1       0.145   2.709   1.246  0.00  0.00    +0.213 HD
ENDBRANCH   6  15
BRANCH   4  17
ATOM     17  C   UNL     1       2.617  -0.408  -0.306  0.00  0.00    +0.165 C 
BRANCH  17  18
ATOM     18  O   UNL     1       3.433   0.715  -0.032  0.00  0.00    -0.380 OA
ATOM     19  H   UNL     1       4.343   0.529  -0.311  0.00  0.00    +0.211 HD
ENDBRANCH  17  18
ENDBRANCH   4  17
TORSDOF 6
