REMARK  Name = 82068
REMARK  3 active torsions:
REMARK  status: ('A' for Active; 'I' for Inactive)
REMARK    1  A    between atoms: C_2  and  C_8
REMARK    2  A    between atoms: C_8  and  C_9
REMARK    3  A    between atoms: C_9  and  O_10
REMARK                            x       y       z     vdW  Elec       q    Type
REMARK                         _______ _______ _______ _____ _____    ______ ____
ROOT
ATOM      1  F   UNL     1       3.383  -0.341   0.421  0.00  0.00    -0.204 F 
ATOM      2  C   UNL     1      -0.600   0.319  -0.445  0.00  0.00    -0.020 C 
ATOM      3  C   UNL     1       0.187   1.358   0.051  0.00  0.00    -0.002 C 
ATOM      4  C   UNL     1      -0.042  -0.943  -0.649  0.00  0.00    -0.002 C 
ATOM      5  C   UNL     1       1.533   1.135   0.343  0.00  0.00    +0.029 C 
ATOM      6  C   UNL     1       1.303  -1.166  -0.356  0.00  0.00    +0.029 C 
ATOM      7  C   UNL     1       2.091  -0.127   0.139  0.00  0.00    +0.140 C 
ENDROOT
BRANCH   2   8
ATOM      8  C   UNL     1      -2.039   0.556  -0.758  0.00  0.00    +0.058 C 
BRANCH   8   9
ATOM      9  C   UNL     1      -2.962   0.286   0.434  0.00  0.00    +0.142 C 
BRANCH   9  10
ATOM     10  O   UNL     1      -2.853  -1.078   0.820  0.00  0.00    -0.382 OA
ATOM     11  H   UNL     1      -3.439  -1.248   1.575  0.00  0.00    +0.210 HD
ENDBRANCH   9  10
ENDBRANCH   8   9
ENDBRANCH   2   8
TORSDOF 3
