REMARK  Name = 5438
REMARK  1 active torsions:
REMARK  status: ('A' for Active; 'I' for Inactive)
REMARK    1  A    between atoms: C_4  and  C_12
REMARK                            x       y       z     vdW  Elec       q    Type
REMARK                         _______ _______ _______ _____ _____    ______ ____
ROOT
ATOM      1  S   UNL     1      -0.543   1.506   0.000  0.00  0.00    -0.065 S 
ATOM      2  N   UNL     1       2.116   1.387  -0.001  0.00  0.00    -0.237 NA
ATOM      3  C   UNL     1       0.818  -0.688   0.001  0.00  0.00    +0.024 C 
ATOM      4  C   UNL     1      -1.406   0.030   0.001  0.00  0.00    +0.060 C 
ATOM      5  C   UNL     1       0.957   0.696   0.000  0.00  0.00    +0.111 C 
ATOM      6  C   UNL     1      -0.564  -1.061   0.001  0.00  0.00    +0.011 C 
ATOM      7  C   UNL     1       2.008  -1.446   0.001  0.00  0.00    +0.004 C 
ATOM      8  C   UNL     1       3.228  -0.777   0.000  0.00  0.00    +0.021 C 
ATOM      9  C   UNL     1       3.217   0.607  -0.001  0.00  0.00    +0.099 C 
ENDROOT
BRANCH   4  12
ATOM     10  N   UNL     1      -3.571   1.066   0.001  0.00  0.00    -0.344 N 
ATOM     11  N   UNL     1      -3.428  -1.262  -0.002  0.00  0.00    -0.386 N 
ATOM     12  C   UNL     1      -2.831  -0.057  -0.001  0.00  0.00    +0.102 C 
ATOM     13  H   UNL     1      -4.553   1.008   0.000  0.00  0.00    +0.144 HD
ATOM     14  H   UNL     1      -3.129   1.946   0.003  0.00  0.00    +0.144 HD
ATOM     15  H   UNL     1      -4.411  -1.325  -0.003  0.00  0.00    +0.157 HD
ATOM     16  H   UNL     1      -2.883  -2.082  -0.002  0.00  0.00    +0.157 HD
ENDBRANCH   4  12
TORSDOF 1
