REMARK  Name = 15391
REMARK  4 active torsions:
REMARK  status: ('A' for Active; 'I' for Inactive)
REMARK    1  A    between atoms: P_1  and  O_3
REMARK    2  A    between atoms: P_1  and  O_5
REMARK    3  A    between atoms: P_1  and  O_7
REMARK    4  A    between atoms: O_7  and  C_8
REMARK                            x       y       z     vdW  Elec       q    Type
REMARK                         _______ _______ _______ _____ _____    ______ ____
ROOT
ATOM      1  P   UNL     1       1.149  -0.037   0.039  0.00  0.00    +0.473 P 
ATOM      2  O   UNL     1       1.267  -1.508   0.312  0.00  0.00    -0.228 OA
ENDROOT
BRANCH   1   3
ATOM      3  O   UNL     1       2.203   0.900   0.830  0.00  0.00    -0.303 OA
ATOM      4  H   UNL     1       2.052   1.828   0.592  0.00  0.00    +0.222 HD
ENDBRANCH   1   3
BRANCH   1   5
ATOM      5  O   UNL     1       1.358   0.390  -1.507  0.00  0.00    -0.303 OA
ATOM      6  H   UNL     1       1.265   1.352  -1.592  0.00  0.00    +0.222 HD
ENDBRANCH   1   5
BRANCH   1   7
ATOM      7  O   UNL     1      -0.287   0.613   0.395  0.00  0.00    -0.276 OA
BRANCH   7   8
ATOM      8  C   UNL     1      -1.440   0.109  -0.272  0.00  0.00    +0.126 C 
ATOM      9  C   UNL     1      -1.589  -1.373   0.037  0.00  0.00    +0.033 C 
ATOM     10  C   UNL     1      -2.660   0.905   0.166  0.00  0.00    +0.033 C 
ENDBRANCH   7   8
ENDBRANCH   1   7
TORSDOF 4
