REMARK  Name = 3485
REMARK  4 active torsions:
REMARK  status: ('A' for Active; 'I' for Inactive)
REMARK    1  A    between atoms: C_1  and  C_2
REMARK    2  A    between atoms: C_1  and  C_5
REMARK    3  A    between atoms: C_2  and  C_4
REMARK    4  A    between atoms: C_5  and  C_7
REMARK                            x       y       z     vdW  Elec       q    Type
REMARK                         _______ _______ _______ _____ _____    ______ ____
ROOT
ATOM      1  C   UNL     1      -0.010   0.093   0.019  0.00  0.00    +0.016 C 
ENDROOT
BRANCH   1   2
ATOM      2  C   UNL     1      -1.276   0.946  -0.015  0.00  0.00    +0.073 C 
BRANCH   2   4
ATOM      3  O   UNL     1      -2.564  -1.112  -0.001  0.00  0.00    -0.288 OA
ATOM      4  C   UNL     1      -2.536   0.114   0.004  0.00  0.00    +0.207 C 
ENDBRANCH   2   4
ENDBRANCH   1   2
BRANCH   1   5
ATOM      5  C   UNL     1       1.262   0.936  -0.007  0.00  0.00    +0.073 C 
BRANCH   5   7
ATOM      6  O   UNL     1       2.589  -1.101  -0.014  0.00  0.00    -0.288 OA
ATOM      7  C   UNL     1       2.536   0.124   0.014  0.00  0.00    +0.207 C 
ENDBRANCH   5   7
ENDBRANCH   1   5
TORSDOF 4
