REMARK  Name = 446357
REMARK  1 active torsions:
REMARK  status: ('A' for Active; 'I' for Inactive)
REMARK    1  A    between atoms: C_8  and  C_17
REMARK                            x       y       z     vdW  Elec       q    Type
REMARK                         _______ _______ _______ _____ _____    ______ ____
ROOT
ATOM      1  O   UNL     1      -0.317   2.351   0.000  0.00  0.00    -0.209 OA
ATOM      2  N   UNL     1      -0.275  -2.228   0.000  0.00  0.00    -0.299 N 
ATOM      3  N   UNL     1       1.843  -1.077   0.000  0.00  0.00    -0.264 N 
ATOM      4  N   UNL     1       1.748   1.317   0.000  0.00  0.00    -0.302 NA
ATOM      5  N   UNL     1       3.797   0.154   0.000  0.00  0.00    -0.320 N 
ATOM      6  C   UNL     1       0.504  -1.117   0.000  0.00  0.00    +0.116 C 
ATOM      7  C   UNL     1      -0.275   0.008   0.000  0.00  0.00    +0.133 C 
ATOM      8  C   UNL     1      -1.618  -0.435   0.000  0.00  0.00    +0.097 C 
ATOM      9  C   UNL     1      -1.591  -1.820   0.000  0.00  0.00    +0.074 C 
ATOM     10  C   UNL     1       0.349   1.323   0.000  0.00  0.00    +0.210 C 
ATOM     11  C   UNL     1       2.425   0.186   0.000  0.00  0.00    +0.248 C 
ATOM     12  H   UNL     1       0.043  -3.160   0.000  0.00  0.00    +0.153 HD
ATOM     13  H   UNL     1       2.386  -1.898  -0.001  0.00  0.00    +0.157 HD
ATOM     14  H   UNL     1       4.269  -0.710   0.000  0.00  0.00    +0.146 HD
ATOM     15  H   UNL     1       4.309   0.995   0.000  0.00  0.00    +0.146 HD
ENDROOT
BRANCH   8  17
ATOM     16  N   UNL     1      -3.782   0.989   0.000  0.00  0.00    -0.191 NA
ATOM     17  C   UNL     1      -2.807   0.347   0.000  0.00  0.00    +0.103 C 
ENDBRANCH   8  17
TORSDOF 1
