REMARK  Name = 743
REMARK  6 active torsions:
REMARK  status: ('A' for Active; 'I' for Inactive)
REMARK    1  A    between atoms: C_1  and  C_2
REMARK    2  A    between atoms: C_1  and  C_7
REMARK    3  A    between atoms: C_2  and  C_4
REMARK    4  A    between atoms: C_4  and  O_5
REMARK    5  A    between atoms: C_7  and  C_9
REMARK    6  A    between atoms: C_9  and  O_10
REMARK                            x       y       z     vdW  Elec       q    Type
REMARK                         _______ _______ _______ _____ _____    ______ ____
ROOT
ATOM      1  C   UNL     1       0.001  -0.086  -0.017  0.00  0.00    +0.023 C 
ENDROOT
BRANCH   1   2
ATOM      2  C   UNL     1      -1.270   0.765   0.017  0.00  0.00    +0.110 C 
BRANCH   2   4
ATOM      3  O   UNL     1      -2.544  -1.309  -0.019  0.00  0.00    -0.250 OA
ATOM      4  C   UNL     1      -2.518  -0.086  -0.002  0.00  0.00    +0.314 C 
BRANCH   4   5
ATOM      5  O   UNL     1      -3.641   0.679   0.005  0.00  0.00    -0.480 OA
ATOM      6  H   UNL     1      -3.571   1.613   0.018  0.00  0.00    +0.295 HD
ENDBRANCH   4   5
ENDBRANCH   2   4
ENDBRANCH   1   2
BRANCH   1   7
ATOM      7  C   UNL     1       1.271   0.759   0.017  0.00  0.00    +0.110 C 
BRANCH   7   9
ATOM      8  O   UNL     1       2.525  -1.306   0.026  0.00  0.00    -0.250 OA
ATOM      9  C   UNL     1       2.523  -0.082   0.006  0.00  0.00    +0.314 C 
BRANCH   9  10
ATOM     10  O   UNL     1       3.654   0.666  -0.032  0.00  0.00    -0.480 OA
ATOM     11  H   UNL     1       3.597   1.601  -0.046  0.00  0.00    +0.295 HD
ENDBRANCH   9  10
ENDBRANCH   7   9
ENDBRANCH   1   7
TORSDOF 6
