REMARK  Name = 447022
REMARK  5 active torsions:
REMARK  status: ('A' for Active; 'I' for Inactive)
REMARK    1  A    between atoms: C_5  and  N_17
REMARK    2  A    between atoms: N_17  and  C_19
REMARK    3  A    between atoms: C_19  and  C_20
REMARK    4  A    between atoms: C_23  and  O_26
REMARK    5  A    between atoms: C_24  and  O_28
REMARK                            x       y       z     vdW  Elec       q    Type
REMARK                         _______ _______ _______ _____ _____    ______ ____
ROOT
ATOM      1  N   UNL     1      -2.349  -1.750  -1.406  0.00  0.00    -0.180 NA
ATOM      2  N   UNL     1      -4.260  -0.457  -1.216  0.00  0.00    -0.273 NA
ATOM      3  N   UNL     1      -4.540   1.117   0.585  0.00  0.00    -0.312 NA
ATOM      4  N   UNL     1      -6.206   0.845  -1.038  0.00  0.00    -0.283 N 
ATOM      5  C   UNL     1      -0.556  -1.569   0.203  0.00  0.00    +0.069 C 
ATOM      6  C   UNL     1      -1.281  -0.605   0.882  0.00  0.00    +0.031 C 
ATOM      7  C   UNL     1      -2.542  -0.222   0.403  0.00  0.00    +0.121 C 
ATOM      8  C   UNL     1      -1.132  -2.107  -0.928  0.00  0.00    +0.125 C 
ATOM      9  C   UNL     1      -3.057  -0.817  -0.754  0.00  0.00    +0.105 C 
ATOM     10  C   UNL     1      -3.330   0.740   1.030  0.00  0.00    +0.201 C 
ATOM     11  C   UNL     1      -4.938   0.486  -0.528  0.00  0.00    +0.206 C 
ATOM     12  H   UNL     1      -6.548   0.413  -1.854  0.00  0.00    +0.156 HD
ATOM     13  H   UNL     1      -6.747   1.526  -0.578  0.00  0.00    +0.156 HD
ATOM     14  N   UNL     1      -2.854   1.373   2.205  0.00  0.00    -0.332 N 
ATOM     15  H   UNL     1      -3.405   2.054   2.654  0.00  0.00    +0.145 HD
ATOM     16  H   UNL     1      -1.973   1.133   2.571  0.00  0.00    +0.145 HD
ENDROOT
BRANCH   5  17
ATOM     17  N   UNL     1       0.707  -1.984   0.648  0.00  0.00    -0.301 N 
ATOM     18  C   UNL     1       1.265  -3.255   0.218  0.00  0.00    +0.113 C 
BRANCH  17  19
ATOM     19  C   UNL     1       1.492  -1.145   1.539  0.00  0.00    +0.118 C 
BRANCH  19  20
ATOM     20  C   UNL     1       2.346  -0.193   0.750  0.00  0.00    +0.004 C 
ATOM     21  C   UNL     1       1.844   1.056   0.409  0.00  0.00    +0.034 C 
ATOM     22  C   UNL     1       3.627  -0.574   0.372  0.00  0.00    +0.034 C 
ATOM     23  C   UNL     1       4.420   0.310  -0.360  0.00  0.00    +0.142 C 
ATOM     24  C   UNL     1       2.637   1.940  -0.324  0.00  0.00    +0.142 C 
ATOM     25  C   UNL     1       3.925   1.567  -0.708  0.00  0.00    +0.074 C 
BRANCH  23  26
ATOM     26  O   UNL     1       5.677  -0.054  -0.735  0.00  0.00    -0.471 OA
ATOM     27  C   UNL     1       6.120  -1.353  -0.346  0.00  0.00    +0.252 C 
ENDBRANCH  23  26
BRANCH  24  28
ATOM     28  O   UNL     1       2.154   3.166  -0.663  0.00  0.00    -0.471 OA
ATOM     29  C   UNL     1       0.830   3.483  -0.238  0.00  0.00    +0.252 C 
ENDBRANCH  24  28
ENDBRANCH  19  20
ENDBRANCH  17  19
ENDBRANCH   5  17
TORSDOF 5
