REMARK  Name = 408285
REMARK  3 active torsions:
REMARK  status: ('A' for Active; 'I' for Inactive)
REMARK    1  A    between atoms: N_2  and  C_8
REMARK    2  A    between atoms: C_8  and  C_9
REMARK    3  A    between atoms: C_9  and  N_10
REMARK                            x       y       z     vdW  Elec       q    Type
REMARK                         _______ _______ _______ _____ _____    ______ ____
ROOT
ATOM      1  O   UNL     1      -2.632  -0.334  -0.251  0.00  0.00    -0.358 OA
ATOM      2  N   UNL     1       0.101   0.286   0.245  0.00  0.00    +0.389 N 
ATOM      3  C   UNL     1      -0.307  -1.023  -0.284  0.00  0.00    -0.045 C 
ATOM      4  C   UNL     1      -0.858   1.318  -0.174  0.00  0.00    -0.045 C 
ATOM      5  C   UNL     1      -1.724  -1.349   0.177  0.00  0.00    +0.119 C 
ATOM      6  C   UNL     1      -2.262   0.937   0.285  0.00  0.00    +0.119 C 
ATOM      7  H   UNL     1       0.106   0.240   1.264  0.00  0.00    -0.080 HD
ENDROOT
BRANCH   2   8
ATOM      8  C   UNL     1       1.453   0.625  -0.194  0.00  0.00    -0.102 C 
BRANCH   8   9
ATOM      9  C   UNL     1       2.451  -0.403   0.322  0.00  0.00    -0.110 C 
BRANCH   9  10
ATOM     10  N   UNL     1       3.779  -0.058  -0.127  0.00  0.00    +0.379 N 
ATOM     11  H   UNL     1       4.445  -0.748   0.220  0.00  0.00    -0.089 HD
ATOM     12  H   UNL     1       4.029   0.865   0.229  0.00  0.00    -0.089 HD
ATOM     13  H   UNL     1       3.801  -0.047  -1.146  0.00  0.00    -0.089 HD
ENDBRANCH   9  10
ENDBRANCH   8   9
ENDBRANCH   2   8
TORSDOF 3
