REMARK  Name = 134490
REMARK  6 active torsions:
REMARK  status: ('A' for Active; 'I' for Inactive)
REMARK    1  A    between atoms: CA_1  and  N_2
REMARK    2  A    between atoms: CA_1  and  C_7
REMARK    3  A    between atoms: CA_1  and  C_10
REMARK    4  A    between atoms: C_7  and  O_8
REMARK    5  A    between atoms: C_10  and  C_11
REMARK    6  A    between atoms: C_11  and  N_12
REMARK                            x       y       z     vdW  Elec       q    Type
REMARK                         _______ _______ _______ _____ _____    ______ ____
ROOT
ATOM      1  CA  UNL     1       0.486  -0.679  -0.516  0.00  0.00    +0.034 C 
ENDROOT
BRANCH   1   2
ATOM      2  N   UNL     1       1.289  -1.847  -0.146  0.00  0.00    +0.389 N 
ATOM      3  H1  UNL     1       0.846  -2.692  -0.506  0.00  0.00    -0.088 HD
ATOM      4  H2  UNL     1       1.358  -1.905   0.870  0.00  0.00    -0.088 HD
ATOM      5  H3  UNL     1       2.224  -1.757  -0.545  0.00  0.00    -0.088 HD
ENDBRANCH   1   2
BRANCH   1   7
ATOM      6  OXT UNL     1       1.845   0.551   1.091  0.00  0.00    -0.253 OA
ATOM      7  C   UNL     1       1.202   0.536   0.049  0.00  0.00    +0.293 C 
BRANCH   7   8
ATOM      8  O   UNL     1       1.031   1.640  -0.724  0.00  0.00    -0.482 OA
ATOM      9  H   UNL     1       0.530   1.586  -1.515  0.00  0.00    +0.295 HD
ENDBRANCH   7   8
ENDBRANCH   1   7
BRANCH   1  10
ATOM     10  C   UNL     1      -0.923  -0.819   0.072  0.00  0.00    -0.035 C 
BRANCH  10  11
ATOM     11  C   UNL     1      -1.803   0.404  -0.204  0.00  0.00    -0.088 C 
BRANCH  11  12
ATOM     12  N   UNL     1      -3.127   0.214   0.379  0.00  0.00    +0.380 N 
ATOM     13  H   UNL     1      -3.703   1.034   0.189  0.00  0.00    -0.089 HD
ATOM     14  H   UNL     1      -3.040   0.086   1.387  0.00  0.00    -0.089 HD
ATOM     15  H   UNL     1      -3.564  -0.611  -0.032  0.00  0.00    -0.089 HD
ENDBRANCH  11  12
ENDBRANCH  10  11
ENDBRANCH   1  10
TORSDOF 6
