REMARK  Name = 72
REMARK  4 active torsions:
REMARK  status: ('A' for Active; 'I' for Inactive)
REMARK    1  A    between atoms: C_1  and  C_12
REMARK    2  A    between atoms: C_3  and  O_7
REMARK    3  A    between atoms: C_5  and  O_9
REMARK    4  A    between atoms: C_12  and  O_13
REMARK                            x       y       z     vdW  Elec       q    Type
REMARK                         _______ _______ _______ _____ _____    ______ ____
ROOT
ATOM      1  C   UNL     1       0.900  -0.054  -0.001  0.00  0.00    +0.079 C 
ATOM      2  C   UNL     1       0.023   1.031  -0.001  0.00  0.00    +0.046 C 
ATOM      3  C   UNL     1      -1.355   0.813   0.000  0.00  0.00    +0.168 C 
ATOM      4  C   UNL     1       0.399  -1.356  -0.001  0.00  0.00    +0.010 C 
ATOM      5  C   UNL     1      -1.856  -0.489   0.000  0.00  0.00    +0.167 C 
ATOM      6  C   UNL     1      -0.979  -1.573   0.000  0.00  0.00    +0.040 C 
ENDROOT
BRANCH   3   7
ATOM      7  O   UNL     1      -2.202   1.880   0.001  0.00  0.00    -0.503 OA
ATOM      8  H   UNL     1      -1.858   2.752   0.001  0.00  0.00    +0.292 HD
ENDBRANCH   3   7
BRANCH   5   9
ATOM      9  O   UNL     1      -3.199  -0.714   0.000  0.00  0.00    -0.503 OA
ATOM     10  H   UNL     1      -3.795   0.009   0.001  0.00  0.00    +0.292 HD
ENDBRANCH   5   9
BRANCH   1  12
ATOM     11  O   UNL     1       2.887   1.278   0.000  0.00  0.00    -0.245 OA
ATOM     12  C   UNL     1       2.336   0.172   0.000  0.00  0.00    +0.338 C 
BRANCH  12  13
ATOM     13  O   UNL     1       3.046  -0.989   0.002  0.00  0.00    -0.477 OA
ATOM     14  H   UNL     1       2.598  -1.812   0.002  0.00  0.00    +0.295 HD
ENDBRANCH  12  13
ENDBRANCH   1  12
TORSDOF 4
