REMARK  Name = 5287461
REMARK  7 active torsions:
REMARK  status: ('A' for Active; 'I' for Inactive)
REMARK    1  A    between atoms: P_1  and  O_3
REMARK    2  A    between atoms: P_1  and  O_5
REMARK    3  A    between atoms: P_1  and  O_13
REMARK    4  A    between atoms: O_5  and  C_6
REMARK    5  A    between atoms: C_6  and  C_7
REMARK    6  A    between atoms: O_13  and  C_14
REMARK    7  A    between atoms: C_15  and  C_21
REMARK                            x       y       z     vdW  Elec       q    Type
REMARK                         _______ _______ _______ _____ _____    ______ ____
ROOT
ATOM      1  P   UNL     1       0.547  -2.326  -0.449  0.00  0.00    +0.531 P 
ATOM      2  O   UNL     1       1.066  -2.839  -1.763  0.00  0.00    -0.215 OA
ENDROOT
BRANCH   1   3
ATOM      3  O   UNL     1       0.333  -3.488   0.659  0.00  0.00    -0.293 OA
ATOM      4  H   UNL     1      -0.001  -3.094   1.480  0.00  0.00    +0.223 HD
ENDBRANCH   1   3
BRANCH   1   5
ATOM      5  O   UNL     1      -0.895  -1.589  -0.521  0.00  0.00    -0.264 OA
BRANCH   5   6
ATOM      6  C   UNL     1      -1.485  -1.065   0.654  0.00  0.00    +0.155 C 
BRANCH   6   7
ATOM      7  C   UNL     1      -2.826  -0.436   0.283  0.00  0.00    +0.030 C 
ATOM      8  C   UNL     1      -3.517   0.140   1.526  0.00  0.00    +0.003 C 
ATOM      9  C   UNL     1      -2.639   0.646  -0.789  0.00  0.00    +0.003 C 
ATOM     10  C   UNL     1      -4.837   0.823   1.173  0.00  0.00    +0.000 C 
ATOM     11  C   UNL     1      -3.960   1.328  -1.138  0.00  0.00    +0.000 C 
ATOM     12  C   UNL     1      -4.648   1.892   0.101  0.00  0.00    +0.000 C 
ENDBRANCH   6   7
ENDBRANCH   5   6
ENDBRANCH   1   5
BRANCH   1  13
ATOM     13  O   UNL     1       1.523  -1.286   0.308  0.00  0.00    -0.402 OA
BRANCH  13  14
ATOM     14  C   UNL     1       1.937  -0.085  -0.202  0.00  0.00    +0.152 C 
ATOM     15  C   UNL     1       2.783   0.743   0.530  0.00  0.00    +0.077 C 
ATOM     16  C   UNL     1       1.499   0.295  -1.467  0.00  0.00    +0.038 C 
ATOM     17  C   UNL     1       3.195   1.962  -0.009  0.00  0.00    +0.006 C 
ATOM     18  C   UNL     1       1.911   1.514  -2.006  0.00  0.00    +0.003 C 
ATOM     19  C   UNL     1       2.759   2.348  -1.276  0.00  0.00    +0.000 C 
BRANCH  15  21
ATOM     20  O   UNL     1       4.002   1.065   2.532  0.00  0.00    -0.283 OA
ATOM     21  C   UNL     1       3.251   0.359   1.854  0.00  0.00    +0.237 C 
ENDBRANCH  15  21
ENDBRANCH  13  14
ENDBRANCH   1  13
TORSDOF 7
