REMARK  Name = 153909
REMARK  5 active torsions:
REMARK  status: ('A' for Active; 'I' for Inactive)
REMARK    1  A    between atoms: N_2  and  S_14
REMARK    2  A    between atoms: C_11  and  O_27
REMARK    3  A    between atoms: S_14  and  C_17
REMARK    4  A    between atoms: C_18  and  C_24
REMARK    5  A    between atoms: C_24  and  O_25
REMARK                            x       y       z     vdW  Elec       q    Type
REMARK                         _______ _______ _______ _____ _____    ______ ____
ROOT
ATOM      1  O   UNL     1      -0.202  -0.370  -1.723  0.00  0.00    -0.250 OA
ATOM      2  N   UNL     1       0.993   1.498  -1.052  0.00  0.00    -0.168 N 
ATOM      3  N   UNL     1      -1.432   1.396  -0.860  0.00  0.00    -0.164 N 
ATOM      4  N   UNL     1      -3.601   1.319   0.008  0.00  0.00    -0.264 NA
ATOM      5  N   UNL     1      -2.321  -0.689  -0.288  0.00  0.00    -0.229 NA
ATOM      6  N   UNL     1      -4.545  -0.804   0.605  0.00  0.00    -0.247 NA
ATOM      7  C   UNL     1      -0.232   0.774  -1.270  0.00  0.00    +0.336 C 
ATOM      8  C   UNL     1      -2.529   0.621  -0.343  0.00  0.00    +0.232 C 
ATOM      9  C   UNL     1      -1.526   2.852  -0.975  0.00  0.00    +0.136 C 
ATOM     10  C   UNL     1      -4.582   0.532   0.479  0.00  0.00    +0.142 C 
ATOM     11  C   UNL     1      -3.385  -1.346   0.202  0.00  0.00    +0.331 C 
ATOM     12  C   UNL     1      -5.838   1.211   0.906  0.00  0.00    +0.145 C 
ATOM     13  H   UNL     1       0.924   2.385  -0.629  0.00  0.00    +0.178 HD
ENDROOT
BRANCH   2  14
ATOM     14  S   UNL     1       2.559   0.946  -1.466  0.00  0.00    +0.077 S 
ATOM     15  O   UNL     1       2.567   0.540  -2.858  0.00  0.00    -0.150 OA
ATOM     16  O   UNL     1       3.554   1.875  -0.967  0.00  0.00    -0.150 OA
BRANCH  14  17
ATOM     17  C   UNL     1       2.653  -0.532  -0.500  0.00  0.00    +0.131 C 
ATOM     18  C   UNL     1       2.746  -0.471   0.882  0.00  0.00    +0.094 C 
ATOM     19  C   UNL     1       2.629  -1.748  -1.166  0.00  0.00    +0.020 C 
ATOM     20  C   UNL     1       2.818  -1.655   1.616  0.00  0.00    +0.008 C 
ATOM     21  C   UNL     1       2.701  -2.932  -0.431  0.00  0.00    +0.001 C 
ATOM     22  C   UNL     1       2.795  -2.885   0.959  0.00  0.00    +0.000 C 
BRANCH  18  24
ATOM     23  O   UNL     1       3.804   1.419   1.878  0.00  0.00    -0.245 OA
ATOM     24  C   UNL     1       2.772   0.795   1.603  0.00  0.00    +0.343 C 
BRANCH  24  25
ATOM     25  O   UNL     1       1.512   1.207   1.936  0.00  0.00    -0.441 OA
ATOM     26  C   UNL     1       1.407   2.444   2.650  0.00  0.00    +0.256 C 
ENDBRANCH  24  25
ENDBRANCH  18  24
ENDBRANCH  14  17
ENDBRANCH   2  14
BRANCH  11  27
ATOM     27  O   UNL     1      -3.273  -2.713   0.302  0.00  0.00    -0.395 OA
ATOM     28  C   UNL     1      -2.045  -3.283  -0.126  0.00  0.00    +0.271 C 
ENDBRANCH  11  27
TORSDOF 5
