REMARK  Name = 9257
REMARK  0 active torsions:
REMARK  status: ('A' for Active; 'I' for Inactive)
REMARK                            x       y       z     vdW  Elec       q    Type
REMARK                         _______ _______ _______ _____ _____    ______ ____
ROOT
ATOM      1  N   UNL     1       0.551   0.964   0.000  0.00  0.00    -0.216 N 
ATOM      2  N   UNL     1       1.185  -0.218   0.000  0.00  0.00    -0.157 NA
ATOM      3  N   UNL     1      -1.087  -0.483   0.000  0.00  0.00    -0.203 NA
ATOM      4  C   UNL     1      -0.799   0.798   0.000  0.00  0.00    +0.182 C 
ATOM      5  C   UNL     1       0.150  -1.061   0.000  0.00  0.00    +0.218 C 
ATOM      6  H   UNL     1       1.004   1.838   0.000  0.00  0.00    +0.176 HD
ENDROOT
TORSDOF 0
