REMARK  Name = 447329
REMARK  3 active torsions:
REMARK  status: ('A' for Active; 'I' for Inactive)
REMARK    1  A    between atoms: C_11  and  C_17
REMARK    2  A    between atoms: C_17  and  C_18
REMARK    3  A    between atoms: C_18  and  S_19
REMARK                            x       y       z     vdW  Elec       q    Type
REMARK                         _______ _______ _______ _____ _____    ______ ____
ROOT
ATOM      1  O   UNL     1       3.662  -1.691  -0.250  0.00  0.00    -0.275 OA
ATOM      2  N   UNL     1       1.715  -0.604   0.416  0.00  0.00    -0.274 N 
ATOM      3  N   UNL     1      -1.374   1.493   0.498  0.00  0.00    -0.355 N 
ATOM      4  C   UNL     1      -1.083  -0.667   0.051  0.00  0.00    -0.006 A 
ATOM      5  C   UNL     1      -0.446   0.494   0.434  0.00  0.00    +0.050 A 
ATOM      6  C   UNL     1      -0.333  -1.940  -0.115  0.00  0.00    +0.049 C 
ATOM      7  C   UNL     1       0.998   0.653   0.744  0.00  0.00    +0.137 C 
ATOM      8  C   UNL     1       0.992  -1.871   0.665  0.00  0.00    +0.098 C 
ATOM      9  C   UNL     1      -2.459  -0.362  -0.135  0.00  0.00    +0.013 A 
ATOM     10  C   UNL     1      -2.615   0.998   0.153  0.00  0.00    +0.056 A 
ATOM     11  C   UNL     1       3.056  -0.653   0.025  0.00  0.00    +0.227 C 
ATOM     12  C   UNL     1      -3.592  -1.107  -0.520  0.00  0.00    +0.001 C 
ATOM     13  C   UNL     1      -3.852   1.648   0.075  0.00  0.00    +0.017 C 
ATOM     14  C   UNL     1      -4.835  -0.469  -0.602  0.00  0.00    +0.000 C 
ATOM     15  C   UNL     1      -4.960   0.888  -0.309  0.00  0.00    +0.001 C 
ATOM     16  H   UNL     1      -1.187   2.425   0.751  0.00  0.00    +0.166 HD
ENDROOT
BRANCH  11  17
ATOM     17  C   UNL     1       3.777   0.670  -0.062  0.00  0.00    +0.097 C 
BRANCH  17  18
ATOM     18  C   UNL     1       5.218   0.475  -0.495  0.00  0.00    +0.063 C 
BRANCH  18  19
ATOM     19  S   UNL     1       6.133   2.046  -0.574  0.00  0.00    -0.167 S 
ATOM     20  H   UNL     1       7.413   1.806  -0.967  0.00  0.00    +0.102 HD
ENDBRANCH  18  19
ENDBRANCH  17  18
ENDBRANCH  11  17
TORSDOF 3
