REMARK  Name = 449014
REMARK  7 active torsions:
REMARK  status: ('A' for Active; 'I' for Inactive)
REMARK    1  A    between atoms: C_1  and  N_2
REMARK    2  A    between atoms: C_1  and  C_12
REMARK    3  A    between atoms: C_1  and  C_16
REMARK    4  A    between atoms: C_6  and  C_9
REMARK    5  A    between atoms: C_12  and  O_14
REMARK    6  A    between atoms: C_16  and  C_17
REMARK    7  A    between atoms: C_17  and  C_20
REMARK                            x       y       z     vdW  Elec       q    Type
REMARK                         _______ _______ _______ _____ _____    ______ ____
ROOT
ATOM      1  C   UNL     1       1.029  -1.849  -0.098  0.00  0.00    +0.087 C 
ENDROOT
BRANCH   1   2
ATOM      2  N   UNL     1       1.917  -0.710  -0.379  0.00  0.00    -0.246 NA
ATOM      3  N   UNL     1       3.268   0.614  -1.490  0.00  0.00    -0.251 NA
ATOM      4  C   UNL     1       2.227   0.271   0.494  0.00  0.00    +0.125 C 
ATOM      5  C   UNL     1       2.548  -0.484  -1.552  0.00  0.00    +0.201 C 
ATOM      6  C   UNL     1       3.073   1.090  -0.218  0.00  0.00    +0.124 C 
BRANCH   6   9
ATOM      7  O   UNL     1       3.540   2.726   1.424  0.00  0.00    -0.269 OA
ATOM      8  N   UNL     1       4.523   2.988  -0.616  0.00  0.00    -0.324 N 
ATOM      9  C   UNL     1       3.691   2.288   0.262  0.00  0.00    +0.257 C 
ATOM     10  H   UNL     1       4.965   3.816  -0.320  0.00  0.00    +0.145 HD
ATOM     11  H   UNL     1       4.668   2.652  -1.530  0.00  0.00    +0.145 HD
ENDBRANCH   6   9
ENDBRANCH   1   2
BRANCH   1  12
ATOM     12  C   UNL     1       1.599  -2.786   1.000  0.00  0.00    +0.125 C 
ATOM     13  C   UNL     1       2.998  -3.309   0.695  0.00  0.00    +0.033 C 
BRANCH  12  14
ATOM     14  O   UNL     1       0.725  -3.887   1.230  0.00  0.00    -0.383 OA
ATOM     15  H   UNL     1      -0.167  -3.557   1.425  0.00  0.00    +0.210 HD
ENDBRANCH  12  14
ENDBRANCH   1  12
BRANCH   1  16
ATOM     16  C   UNL     1      -0.429  -1.426   0.219  0.00  0.00    +0.023 C 
BRANCH  16  17
ATOM     17  C   UNL     1      -1.112  -0.583  -0.870  0.00  0.00    +0.029 C 
BRANCH  17  20
ATOM     18 CL   UNL     1      -1.619   2.010   0.637  0.00  0.00    -0.082 Cl
ATOM     19 CL   UNL     1      -4.715   2.657   1.204  0.00  0.00    -0.081 Cl
ATOM     20  C   UNL     1      -2.547  -0.224  -0.573  0.00  0.00    -0.011 C 
ATOM     21  C   UNL     1      -2.878   0.939   0.109  0.00  0.00    +0.064 C 
ATOM     22  C   UNL     1      -3.531  -1.101  -1.009  0.00  0.00    -0.003 C 
ATOM     23  C   UNL     1      -4.218   1.230   0.361  0.00  0.00    +0.068 C 
ATOM     24  C   UNL     1      -4.872  -0.809  -0.757  0.00  0.00    +0.001 C 
ATOM     25  C   UNL     1      -5.215   0.356  -0.072  0.00  0.00    +0.012 C 
ENDBRANCH  17  20
ENDBRANCH  16  17
ENDBRANCH   1  16
TORSDOF 7
