REMARK  Name = 33791
REMARK  0 active torsions:
REMARK  status: ('A' for Active; 'I' for Inactive)
REMARK                            x       y       z     vdW  Elec       q    Type
REMARK                         _______ _______ _______ _____ _____    ______ ____
ROOT
ATOM      1 CL   UNL     1       1.553   2.942  -0.002  0.00  0.00    -0.082 Cl
ATOM      2 CL   UNL     1      -0.727  -2.913  -0.002  0.00  0.00    -0.081 Cl
ATOM      3 CL   UNL     1       3.559   0.469   0.003  0.00  0.00    -0.080 Cl
ATOM      4 CL   UNL     1       2.408  -2.462   0.000  0.00  0.00    -0.080 Cl
ATOM      5  O   UNL     1      -2.664   1.176   0.002  0.00  0.00    -0.440 OA
ATOM      6  O   UNL     1      -3.115  -1.080   0.000  0.00  0.00    -0.245 OA
ATOM      7  C   UNL     1      -0.385   1.083   0.000  0.00  0.00    +0.040 A 
ATOM      8  C   UNL     1      -0.877  -0.206   0.000  0.00  0.00    +0.087 A 
ATOM      9  C   UNL     1      -1.502   2.043   0.000  0.00  0.00    +0.236 C 
ATOM     10  C   UNL     1       0.979   1.312  -0.001  0.00  0.00    +0.069 A 
ATOM     11  C   UNL     1      -0.057  -1.319   0.000  0.00  0.00    +0.075 A 
ATOM     12  C   UNL     1      -2.330  -0.153   0.001  0.00  0.00    +0.342 C 
ATOM     13  C   UNL     1       1.836   0.208   0.000  0.00  0.00    +0.079 A 
ATOM     14  C   UNL     1       1.321  -1.100   0.000  0.00  0.00    +0.080 A 
ENDROOT
TORSDOF 0
