REMARK  Name = 445375
REMARK  5 active torsions:
REMARK  status: ('A' for Active; 'I' for Inactive)
REMARK    1  A    between atoms: C_1  and  C_4
REMARK    2  A    between atoms: C_1  and  P_8
REMARK    3  A    between atoms: N_3  and  O_6
REMARK    4  A    between atoms: P_8  and  O_10
REMARK    5  A    between atoms: P_8  and  O_12
REMARK                            x       y       z     vdW  Elec       q    Type
REMARK                         _______ _______ _______ _____ _____    ______ ____
ROOT
ATOM      1  C   UNL     1       0.092   0.888  -0.157  0.00  0.00    +0.202 C 
ENDROOT
BRANCH   1   4
ATOM      2  O   UNL     1      -1.056  -1.206   0.089  0.00  0.00    -0.272 OA
ATOM      3  N   UNL     1      -2.291   0.742  -0.078  0.00  0.00    -0.196 N 
ATOM      4  C   UNL     1      -1.129   0.014  -0.036  0.00  0.00    +0.257 C 
ATOM      5  H   UNL     1      -2.291   1.721  -0.180  0.00  0.00    +0.182 HD
BRANCH   3   6
ATOM      6  O   UNL     1      -3.477   0.005   0.034  0.00  0.00    -0.295 OA
ATOM      7  H   UNL     1      -4.237   0.607  -0.006  0.00  0.00    +0.241 HD
ENDBRANCH   3   6
ENDBRANCH   1   4
BRANCH   1   8
ATOM      8  P   UNL     1       1.651  -0.013  -0.077  0.00  0.00    +0.346 P 
ATOM      9  O   UNL     1       1.810  -1.035  -1.149  0.00  0.00    -0.258 OA
BRANCH   8  10
ATOM     10  O   UNL     1       1.659  -0.567   1.436  0.00  0.00    -0.323 OA
ATOM     11  H   UNL     1       2.470  -1.077   1.589  0.00  0.00    +0.220 HD
ENDBRANCH   8  10
BRANCH   8  12
ATOM     12  O   UNL     1       2.742   1.172  -0.061  0.00  0.00    -0.323 OA
ATOM     13  H   UNL     1       3.633   0.791  -0.018  0.00  0.00    +0.220 HD
ENDBRANCH   8  12
ENDBRANCH   1   8
TORSDOF 5
