REMARK  Name = 76635
REMARK  2 active torsions:
REMARK  status: ('A' for Active; 'I' for Inactive)
REMARK    1  A    between atoms: C_3  and  N_9
REMARK    2  A    between atoms: C_4  and  N_12
REMARK                            x       y       z     vdW  Elec       q    Type
REMARK                         _______ _______ _______ _____ _____    ______ ____
ROOT
ATOM      1  C   UNL     1      -1.194   0.698   0.000  0.00  0.00    -0.024 C 
ATOM      2  C   UNL     1      -1.194  -0.697   0.000  0.00  0.00    -0.024 C 
ATOM      3  C   UNL     1       1.222   0.697   0.000  0.00  0.00    +0.054 C 
ATOM      4  C   UNL     1       1.222  -0.698   0.000  0.00  0.00    +0.054 C 
ATOM      5  C   UNL     1       0.014   1.395   0.000  0.00  0.00    +0.011 C 
ATOM      6  C   UNL     1       0.014  -1.395   0.000  0.00  0.00    +0.011 C 
ATOM      7  C   UNL     1      -2.475   1.466   0.000  0.00  0.00    +0.031 C 
ATOM      8  C   UNL     1      -2.475  -1.466   0.000  0.00  0.00    +0.031 C 
ENDROOT
BRANCH   3   9
ATOM      9  N   UNL     1       2.434   1.423   0.001  0.00  0.00    -0.356 N 
ATOM     10  H   UNL     1       3.294   0.945   0.001  0.00  0.00    +0.142 HD
ATOM     11  H   UNL     1       2.418   2.408   0.001  0.00  0.00    +0.142 HD
ENDBRANCH   3   9
BRANCH   4  12
ATOM     12  N   UNL     1       2.434  -1.423  -0.001  0.00  0.00    -0.356 N 
ATOM     13  H   UNL     1       3.294  -0.945  -0.001  0.00  0.00    +0.142 HD
ATOM     14  H   UNL     1       2.418  -2.408  -0.001  0.00  0.00    +0.142 HD
ENDBRANCH   4  12
TORSDOF 2
