REMARK  Name = 5256512
REMARK  8 active torsions:
REMARK  status: ('A' for Active; 'I' for Inactive)
REMARK    1  A    between atoms: N_1  and  C_3
REMARK    2  A    between atoms: N_1  and  C_7
REMARK    3  A    between atoms: N_1  and  C_11
REMARK    4  A    between atoms: C_3  and  C_4
REMARK    5  A    between atoms: C_4  and  O_5
REMARK    6  A    between atoms: C_7  and  C_8
REMARK    7  A    between atoms: C_8  and  O_9
REMARK    8  A    between atoms: C_11  and  C_14
REMARK                            x       y       z     vdW  Elec       q    Type
REMARK                         _______ _______ _______ _____ _____    ______ ____
ROOT
ATOM      1  N   UNL     1       0.485   0.323  -0.317  0.00  0.00    +0.398 N 
ATOM      2  H   UNL     1       0.932  -0.127  -1.116  0.00  0.00    -0.079 HD
ENDROOT
BRANCH   1   3
ATOM      3  C   UNL     1      -0.719   1.051  -0.845  0.00  0.00    -0.044 C 
BRANCH   3   4
ATOM      4  C   UNL     1      -1.491   1.648   0.315  0.00  0.00    +0.115 C 
BRANCH   4   5
ATOM      5  O   UNL     1      -2.651   2.308  -0.175  0.00  0.00    -0.384 OA
ATOM      6  H   UNL     1      -3.144   2.689   0.568  0.00  0.00    +0.210 HD
ENDBRANCH   4   5
ENDBRANCH   3   4
ENDBRANCH   1   3
BRANCH   1   7
ATOM      7  C   UNL     1       1.496   1.263   0.275  0.00  0.00    -0.044 C 
BRANCH   7   8
ATOM      8  C   UNL     1       2.736   0.484   0.663  0.00  0.00    +0.115 C 
BRANCH   8   9
ATOM      9  O   UNL     1       3.307  -0.112  -0.494  0.00  0.00    -0.384 OA
ATOM     10  H   UNL     1       4.100  -0.610  -0.244  0.00  0.00    +0.210 HD
ENDBRANCH   8   9
ENDBRANCH   7   8
ENDBRANCH   1   7
BRANCH   1  11
ATOM     11  C   UNL     1       0.105  -0.770   0.641  0.00  0.00    +0.040 C 
BRANCH  11  14
ATOM     12  O   UNL     1      -0.464  -2.474  -0.903  0.00  0.00    -0.248 OA
ATOM     13  O   UNL     1      -1.946  -1.902   0.739  0.00  0.00    -0.248 OA
ATOM     14  C   UNL     1      -0.857  -1.820   0.102  0.00  0.00    +0.344 C 
ENDBRANCH  11  14
ENDBRANCH   1  11
TORSDOF 8
