REMARK  Name = 171
REMARK  2 active torsions:
REMARK  status: ('A' for Active; 'I' for Inactive)
REMARK    1  A    between atoms: C_7  and  C_16
REMARK    2  A    between atoms: C_16  and  N_17
REMARK                            x       y       z     vdW  Elec       q    Type
REMARK                         _______ _______ _______ _____ _____    ______ ____
ROOT
ATOM      1  O   UNL     1       0.251  -2.370   0.271  0.00  0.00    -0.209 OA
ATOM      2  N   UNL     1       0.393   2.199   0.009  0.00  0.00    -0.300 N 
ATOM      3  N   UNL     1      -1.762   1.125  -0.121  0.00  0.00    -0.264 N 
ATOM      4  N   UNL     1      -1.764  -1.266   0.024  0.00  0.00    -0.302 NA
ATOM      5  N   UNL     1      -3.756  -0.034  -0.229  0.00  0.00    -0.320 N 
ATOM      6  C   UNL     1       0.302  -0.032   0.136  0.00  0.00    +0.117 C 
ATOM      7  C   UNL     1       1.657   0.363   0.234  0.00  0.00    -0.015 C 
ATOM      8  C   UNL     1      -0.428   1.118   0.000  0.00  0.00    +0.115 C 
ATOM      9  C   UNL     1       1.685   1.745   0.153  0.00  0.00    +0.057 C 
ATOM     10  C   UNL     1      -0.372  -1.321   0.153  0.00  0.00    +0.209 C 
ATOM     11  C   UNL     1      -2.392  -0.114  -0.102  0.00  0.00    +0.248 C 
ATOM     12  H   UNL     1       0.114   3.139  -0.074  0.00  0.00    +0.153 HD
ATOM     13  H   UNL     1      -2.269   1.963  -0.218  0.00  0.00    +0.157 HD
ATOM     14  H   UNL     1      -4.191   0.845  -0.321  0.00  0.00    +0.146 HD
ATOM     15  H   UNL     1      -4.300  -0.854  -0.228  0.00  0.00    +0.146 HD
ENDROOT
BRANCH   7  16
ATOM     16  C   UNL     1       2.832  -0.516   0.394  0.00  0.00    -0.057 C 
BRANCH  16  17
ATOM     17  N   UNL     1       3.353  -0.897  -0.922  0.00  0.00    +0.383 N 
ATOM     18  H   UNL     1       4.164  -1.504  -0.803  0.00  0.00    -0.089 HD
ATOM     19  H   UNL     1       3.628  -0.058  -1.434  0.00  0.00    -0.089 HD
ATOM     20  H   UNL     1       2.631  -1.393  -1.443  0.00  0.00    -0.089 HD
ENDBRANCH  16  17
ENDBRANCH   7  16
TORSDOF 2
