REMARK  Name = 448573
REMARK  4 active torsions:
REMARK  status: ('A' for Active; 'I' for Inactive)
REMARK    1  A    between atoms: C_5  and  C_14
REMARK    2  A    between atoms: N_13  and  C_16
REMARK    3  A    between atoms: C_16  and  C_17
REMARK    4  A    between atoms: C_17  and  S_18
REMARK                            x       y       z     vdW  Elec       q    Type
REMARK                         _______ _______ _______ _____ _____    ______ ____
ROOT
ATOM      1  F   UNL     1       4.938  -1.546  -0.106  0.00  0.00    -0.204 F 
ATOM      2  N   UNL     1       0.379   1.441   0.221  0.00  0.00    -0.309 N 
ATOM      3  C   UNL     1       1.458  -0.463  -0.211  0.00  0.00    +0.017 C 
ATOM      4  C   UNL     1       1.627   0.860   0.202  0.00  0.00    +0.049 C 
ATOM      5  C   UNL     1      -0.571   0.533  -0.164  0.00  0.00    +0.102 C 
ATOM      6  C   UNL     1       0.066  -0.655  -0.438  0.00  0.00    +0.021 C 
ATOM      7  C   UNL     1       2.593  -1.291  -0.318  0.00  0.00    +0.031 C 
ATOM      8  C   UNL     1       2.880   1.400   0.514  0.00  0.00    +0.017 C 
ATOM      9  C   UNL     1       3.853  -0.765  -0.008  0.00  0.00    +0.140 C 
ATOM     10  C   UNL     1       3.992   0.560   0.401  0.00  0.00    +0.031 C 
ATOM     11  H   UNL     1       0.196   2.375   0.475  0.00  0.00    +0.152 HD
ENDROOT
BRANCH   5  14
ATOM     12  O   UNL     1      -2.460   1.946   0.050  0.00  0.00    -0.269 OA
ATOM     13  N   UNL     1      -2.825  -0.207  -0.661  0.00  0.00    -0.299 N 
ATOM     14  C   UNL     1      -1.965   0.832  -0.247  0.00  0.00    +0.259 C 
ATOM     15  H   UNL     1      -2.425  -1.077  -0.892  0.00  0.00    +0.150 HD
BRANCH  13  16
ATOM     16  C   UNL     1      -4.260  -0.066  -0.765  0.00  0.00    +0.101 C 
BRANCH  16  17
ATOM     17  C   UNL     1      -4.988  -0.424   0.523  0.00  0.00    +0.075 C 
BRANCH  17  18
ATOM     18  S   UNL     1      -4.718  -2.157   1.007  0.00  0.00    -0.166 S 
ATOM     19  H   UNL     1      -5.391  -2.415   2.160  0.00  0.00    +0.102 HD
ENDBRANCH  17  18
ENDBRANCH  16  17
ENDBRANCH  13  16
ENDBRANCH   5  14
TORSDOF 4
