REMARK  Name = 444800
REMARK  0 active torsions:
REMARK  status: ('A' for Active; 'I' for Inactive)
REMARK                            x       y       z     vdW  Elec       q    Type
REMARK                         _______ _______ _______ _____ _____    ______ ____
ROOT
ATOM      1  N   UNL     1      -0.252  -0.698   0.000  0.00  0.00    -0.290 N 
ATOM      2  N   UNL     1       0.817   1.177   0.000  0.00  0.00    -0.317 N 
ATOM      3  C   UNL     1      -0.403   0.631   0.000  0.00  0.00    +0.147 C 
ATOM      4  C   UNL     1       1.088  -1.006   0.000  0.00  0.00    +0.078 C 
ATOM      5  C   UNL     1       1.764   0.181   0.000  0.00  0.00    +0.075 C 
ATOM      6  C   UNL     1      -1.330  -1.667   0.000  0.00  0.00    +0.114 C 
ATOM      7  C   UNL     1      -1.684   1.381   0.000  0.00  0.00    +0.044 C 
ATOM      8  H   UNL     1       1.007   2.143   0.001  0.00  0.00    +0.148 HD
ENDROOT
TORSDOF 0
