REMARK  Name = 7245
REMARK  1 active torsions:
REMARK  status: ('A' for Active; 'I' for Inactive)
REMARK    1  A    between atoms: C_2  and  O_8
REMARK                            x       y       z     vdW  Elec       q    Type
REMARK                         _______ _______ _______ _____ _____    ______ ____
ROOT
ATOM      1 CL   UNL     1       2.268  -1.233   0.000  0.00  0.00    -0.079 Cl
ATOM      2  C   UNL     1       0.460   0.799   0.000  0.00  0.00    +0.144 C 
ATOM      3  C   UNL     1       0.671  -0.580   0.000  0.00  0.00    +0.091 C 
ATOM      4  C   UNL     1      -0.840   1.305   0.000  0.00  0.00    +0.037 C 
ATOM      5  C   UNL     1      -0.417  -1.452   0.000  0.00  0.00    +0.014 C 
ATOM      6  C   UNL     1      -1.929   0.432   0.000  0.00  0.00    +0.003 C 
ATOM      7  C   UNL     1      -1.717  -0.946   0.000  0.00  0.00    +0.001 C 
ENDROOT
BRANCH   2   8
ATOM      8  O   UNL     1       1.504   1.675   0.000  0.00  0.00    -0.505 OA
ATOM      9  H   UNL     1       2.384   1.354   0.000  0.00  0.00    +0.292 HD
ENDBRANCH   2   8
TORSDOF 1
