REMARK  Name = 656967
REMARK  5 active torsions:
REMARK  status: ('A' for Active; 'I' for Inactive)
REMARK    1  A    between atoms: N_1  and  C_30
REMARK    2  A    between atoms: C_10  and  C_17
REMARK    3  A    between atoms: N_15  and  C_23
REMARK    4  A    between atoms: C_30  and  C_31
REMARK    5  A    between atoms: C_31  and  N_32
REMARK                            x       y       z     vdW  Elec       q    Type
REMARK                         _______ _______ _______ _____ _____    ______ ____
ROOT
ATOM      1  N   UNL     1      -4.749   0.265   0.251  0.00  0.00    +0.388 N 
ATOM      2  N   UNL     1      -2.289   1.684  -0.056  0.00  0.00    -0.298 N 
ATOM      3  N   UNL     1      -1.224   3.648  -0.926  0.00  0.00    -0.229 NA
ATOM      4  C   UNL     1      -3.480  -0.464   0.134  0.00  0.00    -0.056 C 
ATOM      5  C   UNL     1      -4.532   1.536   0.954  0.00  0.00    -0.056 C 
ATOM      6  C   UNL     1      -2.447   0.352  -0.647  0.00  0.00    +0.069 C 
ATOM      7  C   UNL     1      -3.535   2.418   0.199  0.00  0.00    +0.069 C 
ATOM      8  C   UNL     1      -1.131   2.426  -0.315  0.00  0.00    +0.132 C 
ATOM      9  C   UNL     1       0.107   1.888   0.063  0.00  0.00    +0.037 C 
ATOM     10  C   UNL     1       1.266   2.614  -0.188  0.00  0.00    +0.035 C 
ATOM     11  C   UNL     1      -0.075   4.324  -1.154  0.00  0.00    +0.100 C 
ATOM     12  C   UNL     1       1.182   3.856  -0.807  0.00  0.00    +0.023 C 
ATOM     13  H   UNL     1      -5.103   0.463  -0.685  0.00  0.00    -0.080 HD
ENDROOT
BRANCH  10  17
ATOM     14  N   UNL     1       2.640   0.734   0.182  0.00  0.00    -0.337 NA
ATOM     15  N   UNL     1       3.970  -1.167   0.539  0.00  0.00    -0.247 N 
ATOM     16  N   UNL     1       4.932   0.944   0.895  0.00  0.00    -0.170 NA
ATOM     17  C   UNL     1       2.555   2.079   0.194  0.00  0.00    +0.146 C 
ATOM     18  C   UNL     1       3.596   2.914   0.538  0.00  0.00    +0.055 C 
ATOM     19  C   UNL     1       3.841   0.240   0.539  0.00  0.00    +0.149 C 
ATOM     20  C   UNL     1       4.774   2.284   0.884  0.00  0.00    +0.114 C 
ATOM     21  H   UNL     1       4.863  -1.482   0.806  0.00  0.00    +0.165 HD
BRANCH  15  23
ATOM     22 CL   UNL     1      -0.071  -2.738  -2.178  0.00  0.00    -0.083 Cl
ATOM     23  C   UNL     1       3.071  -2.205   0.232  0.00  0.00    +0.058 C 
ATOM     24  C   UNL     1       2.058  -2.000  -0.707  0.00  0.00    +0.026 C 
ATOM     25  C   UNL     1       3.190  -3.444   0.865  0.00  0.00    +0.015 C 
ATOM     26  C   UNL     1       1.288  -4.266  -0.378  0.00  0.00    -0.011 C 
ATOM     27  C   UNL     1       1.167  -3.030  -1.011  0.00  0.00    +0.055 C 
ATOM     28  C   UNL     1       2.299  -4.473   0.561  0.00  0.00    -0.002 C 
ATOM     29  C   UNL     1       0.355  -5.395  -0.676  0.00  0.00    +0.032 C 
ENDBRANCH  15  23
ENDBRANCH  10  17
BRANCH   1  30
ATOM     30  C   UNL     1      -5.744  -0.545   0.952  0.00  0.00    -0.102 C 
BRANCH  30  31
ATOM     31  C   UNL     1      -6.018  -1.830   0.176  0.00  0.00    -0.110 C 
BRANCH  31  32
ATOM     32  N   UNL     1      -6.997  -2.647   0.884  0.00  0.00    +0.379 N 
ATOM     33  H   UNL     1      -7.172  -3.502   0.357  0.00  0.00    -0.089 HD
ATOM     34  H   UNL     1      -7.867  -2.125   0.984  0.00  0.00    -0.089 HD
ATOM     35  H   UNL     1      -6.636  -2.885   1.808  0.00  0.00    -0.089 HD
ENDBRANCH  31  32
ENDBRANCH  30  31
ENDBRANCH   1  30
TORSDOF 5
