REMARK  Name = 66141
REMARK  2 active torsions:
REMARK  status: ('A' for Active; 'I' for Inactive)
REMARK    1  A    between atoms: C_3  and  C_10
REMARK    2  A    between atoms: C_10  and  O_11
REMARK                            x       y       z     vdW  Elec       q    Type
REMARK                         _______ _______ _______ _____ _____    ______ ____
ROOT
ATOM      1  O   UNL     1       1.583  -1.748   0.529  0.00  0.00    -0.275 OA
ATOM      2  N   UNL     1       0.636   0.324   0.118  0.00  0.00    -0.271 N 
ATOM      3  C   UNL     1      -0.669   0.028   0.694  0.00  0.00    +0.174 C 
ATOM      4  C   UNL     1      -1.336   1.388   0.860  0.00  0.00    +0.033 C 
ATOM      5  C   UNL     1      -0.716   2.226  -0.256  0.00  0.00    +0.024 C 
ATOM      6  C   UNL     1       0.715   1.714  -0.323  0.00  0.00    +0.094 C 
ATOM      7  C   UNL     1       1.687  -0.580   0.150  0.00  0.00    +0.226 C 
ATOM      8  C   UNL     1       3.014  -0.051  -0.330  0.00  0.00    +0.095 C 
ENDROOT
BRANCH   3  10
ATOM      9  O   UNL     1      -1.248  -0.803  -1.502  0.00  0.00    -0.248 OA
ATOM     10  C   UNL     1      -1.401  -0.835  -0.290  0.00  0.00    +0.332 C 
BRANCH  10  11
ATOM     11  O   UNL     1      -2.265  -1.662   0.349  0.00  0.00    -0.479 OA
ATOM     12  H   UNL     1      -2.334  -1.636   1.283  0.00  0.00    +0.295 HD
ENDBRANCH  10  11
ENDBRANCH   3  10
TORSDOF 2
