REMARK  Name = 43157
REMARK  1 active torsions:
REMARK  status: ('A' for Active; 'I' for Inactive)
REMARK    1  A    between atoms: C_5  and  C_11
REMARK                            x       y       z     vdW  Elec       q    Type
REMARK                         _______ _______ _______ _____ _____    ______ ____
ROOT
ATOM      1  O   UNL     1       0.851   2.079   0.000  0.00  0.00    -0.269 OA
ATOM      2  O   UNL     1      -3.227  -0.083   0.001  0.00  0.00    -0.252 OA
ATOM      3  N   UNL     1      -1.194   1.011   0.000  0.00  0.00    -0.235 N 
ATOM      4  N   UNL     1      -1.290  -1.325   0.000  0.00  0.00    -0.266 N 
ATOM      5  C   UNL     1       0.852  -0.298   0.000  0.00  0.00    +0.111 C 
ATOM      6  C   UNL     1       0.195   1.041   0.000  0.00  0.00    +0.262 C 
ATOM      7  C   UNL     1       0.077  -1.389   0.000  0.00  0.00    +0.078 C 
ATOM      8  C   UNL     1      -1.996  -0.133   0.000  0.00  0.00    +0.310 C 
ATOM      9  H   UNL     1      -1.658   1.879   0.000  0.00  0.00    +0.159 HD
ATOM     10  H   UNL     1      -1.798  -2.169   0.000  0.00  0.00    +0.156 HD
ENDROOT
BRANCH   5  11
ATOM     11  C   UNL     1       2.269  -0.406   0.000  0.00  0.00    -0.045 C 
ATOM     12  C   UNL     1       3.465  -0.498   0.001  0.00  0.00    -0.009 C 
ENDBRANCH   5  11
TORSDOF 1
