REMARK  Name = 78607
REMARK  1 active torsions:
REMARK  status: ('A' for Active; 'I' for Inactive)
REMARK    1  A    between atoms: C_2  and  N_9
REMARK                            x       y       z     vdW  Elec       q    Type
REMARK                         _______ _______ _______ _____ _____    ______ ____
ROOT
ATOM      1  N   UNL     1       3.545   0.011  -0.306  0.00  0.00    +0.384 N 
ATOM      2  C   UNL     1       0.676  -0.012   0.290  0.00  0.00    -0.062 C 
ATOM      3  C   UNL     1       1.413  -1.253  -0.224  0.00  0.00    -0.044 C 
ATOM      4  C   UNL     1       1.407   1.259  -0.159  0.00  0.00    -0.044 C 
ATOM      5  C   UNL     1       2.890  -1.211   0.168  0.00  0.00    -0.084 C 
ATOM      6  C   UNL     1       2.884   1.203   0.231  0.00  0.00    -0.084 C 
ATOM      7  H   UNL     1       3.505   0.037  -1.325  0.00  0.00    -0.085 HD
ATOM      8  H   UNL     1       4.514   0.005   0.013  0.00  0.00    -0.085 HD
ENDROOT
BRANCH   2   9
ATOM      9  N   UNL     1      -0.709  -0.014  -0.181  0.00  0.00    +0.388 N 
ATOM     10  C   UNL     1      -1.414  -1.210   0.302  0.00  0.00    -0.077 C 
ATOM     11  C   UNL     1      -1.397   1.214   0.240  0.00  0.00    -0.077 C 
ATOM     12  C   UNL     1      -2.850  -1.253  -0.222  0.00  0.00    -0.023 C 
ATOM     13  C   UNL     1      -2.833   1.251  -0.286  0.00  0.00    -0.023 C 
ATOM     14  C   UNL     1      -3.613   0.015   0.147  0.00  0.00    -0.004 C 
ATOM     15  H   UNL     1      -0.708  -0.040  -1.200  0.00  0.00    -0.080 HD
ENDBRANCH   2   9
TORSDOF 1
