REMARK  Name = 5288834
REMARK  4 active torsions:
REMARK  status: ('A' for Active; 'I' for Inactive)
REMARK    1  A    between atoms: C_1  and  O_4
REMARK    2  A    between atoms: C_1  and  C_6
REMARK    3  A    between atoms: C_6  and  C_7
REMARK    4  A    between atoms: C_7  and  O_9
REMARK                            x       y       z     vdW  Elec       q    Type
REMARK                         _______ _______ _______ _____ _____    ______ ____
ROOT
ATOM      1  C   UNL     1      -1.145   0.072  -0.023  0.00  0.00    +0.091 C 
ATOM      2  C   UNL     1      -1.395   0.109   1.490  0.00  0.00    +0.029 C 
ATOM      3  C   UNL     1      -2.309   0.745  -0.751  0.00  0.00    +0.029 C 
ENDROOT
BRANCH   1   4
ATOM      4  O   UNL     1      -1.124  -1.298  -0.424  0.00  0.00    -0.387 OA
ATOM      5  H   UNL     1      -0.393  -1.754   0.022  0.00  0.00    +0.210 HD
ENDBRANCH   1   4
BRANCH   1   6
ATOM      6  C   UNL     1       0.214   0.738  -0.343  0.00  0.00    +0.056 C 
BRANCH   6   7
ATOM      7  C   UNL     1       1.451   0.083   0.294  0.00  0.00    +0.113 C 
ATOM      8  C   UNL     1       2.723   0.818  -0.111  0.00  0.00    +0.032 C 
BRANCH   7   9
ATOM      9  O   UNL     1       1.585  -1.268  -0.132  0.00  0.00    -0.384 OA
ATOM     10  H   UNL     1       0.789  -1.765   0.112  0.00  0.00    +0.210 HD
ENDBRANCH   7   9
ENDBRANCH   6   7
ENDBRANCH   1   6
TORSDOF 4
