REMARK  Name = 447358
REMARK  9 active torsions:
REMARK  status: ('A' for Active; 'I' for Inactive)
REMARK    1  A    between atoms: P_1  and  O_3
REMARK    2  A    between atoms: P_1  and  O_5
REMARK    3  A    between atoms: P_1  and  O_12
REMARK    4  A    between atoms: O_5  and  C_6
REMARK    5  A    between atoms: C_6  and  C_7
REMARK    6  A    between atoms: C_7  and  N_8
REMARK    7  A    between atoms: O_12  and  P_13
REMARK    8  A    between atoms: P_13  and  O_15
REMARK    9  A    between atoms: P_13  and  O_17
REMARK                            x       y       z     vdW  Elec       q    Type
REMARK                         _______ _______ _______ _____ _____    ______ ____
ROOT
ATOM      1  P   UNL     1      -1.153  -1.481  -0.086  0.00  0.00    +0.484 P 
ATOM      2  O   UNL     1      -2.084  -2.113  -1.079  0.00  0.00    -0.227 OA
ENDROOT
BRANCH   1   3
ATOM      3  O   UNL     1      -0.729  -2.449   1.139  0.00  0.00    -0.302 OA
ATOM      4  H   UNL     1      -0.130  -1.972   1.735  0.00  0.00    +0.222 HD
ENDBRANCH   1   3
BRANCH   1   5
ATOM      5  O   UNL     1       0.253  -0.971  -0.704  0.00  0.00    -0.275 OA
BRANCH   5   6
ATOM      6  C   UNL     1       1.215  -0.358   0.137  0.00  0.00    +0.131 C 
BRANCH   6   7
ATOM      7  C   UNL     1       2.427   0.018  -0.701  0.00  0.00    -0.044 C 
BRANCH   7   8
ATOM      8  N   UNL     1       3.437   0.669   0.119  0.00  0.00    +0.386 N 
ATOM      9  C   UNL     1       4.587   1.069  -0.695  0.00  0.00    -0.101 C 
ATOM     10  C   UNL     1       3.869  -0.213   1.206  0.00  0.00    -0.101 C 
ATOM     11  H   UNL     1       3.020   1.506   0.527  0.00  0.00    -0.080 HD
ENDBRANCH   7   8
ENDBRANCH   6   7
ENDBRANCH   5   6
ENDBRANCH   1   5
BRANCH   1  12
ATOM     12  O   UNL     1      -1.763  -0.184   0.661  0.00  0.00    -0.186 OA
BRANCH  12  13
ATOM     13  P   UNL     1      -2.291   1.227   0.075  0.00  0.00    +0.481 P 
ATOM     14  O   UNL     1      -1.262   2.016  -0.679  0.00  0.00    -0.227 OA
BRANCH  13  15
ATOM     15  O   UNL     1      -2.902   1.960   1.380  0.00  0.00    -0.302 OA
ATOM     16  H   UNL     1      -3.555   1.379   1.801  0.00  0.00    +0.222 HD
ENDBRANCH  13  15
BRANCH  13  17
ATOM     17  O   UNL     1      -3.602   0.811  -0.773  0.00  0.00    -0.302 OA
ATOM     18  H   UNL     1      -4.208   0.307  -0.207  0.00  0.00    +0.222 HD
ENDBRANCH  13  17
ENDBRANCH  12  13
ENDBRANCH   1  12
TORSDOF 9
