REMARK  Name = 75451
REMARK  5 active torsions:
REMARK  status: ('A' for Active; 'I' for Inactive)
REMARK    1  A    between atoms: C_1  and  C_10
REMARK    2  A    between atoms: C_6  and  N_7
REMARK    3  A    between atoms: C_10  and  C_11
REMARK    4  A    between atoms: C_11  and  C_13
REMARK    5  A    between atoms: C_13  and  O_14
REMARK                            x       y       z     vdW  Elec       q    Type
REMARK                         _______ _______ _______ _____ _____    ______ ____
ROOT
ATOM      1  C   UNL     1       0.351  -0.009  -0.406  0.00  0.00    -0.022 C 
ATOM      2  C   UNL     1       1.038   1.201  -0.306  0.00  0.00    -0.003 C 
ATOM      3  C   UNL     1       1.028  -1.213  -0.212  0.00  0.00    -0.003 C 
ATOM      4  C   UNL     1       2.401   1.207  -0.012  0.00  0.00    +0.014 C 
ATOM      5  C   UNL     1       2.391  -1.208   0.082  0.00  0.00    +0.014 C 
ATOM      6  C   UNL     1       3.078   0.002   0.182  0.00  0.00    +0.042 C 
ENDROOT
BRANCH   6   7
ATOM      7  N   UNL     1       4.457   0.008   0.480  0.00  0.00    -0.357 N 
ATOM      8  H   UNL     1       4.942   0.862   0.550  0.00  0.00    +0.142 HD
ATOM      9  H   UNL     1       4.935  -0.842   0.617  0.00  0.00    +0.142 HD
ENDBRANCH   6   7
BRANCH   1  10
ATOM     10  C   UNL     1      -1.107  -0.015  -0.719  0.00  0.00    +0.038 C 
BRANCH  10  11
ATOM     11  C   UNL     1      -2.005   0.038   0.522  0.00  0.00    +0.114 C 
BRANCH  11  13
ATOM     12  O   UNL     1      -3.879  -0.087  -0.997  0.00  0.00    -0.250 OA
ATOM     13  C   UNL     1      -3.468  -0.006   0.154  0.00  0.00    +0.314 C 
BRANCH  13  14
ATOM     14  O   UNL     1      -4.287   0.081   1.231  0.00  0.00    -0.480 OA
ATOM     15  H   UNL     1      -3.922   0.141   2.092  0.00  0.00    +0.295 HD
ENDBRANCH  13  14
ENDBRANCH  11  13
ENDBRANCH  10  11
ENDBRANCH   1  10
TORSDOF 5
