REMARK  Name = 447336
REMARK  7 active torsions:
REMARK  status: ('A' for Active; 'I' for Inactive)
REMARK    1  A    between atoms: C_1  and  C_2
REMARK    2  A    between atoms: C_1  and  N_8
REMARK    3  A    between atoms: C_1  and  P_18
REMARK    4  A    between atoms: N_8  and  C_11
REMARK    5  A    between atoms: C_11  and  C_12
REMARK    6  A    between atoms: P_18  and  O_20
REMARK    7  A    between atoms: P_18  and  O_22
REMARK                            x       y       z     vdW  Elec       q    Type
REMARK                         _______ _______ _______ _____ _____    ______ ____
ROOT
ATOM      1  C   UNL     1      -1.083   0.812  -0.495  0.00  0.00    +0.069 C 
ENDROOT
BRANCH   1   2
ATOM      2  C   UNL     1      -1.946  -0.410  -0.275  0.00  0.00    -0.031 C 
ATOM      3  C   UNL     1      -3.005  -0.653  -1.133  0.00  0.00    -0.006 C 
ATOM      4  C   UNL     1      -1.660  -1.260   0.780  0.00  0.00    -0.006 C 
ATOM      5  C   UNL     1      -3.802  -1.780  -0.930  0.00  0.00    -0.000 C 
ATOM      6  C   UNL     1      -2.457  -2.387   0.982  0.00  0.00    -0.000 C 
ATOM      7  C   UNL     1      -3.528  -2.647   0.127  0.00  0.00    -0.000 C 
ENDBRANCH   1   2
BRANCH   1   8
ATOM      8  N   UNL     1       0.310   0.667  -0.067  0.00  0.00    +0.398 N 
ATOM      9  H   UNL     1       0.323   0.409   0.920  0.00  0.00    -0.083 HD
ATOM     10  H   UNL     1       0.776   1.559  -0.232  0.00  0.00    -0.083 HD
BRANCH   8  11
ATOM     11  C   UNL     1       1.030  -0.349  -0.821  0.00  0.00    -0.053 C 
BRANCH  11  12
ATOM     12  C   UNL     1       2.476  -0.386  -0.408  0.00  0.00    -0.044 C 
ATOM     13  C   UNL     1       3.398   0.414  -1.070  0.00  0.00    -0.006 C 
ATOM     14  C   UNL     1       2.872  -1.220   0.629  0.00  0.00    -0.006 C 
ATOM     15  C   UNL     1       4.739   0.380  -0.688  0.00  0.00    -0.000 C 
ATOM     16  C   UNL     1       4.213  -1.255   1.012  0.00  0.00    -0.000 C 
ATOM     17  C   UNL     1       5.146  -0.455   0.353  0.00  0.00    -0.000 C 
ENDBRANCH  11  12
ENDBRANCH   8  11
ENDBRANCH   1   8
BRANCH   1  18
ATOM     18  P   UNL     1      -1.561   2.280   0.433  0.00  0.00    +0.321 P 
ATOM     19  O   UNL     1      -1.557   2.145   1.927  0.00  0.00    -0.260 OA
BRANCH  18  20
ATOM     20  O   UNL     1      -0.589   3.437  -0.148  0.00  0.00    -0.325 OA
ATOM     21  H   UNL     1      -0.780   4.275   0.301  0.00  0.00    +0.220 HD
ENDBRANCH  18  20
BRANCH  18  22
ATOM     22  O   UNL     1      -2.996   2.667  -0.207  0.00  0.00    -0.325 OA
ATOM     23  H   UNL     1      -3.343   3.459   0.232  0.00  0.00    +0.220 HD
ENDBRANCH  18  22
ENDBRANCH   1  18
TORSDOF 7
