REMARK  Name = 444640
REMARK  11 active torsions:
REMARK  status: ('A' for Active; 'I' for Inactive)
REMARK    1  A    between atoms: C_1  and  N_3
REMARK    2  A    between atoms: C_1  and  C_8
REMARK    3  A    between atoms: C_1  and  C_14
REMARK    4  A    between atoms: C_4  and  O_6
REMARK    5  A    between atoms: C_8  and  N_10
REMARK    6  A    between atoms: C_14  and  C_15
REMARK    7  A    between atoms: C_15  and  C_16
REMARK    8  A    between atoms: C_16  and  C_17
REMARK    9  A    between atoms: C_17  and  C_18
REMARK   10  A    between atoms: C_18  and  C_20
REMARK   11  A    between atoms: C_20  and  O_21
REMARK                            x       y       z     vdW  Elec       q    Type
REMARK                         _______ _______ _______ _____ _____    ______ ____
ROOT
ATOM      1  C   UNL     1      -2.394  -0.482   0.349  0.00  0.00    +0.055 C 
ENDROOT
BRANCH   1   3
ATOM      2  O   UNL     1      -3.652   2.053   1.077  0.00  0.00    -0.227 OA
ATOM      3  N   UNL     1      -2.728   0.628  -0.516  0.00  0.00    -0.274 N 
ATOM      4  C   UNL     1      -3.323   1.786  -0.072  0.00  0.00    +0.398 C 
ATOM      5  H   UNL     1      -2.518   0.551  -1.475  0.00  0.00    +0.153 HD
BRANCH   4   6
ATOM      6  O   UNL     1      -3.516   2.648  -1.105  0.00  0.00    -0.466 OA
ATOM      7  H   UNL     1      -3.251   2.409  -1.972  0.00  0.00    +0.297 HD
ENDBRANCH   4   6
ENDBRANCH   1   3
BRANCH   1   8
ATOM      8  C   UNL     1      -2.537  -1.835  -0.386  0.00  0.00    -0.047 C 
ATOM      9  C   UNL     1      -3.926  -2.004  -1.012  0.00  0.00    -0.022 C 
BRANCH   8  10
ATOM     10  N   UNL     1      -2.304  -2.949   0.538  0.00  0.00    +0.383 N 
ATOM     11  H   UNL     1      -1.382  -2.851   0.964  0.00  0.00    -0.089 HD
ATOM     12  H   UNL     1      -2.351  -3.830   0.027  0.00  0.00    -0.089 HD
ATOM     13  H   UNL     1      -3.018  -2.940   1.267  0.00  0.00    -0.089 HD
ENDBRANCH   8  10
ENDBRANCH   1   8
BRANCH   1  14
ATOM     14  C   UNL     1      -1.026  -0.244   1.023  0.00  0.00    +0.018 C 
BRANCH  14  15
ATOM     15  C   UNL     1       0.224  -0.250   0.131  0.00  0.00    +0.002 C 
BRANCH  15  16
ATOM     16  C   UNL     1       1.533   0.037   0.866  0.00  0.00    +0.001 C 
BRANCH  16  17
ATOM     17  C   UNL     1       2.736  -0.103  -0.074  0.00  0.00    +0.012 C 
BRANCH  17  18
ATOM     18  C   UNL     1       4.061   0.214   0.622  0.00  0.00    +0.109 C 
BRANCH  18  20
ATOM     19  O   UNL     1       5.218  -0.117  -1.499  0.00  0.00    -0.250 OA
ATOM     20  C   UNL     1       5.248   0.150  -0.307  0.00  0.00    +0.314 C 
BRANCH  20  21
ATOM     21  O   UNL     1       6.385   0.466   0.365  0.00  0.00    -0.480 OA
ATOM     22  H   UNL     1       6.348   0.661   1.281  0.00  0.00    +0.295 HD
ENDBRANCH  20  21
ENDBRANCH  18  20
ENDBRANCH  17  18
ENDBRANCH  16  17
ENDBRANCH  15  16
ENDBRANCH  14  15
ENDBRANCH   1  14
TORSDOF 11
