REMARK  Name = 193344
REMARK  8 active torsions:
REMARK  status: ('A' for Active; 'I' for Inactive)
REMARK    1  A    between atoms: C_1  and  N_2
REMARK    2  A    between atoms: C_1  and  C_7
REMARK    3  A    between atoms: C_1  and  C_10
REMARK    4  A    between atoms: C_7  and  O_8
REMARK    5  A    between atoms: C_10  and  C_11
REMARK    6  A    between atoms: C_11  and  C_12
REMARK    7  A    between atoms: C_12  and  C_13
REMARK    8  A    between atoms: C_13  and  N_14
REMARK                            x       y       z     vdW  Elec       q    Type
REMARK                         _______ _______ _______ _____ _____    ______ ____
ROOT
ATOM      1  C   UNK     1       2.400  -0.545  -0.427  0.00  0.00    +0.036 C 
ENDROOT
BRANCH   1   2
ATOM      2  N   UNK     1       3.633  -1.141   0.095  0.00  0.00    +0.389 N 
ATOM      3  H   UNK     1       3.654  -2.135  -0.134  0.00  0.00    -0.088 HD
ATOM      4  H   UNK     1       3.665  -1.024   1.107  0.00  0.00    -0.088 HD
ATOM      5  H   UNK     1       4.439  -0.678  -0.327  0.00  0.00    -0.088 HD
ENDBRANCH   1   2
BRANCH   1   7
ATOM      6  O   UNK     1       2.915   1.392   0.959  0.00  0.00    -0.253 OA
ATOM      7  C   UNK     1       2.420   0.928  -0.061  0.00  0.00    +0.293 C 
BRANCH   7   8
ATOM      8  O   UNK     1       1.796   1.698  -0.989  0.00  0.00    -0.482 OA
ATOM      9  H   UNK     1       1.430   1.304  -1.756  0.00  0.00    +0.295 HD
ENDBRANCH   7   8
ENDBRANCH   1   7
BRANCH   1  10
ATOM     10  C   UNK     1       1.191  -1.260   0.191  0.00  0.00    -0.011 C 
BRANCH  10  11
ATOM     11  C   UNK     1      -0.145  -0.702  -0.310  0.00  0.00    -0.004 C 
BRANCH  11  12
ATOM     12  C   UNK     1      -1.378  -1.424   0.251  0.00  0.00    -0.023 C 
BRANCH  12  13
ATOM     13  C   UNK     1      -2.711  -0.965  -0.336  0.00  0.00    -0.078 C 
BRANCH  13  14
ATOM     14  N   UNK     1      -2.946   0.432  -0.070  0.00  0.00    +0.384 N 
ATOM     15  C   UNK     1      -2.971   0.701   1.375  0.00  0.00    -0.101 C 
ATOM     16  C   UNK     1      -4.204   0.885  -0.678  0.00  0.00    -0.101 C 
ATOM     17  H   UNK     1      -2.174   0.952  -0.487  0.00  0.00    -0.080 HD
ENDBRANCH  13  14
ENDBRANCH  12  13
ENDBRANCH  11  12
ENDBRANCH  10  11
ENDBRANCH   1  10
TORSDOF 8
