REMARK  Name = 880
REMARK  1 active torsions:
REMARK  status: ('A' for Active; 'I' for Inactive)
REMARK    1  A    between atoms: C_3  and  C_5
REMARK                            x       y       z     vdW  Elec       q    Type
REMARK                         _______ _______ _______ _____ _____    ______ ____
ROOT
ATOM      1  O   UNL     1      -0.462   1.321   0.000  0.00  0.00    -0.288 OA
ATOM      2  C   UNL     1      -1.733  -0.730   0.001  0.00  0.00    +0.081 C 
ATOM      3  C   UNL     1      -0.488   0.101  -0.001  0.00  0.00    +0.215 C 
ENDROOT
BRANCH   3   5
ATOM      4  O   UNL     1       1.869  -0.041   0.001  0.00  0.00    -0.280 OA
ATOM      5  C   UNL     1       0.814  -0.651   0.000  0.00  0.00    +0.271 C 
ENDBRANCH   3   5
TORSDOF 1
