REMARK  Name = 21439
REMARK  3 active torsions:
REMARK  status: ('A' for Active; 'I' for Inactive)
REMARK    1  A    between atoms: C_1  and  C_10
REMARK    2  A    between atoms: C_2  and  N_7
REMARK    3  A    between atoms: C_10  and  O_11
REMARK                            x       y       z     vdW  Elec       q    Type
REMARK                         _______ _______ _______ _____ _____    ______ ____
ROOT
ATOM      1  C   UNL     1       0.485   0.301  -0.255  0.00  0.00    +0.020 C 
ATOM      2  C   UNL     1      -0.075  -0.963  -0.066  0.00  0.00    +0.040 C 
ATOM      3  C   UNL     1      -0.324   1.436  -0.207  0.00  0.00    -0.001 C 
ATOM      4  C   UNL     1      -1.444  -1.091   0.170  0.00  0.00    +0.014 C 
ATOM      5  C   UNL     1      -1.692   1.309   0.030  0.00  0.00    -0.000 C 
ATOM      6  C   UNL     1      -2.252   0.045   0.218  0.00  0.00    +0.001 C 
ENDROOT
BRANCH   2   7
ATOM      7  N   UNL     1       0.728  -2.123  -0.110  0.00  0.00    -0.357 N 
ATOM      8  H   UNL     1       1.696  -2.046  -0.276  0.00  0.00    +0.142 HD
ATOM      9  H   UNL     1       0.321  -3.009   0.026  0.00  0.00    +0.142 HD
ENDBRANCH   2   7
BRANCH   1  10
ATOM     10  C   UNL     1       1.948   0.467  -0.510  0.00  0.00    +0.165 C 
BRANCH  10  11
ATOM     11  O   UNL     1       2.627   0.619   0.729  0.00  0.00    -0.377 OA
ATOM     12  H   UNL     1       3.577   0.727   0.566  0.00  0.00    +0.211 HD
ENDBRANCH  10  11
ENDBRANCH   1  10
TORSDOF 3
