REMARK  Name = 25203300
REMARK  5 active torsions:
REMARK  status: ('A' for Active; 'I' for Inactive)
REMARK    1  A    between atoms: CA_1  and  N_2
REMARK    2  A    between atoms: CA_1  and  C_8
REMARK    3  A    between atoms: CA_1  and  C_9
REMARK    4  A    between atoms: C_9  and  C_10
REMARK    5  A    between atoms: C_10  and  C_13
REMARK                            x       y       z     vdW  Elec       q    Type
REMARK                         _______ _______ _______ _____ _____    ______ ____
ROOT
ATOM      1  CA  UNL     1      -1.844  -0.742   0.313  0.00  0.00    +0.041 C 
ENDROOT
BRANCH   1   2
ATOM      2  N   UNL     1      -1.948  -1.678  -0.851  0.00  0.00    +0.389 N 
ATOM      3  H1  UNL     1      -1.488  -2.559  -0.621  0.00  0.00    -0.088 HD
ATOM      4  H2  UNL     1      -1.497  -1.260  -1.665  0.00  0.00    -0.088 HD
ATOM      5  H3  UNL     1      -2.931  -1.852  -1.059  0.00  0.00    -0.088 HD
ENDBRANCH   1   2
BRANCH   1   8
ATOM      6  O   UNL     1      -3.414   0.644  -0.795  0.00  0.00    -0.248 OA
ATOM      7  OXT UNL     1      -2.053   1.582   0.776  0.00  0.00    -0.248 OA
ATOM      8  C   UNL     1      -2.506   0.628   0.084  0.00  0.00    +0.345 C 
ENDBRANCH   1   8
BRANCH   1   9
ATOM      9  C   UNL     1      -0.371  -0.703   0.743  0.00  0.00    -0.001 C 
BRANCH   9  10
ATOM     10  C   UNL     1       0.572  -0.069  -0.284  0.00  0.00    +0.083 C 
BRANCH  10  13
ATOM     11  O   UNL     1       2.384  -0.593   1.234  0.00  0.00    -0.275 OA
ATOM     12  N   UNL     1       2.863   0.469  -0.777  0.00  0.00    -0.303 N 
ATOM     13  C   UNL     1       2.024  -0.109   0.164  0.00  0.00    +0.222 C 
ATOM     14  C   UNL     1       4.294   0.572  -0.607  0.00  0.00    +0.111 C 
ATOM     15  H   UNL     1       2.463   0.826  -1.603  0.00  0.00    +0.149 HD
ENDBRANCH  10  13
ENDBRANCH   9  10
ENDBRANCH   1   9
TORSDOF 5
