REMARK  Name = 444766
REMARK  5 active torsions:
REMARK  status: ('A' for Active; 'I' for Inactive)
REMARK    1  A    between atoms: C_8  and  C_21
REMARK    2  A    between atoms: C_9  and  N_13
REMARK    3  A    between atoms: C_14  and  C_17
REMARK    4  A    between atoms: C_17  and  O_18
REMARK    5  A    between atoms: C_21  and  O_22
REMARK                            x       y       z     vdW  Elec       q    Type
REMARK                         _______ _______ _______ _____ _____    ______ ____
ROOT
ATOM      1  S   UNL     1       0.167  -1.667   0.016  0.00  0.00    -0.079 S 
ATOM      2  N   UNL     1       4.209  -1.549  -0.343  0.00  0.00    +0.387 N 
ATOM      3  C   UNL     1       1.967   0.168  -0.003  0.00  0.00    -0.016 A 
ATOM      4  C   UNL     1       3.336   0.773  -0.026  0.00  0.00    +0.003 C 
ATOM      5  C   UNL     1       1.801  -1.202   0.006  0.00  0.00    -0.017 A 
ATOM      6  C   UNL     1       4.405  -0.268   0.359  0.00  0.00    -0.076 C 
ATOM      7  C   UNL     1       2.931  -2.183   0.040  0.00  0.00    -0.048 C 
ATOM      8  C   UNL     1       0.715   0.847  -0.010  0.00  0.00    +0.091 A 
ATOM      9  C   UNL     1      -0.348  -0.032  -0.001  0.00  0.00    +0.087 A 
ATOM     10  H   UNL     1       4.976  -2.179  -0.106  0.00  0.00    -0.084 HD
ATOM     11  H   UNL     1       4.189  -1.366  -1.346  0.00  0.00    -0.084 HD
ENDROOT
BRANCH   9  13
ATOM     12  O   UNL     1      -2.598  -2.006   0.021  0.00  0.00    -0.263 OA
ATOM     13  N   UNL     1      -1.700   0.184  -0.002  0.00  0.00    -0.270 N 
ATOM     14  C   UNL     1      -2.700  -0.791   0.009  0.00  0.00    +0.326 C 
ATOM     15  H   UNL     1      -1.997   1.123  -0.010  0.00  0.00    +0.156 HD
BRANCH  14  17
ATOM     16  O   UNL     1      -4.303   1.006  -0.007  0.00  0.00    -0.240 OA
ATOM     17  C   UNL     1      -4.093  -0.191   0.004  0.00  0.00    +0.393 C 
BRANCH  17  18
ATOM     18  O   UNL     1      -5.017  -1.165   0.015  0.00  0.00    -0.474 OA
ATOM     19  H   UNL     1      -4.751  -2.063   0.023  0.00  0.00    +0.296 HD
ENDBRANCH  17  18
ENDBRANCH  14  17
ENDBRANCH   9  13
BRANCH   8  21
ATOM     20  O   UNL     1       1.458   3.104  -0.028  0.00  0.00    -0.245 OA
ATOM     21  C   UNL     1       0.538   2.278  -0.022  0.00  0.00    +0.339 C 
BRANCH  21  22
ATOM     22  O   UNL     1      -0.767   2.694  -0.027  0.00  0.00    -0.477 OA
ATOM     23  H   UNL     1      -1.460   2.064  -0.023  0.00  0.00    +0.295 HD
ENDBRANCH  21  22
ENDBRANCH   8  21
TORSDOF 5
