REMARK  Name = 44
REMARK  3 active torsions:
REMARK  status: ('A' for Active; 'I' for Inactive)
REMARK    1  A    between atoms: C_1  and  C_4
REMARK    2  A    between atoms: C_1  and  C_7
REMARK    3  A    between atoms: C_1  and  O_8
REMARK                            x       y       z     vdW  Elec       q    Type
REMARK                         _______ _______ _______ _____ _____    ______ ____
ROOT
ATOM      1  C   UNL     1       0.038   0.554  -0.493  0.00  0.00    +0.318 C 
ENDROOT
BRANCH   1   4
ATOM      2  O   UNL     1       0.910  -1.613  -0.084  0.00  0.00    -0.242 OA
ATOM      3  O   UNL     1       2.293   0.199   0.080  0.00  0.00    -0.242 OA
ATOM      4  C   UNL     1       1.189  -0.382  -0.129  0.00  0.00    +0.402 C 
ENDBRANCH   1   4
BRANCH   1   7
ATOM      5  O   UNL     1      -1.288  -0.265   1.294  0.00  0.00    -0.242 OA
ATOM      6  O   UNL     1      -2.141  -0.269  -0.826  0.00  0.00    -0.242 OA
ATOM      7  C   UNL     1      -1.255  -0.051   0.050  0.00  0.00    +0.402 C 
ENDBRANCH   1   7
BRANCH   1   8
ATOM      8  O   UNL     1       0.254   1.828   0.107  0.00  0.00    -0.365 OA
ATOM      9  H   UNL     1       1.075   2.213  -0.237  0.00  0.00    +0.212 HD
ENDBRANCH   1   8
TORSDOF 3
