REMARK  Name = 440723
REMARK  9 active torsions:
REMARK  status: ('A' for Active; 'I' for Inactive)
REMARK    1  A    between atoms: CA_9  and  C_15
REMARK    2  A    between atoms: C_15  and  O_16
REMARK    3  A    between atoms: C_19  and  C_20
REMARK    4  A    between atoms: C_20  and  C_21
REMARK    5  A    between atoms: C_21  and  C_22
REMARK    6  A    between atoms: C_22  and  CA_23
REMARK    7  A    between atoms: CA_23  and  N_24
REMARK    8  A    between atoms: CA_23  and  C_29
REMARK    9  A    between atoms: C_29  and  O_30
REMARK                            x       y       z     vdW  Elec       q    Type
REMARK                         _______ _______ _______ _____ _____    ______ ____
ROOT
ATOM      1  N   UNL     1       0.776  -1.840   0.568  0.00  0.00    -0.163 NA
ATOM      2  H2  UNL     1       0.543  -1.248   1.319  0.00  0.00    +0.163 HD
ENDROOT
TORSDOF 0
REMARK  Name = 440723
REMARK  9 active torsions:
REMARK  status: ('A' for Active; 'I' for Inactive)
REMARK    1  A    between atoms: CA_9  and  C_15
REMARK    2  A    between atoms: C_15  and  O_16
REMARK    3  A    between atoms: C_19  and  C_20
REMARK    4  A    between atoms: C_20  and  C_21
REMARK    5  A    between atoms: C_21  and  C_22
REMARK    6  A    between atoms: C_22  and  CA_23
REMARK    7  A    between atoms: CA_23  and  N_24
REMARK    8  A    between atoms: CA_23  and  C_29
REMARK    9  A    between atoms: C_29  and  O_30
REMARK                            x       y       z     vdW  Elec       q    Type
REMARK                         _______ _______ _______ _____ _____    ______ ____
ROOT
ATOM      1  H1  UNL     1       0.795  -1.171   1.290  0.00  0.00    +0.000 HD
ENDROOT
TORSDOF 0
REMARK  Name = 440723
REMARK  9 active torsions:
REMARK  status: ('A' for Active; 'I' for Inactive)
REMARK    1  A    between atoms: CA_9  and  C_15
REMARK    2  A    between atoms: C_15  and  O_16
REMARK    3  A    between atoms: C_19  and  C_20
REMARK    4  A    between atoms: C_20  and  C_21
REMARK    5  A    between atoms: C_21  and  C_22
REMARK    6  A    between atoms: C_22  and  CA_23
REMARK    7  A    between atoms: CA_23  and  N_24
REMARK    8  A    between atoms: CA_23  and  C_29
REMARK    9  A    between atoms: C_29  and  O_30
REMARK                            x       y       z     vdW  Elec       q    Type
REMARK                         _______ _______ _______ _____ _____    ______ ____
ROOT
ATOM      1  S   UNL     1      -1.587  -0.583   2.072  0.00  0.00    -0.120 S 
ATOM      2  O   UNL     1      -0.415  -0.697  -2.174  0.00  0.00    -0.275 OA
ATOM      3  N   UNL     1      -2.046  -0.807  -0.471  0.00  0.00    -0.263 N 
ATOM      4  C   UNL     1      -1.791  -1.716   0.650  0.00  0.00    +0.133 C 
ATOM      5  C   UNL     1      -2.777   0.637   1.319  0.00  0.00    +0.068 C 
ATOM      6  CA  UNL     1      -2.485   0.545  -0.194  0.00  0.00    +0.184 C 
ATOM      7  CA  UNL     1      -0.511  -2.150  -0.077  0.00  0.00    +0.116 C 
ATOM      8  C   UNL     1      -0.922  -1.142  -1.169  0.00  0.00    +0.229 C 
ATOM      9  C   UNL     1      -2.469   2.033   1.863  0.00  0.00    +0.013 C 
ATOM     10  C   UNL     1      -4.198   0.218   1.720  0.00  0.00    +0.013 C 
ENDROOT
BRANCH   6  12
ATOM     11  OXT UNL     1      -4.165   0.013  -1.844  0.00  0.00    -0.248 OA
ATOM     12  C   UNL     1      -3.650   0.824  -1.088  0.00  0.00    +0.333 C 
BRANCH  12  13
ATOM     13  O   UNL     1      -4.064   2.107  -0.951  0.00  0.00    -0.479 OA
ATOM     14  H   UNL     1      -3.625   2.679  -0.352  0.00  0.00    +0.295 HD
ENDBRANCH  12  13
ENDBRANCH   6  12
TORSDOF 2
REMARK  Name = 440723
REMARK  9 active torsions:
REMARK  status: ('A' for Active; 'I' for Inactive)
REMARK    1  A    between atoms: CA_9  and  C_15
REMARK    2  A    between atoms: C_15  and  O_16
REMARK    3  A    between atoms: C_19  and  C_20
REMARK    4  A    between atoms: C_20  and  C_21
REMARK    5  A    between atoms: C_21  and  C_22
REMARK    6  A    between atoms: C_22  and  CA_23
REMARK    7  A    between atoms: CA_23  and  N_24
REMARK    8  A    between atoms: CA_23  and  C_29
REMARK    9  A    between atoms: C_29  and  O_30
REMARK                            x       y       z     vdW  Elec       q    Type
REMARK                         _______ _______ _______ _____ _____    ______ ____
ROOT
ATOM      1  CA  UNL     1       3.917   1.473  -0.693  0.00  0.00    +0.036 C 
ENDROOT
BRANCH   1   2
ATOM      2  N   UNL     1       5.095   1.974   0.015  0.00  0.00    +0.389 N 
ATOM      3  H1  UNL     1       5.917   1.446  -0.277  0.00  0.00    -0.088 HD
ATOM      4  H2  UNL     1       4.960   1.863   1.020  0.00  0.00    -0.088 HD
ATOM      5  H3  UNL     1       5.229   2.961  -0.203  0.00  0.00    -0.088 HD
ENDBRANCH   1   2
BRANCH   1   7
ATOM      6  OXT UNL     1       2.720   3.127   0.647  0.00  0.00    -0.253 OA
ATOM      7  C   UNL     1       2.713   2.279  -0.235  0.00  0.00    +0.293 C 
BRANCH   7   8
ATOM      8  O   UNL     1       1.591   1.954  -0.930  0.00  0.00    -0.482 OA
ATOM      9  H   UNL     1       1.626   1.299  -1.599  0.00  0.00    +0.295 HD
ENDBRANCH   7   8
ENDBRANCH   1   7
BRANCH   1  10
ATOM     10  C   UNL     1       3.710  -0.038  -0.506  0.00  0.00    -0.011 C 
BRANCH  10  11
ATOM     11  C   UNL     1       3.392  -0.473   0.933  0.00  0.00    +0.007 C 
BRANCH  11  12
ATOM     12  C   UNL     1       3.137  -1.978   1.037  0.00  0.00    +0.072 C 
BRANCH  12  14
ATOM     13  O   UNL     1       2.066  -3.304  -0.687  0.00  0.00    -0.288 OA
ATOM     14  C   UNL     1       1.965  -2.457   0.196  0.00  0.00    +0.207 C 
ENDBRANCH  12  14
ENDBRANCH  11  12
ENDBRANCH  10  11
ENDBRANCH   1  10
TORSDOF 7
