REMARK  Name = 446274
REMARK  2 active torsions:
REMARK  status: ('A' for Active; 'I' for Inactive)
REMARK    1  A    between atoms: C_3  and  S_9
REMARK    2  A    between atoms: S_9  and  N_12
REMARK                            x       y       z     vdW  Elec       q    Type
REMARK                         _______ _______ _______ _____ _____    ______ ____
ROOT
ATOM      1  F   UNL     1      -0.023   2.375   0.044  0.00  0.00    -0.203 F 
ATOM      2  F   UNL     1      -0.021  -2.375   0.045  0.00  0.00    -0.203 F 
ATOM      3  C   UNL     1       0.016   0.000   0.046  0.00  0.00    +0.176 C 
ATOM      4  C   UNL     1      -0.681   1.208   0.024  0.00  0.00    +0.161 C 
ATOM      5  C   UNL     1      -0.680  -1.208   0.024  0.00  0.00    +0.161 C 
ATOM      6  C   UNL     1      -2.075   1.207  -0.020  0.00  0.00    +0.031 C 
ATOM      7  C   UNL     1      -2.075  -1.209  -0.020  0.00  0.00    +0.031 C 
ATOM      8  C   UNL     1      -2.772  -0.001  -0.042  0.00  0.00    +0.005 C 
ENDROOT
BRANCH   3   9
ATOM      9  S   UNL     1       1.762   0.001   0.101  0.00  0.00    +0.061 S 
ATOM     10  O   UNL     1       2.203   1.261   0.682  0.00  0.00    -0.153 OA
ATOM     11  O   UNL     1       2.207  -1.259   0.681  0.00  0.00    -0.153 OA
BRANCH   9  12
ATOM     12  N   UNL     1       2.140   0.000  -1.565  0.00  0.00    -0.203 NA
ATOM     13  H   UNL     1       3.153   0.001  -1.685  0.00  0.00    +0.144 HD
ATOM     14  H   UNL     1       1.745   0.833  -2.003  0.00  0.00    +0.144 HD
ENDBRANCH   9  12
ENDBRANCH   3   9
TORSDOF 2
