REMARK  Name = 445929
REMARK  6 active torsions:
REMARK  status: ('A' for Active; 'I' for Inactive)
REMARK    1  A    between atoms: C_2  and  O_7
REMARK    2  A    between atoms: C_3  and  O_9
REMARK    3  A    between atoms: C_4  and  O_11
REMARK    4  A    between atoms: C_5  and  C_16
REMARK    5  A    between atoms: C_6  and  O_13
REMARK    6  A    between atoms: C_16  and  O_17
REMARK                            x       y       z     vdW  Elec       q    Type
REMARK                         _______ _______ _______ _____ _____    ______ ____
ROOT
ATOM      1  O   UNL     1       0.393  -1.210   0.519  0.00  0.00    -0.317 OA
ATOM      2  C   UNL     1      -1.265   0.928  -0.474  0.00  0.00    +0.172 C 
ATOM      3  C   UNL     1       0.245   1.093  -0.276  0.00  0.00    +0.178 C 
ATOM      4  C   UNL     1      -1.803  -0.151   0.471  0.00  0.00    +0.196 C 
ATOM      5  C   UNL     1       0.931  -0.265  -0.405  0.00  0.00    +0.245 C 
ATOM      6  C   UNL     1      -1.004  -1.451   0.324  0.00  0.00    +0.263 C 
ENDROOT
BRANCH   2   7
ATOM      7  O   UNL     1      -1.903   2.176  -0.220  0.00  0.00    -0.379 OA
ATOM      8  H   UNL     1      -1.553   2.848  -0.825  0.00  0.00    +0.211 HD
ENDBRANCH   2   7
BRANCH   3   9
ATOM      9  O   UNL     1       0.493   1.612   1.035  0.00  0.00    -0.379 OA
ATOM     10  H   UNL     1       0.061   2.475   1.128  0.00  0.00    +0.211 HD
ENDBRANCH   3   9
BRANCH   4  11
ATOM     11  O   UNL     1      -3.175  -0.415   0.200  0.00  0.00    -0.378 OA
ATOM     12  H   UNL     1      -3.686   0.405   0.291  0.00  0.00    +0.211 HD
ENDBRANCH   4  11
BRANCH   6  13
ATOM     13  O   UNL     1      -1.266  -2.046  -0.947  0.00  0.00    -0.358 OA
ATOM     14  H   UNL     1      -0.757  -2.867  -1.032  0.00  0.00    +0.213 HD
ENDBRANCH   6  13
BRANCH   5  16
ATOM     15  O   UNL     1       2.949  -0.760   0.824  0.00  0.00    -0.247 OA
ATOM     16  C   UNL     1       2.390  -0.172  -0.090  0.00  0.00    +0.344 C 
BRANCH  16  17
ATOM     17  O   UNL     1       3.015   0.660  -0.959  0.00  0.00    -0.478 OA
ATOM     18  H   UNL     1       2.527   1.080  -1.639  0.00  0.00    +0.295 HD
ENDBRANCH  16  17
ENDBRANCH   5  16
TORSDOF 6
