REMARK  Name = 3819775
REMARK  1 active torsions:
REMARK  status: ('A' for Active; 'I' for Inactive)
REMARK    1  A    between atoms: C_2  and  C_8
REMARK                            x       y       z     vdW  Elec       q    Type
REMARK                         _______ _______ _______ _____ _____    ______ ____
ROOT
ATOM      1  O   UNL     1      -1.434   1.014   0.002  0.00  0.00    -0.237 OA
ATOM      2  O   UNL     1      -1.177  -1.250  -0.001  0.00  0.00    -0.237 OA
ATOM      3  C   UNL     1      -0.757  -0.055  -0.001  0.00  0.00    +0.430 C 
ENDROOT
BRANCH   3   5
ATOM      4  O   UNL     1       1.156   1.250   0.000  0.00  0.00    -0.276 OA
ATOM      5  C   UNL     1       0.728   0.106  -0.002  0.00  0.00    +0.320 C 
ENDBRANCH   3   5
TORSDOF 1
REMARK  Name = 3819775
REMARK  1 active torsions:
REMARK  status: ('A' for Active; 'I' for Inactive)
REMARK    1  A    between atoms: C_2  and  C_8
REMARK                            x       y       z     vdW  Elec       q    Type
REMARK                         _______ _______ _______ _____ _____    ______ ____
ROOT
ATOM      1  O   UNL     1       1.485  -1.065   0.002  0.00  0.00    -0.410 OA
ATOM      2  H   UNL     1       1.058  -1.899   0.000  0.00  0.00    +0.205 HD
ATOM      3  H   UNL     1       2.421  -1.017   0.005  0.00  0.00    +0.205 HD
ENDROOT
TORSDOF 0
