REMARK  Name = 5287550
REMARK  4 active torsions:
REMARK  status: ('A' for Active; 'I' for Inactive)
REMARK    1  A    between atoms: C_7  and  O_12
REMARK    2  A    between atoms: O_12  and  P_13
REMARK    3  A    between atoms: P_13  and  O_15
REMARK    4  A    between atoms: P_13  and  O_17
REMARK                            x       y       z     vdW  Elec       q    Type
REMARK                         _______ _______ _______ _____ _____    ______ ____
ROOT
ATOM      1  N   UNL     1       1.246   1.618   0.022  0.00  0.00    -0.331 N 
ATOM      2  C   UNL     1       3.426  -0.285   0.091  0.00  0.00    +0.029 C 
ATOM      3  C   UNL     1       3.601   1.144  -0.425  0.00  0.00    +0.026 C 
ATOM      4  C   UNL     1       1.979  -0.711   0.046  0.00  0.00    -0.006 C 
ATOM      5  C   UNL     1       2.602   2.075   0.253  0.00  0.00    +0.087 C 
ATOM      6  C   UNL     1       0.955   0.258   0.035  0.00  0.00    +0.076 C 
ATOM      7  C   UNL     1      -0.379  -0.173  -0.013  0.00  0.00    +0.162 C 
ATOM      8  C   UNL     1       1.656  -2.075   0.057  0.00  0.00    -0.003 C 
ATOM      9  C   UNL     1      -0.692  -1.533  -0.016  0.00  0.00    +0.039 C 
ATOM     10  C   UNL     1       0.325  -2.483   0.024  0.00  0.00    +0.003 C 
ATOM     11  H   UNL     1       0.528   2.271  -0.144  0.00  0.00    +0.147 HD
ENDROOT
BRANCH   7  12
ATOM     12  O   UNL     1      -1.398   0.734  -0.051  0.00  0.00    -0.401 OA
BRANCH  12  13
ATOM     13  P   UNL     1      -2.971   0.363  -0.099  0.00  0.00    +0.528 P 
ATOM     14  O   UNL     1      -3.403  -0.451  -1.284  0.00  0.00    -0.216 OA
BRANCH  13  15
ATOM     15  O   UNL     1      -3.267  -0.294   1.349  0.00  0.00    -0.293 OA
ATOM     16  H   UNL     1      -2.954   0.304   2.046  0.00  0.00    +0.223 HD
ENDBRANCH  13  15
BRANCH  13  17
ATOM     17  O   UNL     1      -3.680   1.813   0.010  0.00  0.00    -0.293 OA
ATOM     18  H   UNL     1      -3.351   2.276   0.797  0.00  0.00    +0.223 HD
ENDBRANCH  13  17
ENDBRANCH  12  13
ENDBRANCH   7  12
TORSDOF 4
