REMARK  Name = 448403
REMARK  4 active torsions:
REMARK  status: ('A' for Active; 'I' for Inactive)
REMARK    1  A    between atoms: N_1  and  C_12
REMARK    2  A    between atoms: C_11  and  O_17
REMARK    3  A    between atoms: C_13  and  O_19
REMARK    4  A    between atoms: C_14  and  C_16
REMARK                            x       y       z     vdW  Elec       q    Type
REMARK                         _______ _______ _______ _____ _____    ______ ____
ROOT
ATOM      1  N   UNL     1      -0.213  -0.261  -0.140  0.00  0.00    -0.247 N 
ATOM      2  N   UNL     1      -1.643  -1.892   0.385  0.00  0.00    -0.242 NA
ATOM      3  N   UNL     1      -1.782   1.550  -0.546  0.00  0.00    -0.228 NA
ATOM      4  N   UNL     1      -4.087   0.819  -0.217  0.00  0.00    -0.229 NA
ATOM      5  C   UNL     1      -1.463   0.288  -0.220  0.00  0.00    +0.152 C 
ATOM      6  C   UNL     1      -0.375  -1.572   0.226  0.00  0.00    +0.223 C 
ATOM      7  C   UNL     1      -2.333  -0.738   0.110  0.00  0.00    +0.140 C 
ATOM      8  C   UNL     1      -3.692  -0.437   0.104  0.00  0.00    +0.143 C 
ATOM      9  C   UNL     1      -3.121   1.721  -0.518  0.00  0.00    +0.253 C 
ATOM     10  N   UNL     1      -4.646  -1.417   0.427  0.00  0.00    -0.342 N 
ATOM     11  H   UNL     1      -5.604  -1.193   0.420  0.00  0.00    +0.144 HD
ATOM     12  H   UNL     1      -4.355  -2.329   0.661  0.00  0.00    +0.144 HD
ENDROOT
BRANCH   1  15
ATOM     13  O   UNL     1       1.999  -0.524  -0.958  0.00  0.00    -0.333 OA
ATOM     14  C   UNL     1       1.721   0.978   0.852  0.00  0.00    +0.187 C 
ATOM     15  C   UNL     1       1.059   0.411  -0.395  0.00  0.00    +0.225 C 
ATOM     16  C   UNL     1       3.178   1.006   0.433  0.00  0.00    +0.171 C 
ATOM     17  C   UNL     1       3.304  -0.273  -0.389  0.00  0.00    +0.182 C 
BRANCH  17  19
ATOM     18  F   UNL     1       3.767  -2.561  -0.365  0.00  0.00    -0.232 F 
ATOM     19  C   UNL     1       3.704  -1.480   0.449  0.00  0.00    +0.225 C 
ENDBRANCH  17  19
BRANCH  14  20
ATOM     20  O   UNL     1       1.216   2.256   1.182  0.00  0.00    -0.378 OA
ATOM     21  H   UNL     1       0.284   2.178   1.440  0.00  0.00    +0.211 HD
ENDBRANCH  14  20
BRANCH  16  22
ATOM     22  O   UNL     1       3.406   2.127  -0.421  0.00  0.00    -0.379 OA
ATOM     23  H   UNL     1       3.328   2.946   0.092  0.00  0.00    +0.211 HD
ENDBRANCH  16  22
ENDBRANCH   1  15
TORSDOF 4
