REMARK  Name = 102474029
REMARK  9 active torsions:
REMARK  status: ('A' for Active; 'I' for Inactive)
REMARK    1  A    between atoms: C_1  and  N_2
REMARK    2  A    between atoms: C_1  and  C_13
REMARK    3  A    between atoms: N_3  and  C_10
REMARK    4  A    between atoms: C_10  and  C_11
REMARK    5  A    between atoms: C_13  and  C_14
REMARK    6  A    between atoms: C_14  and  C_15
REMARK    7  A    between atoms: C_15  and  N_16
REMARK    8  A    between atoms: C_15  and  C_21
REMARK    9  A    between atoms: C_21  and  O_22
REMARK                            x       y       z     vdW  Elec       q    Type
REMARK                         _______ _______ _______ _____ _____    ______ ____
ROOT
ATOM      1  C   UNK     1      -0.108  -0.124   0.306  0.00  0.00    +0.100 C 
ENDROOT
BRANCH   1   2
ATOM      2  N   UNK     1      -0.879   1.051  -0.019  0.00  0.00    -0.347 N 
ATOM      3  N   UNK     1      -2.998   0.040   0.116  0.00  0.00    -0.343 N 
ATOM      4  N   UNK     1      -2.703   2.355  -0.430  0.00  0.00    -0.371 N 
ATOM      5  C   UNK     1      -2.262   1.090  -0.101  0.00  0.00    +0.170 C 
ATOM      6  H   UNK     1      -0.388   1.885  -0.196  0.00  0.00    +0.163 HD
ATOM      7  H   UNK     1      -2.596  -0.829   0.347  0.00  0.00    +0.163 HD
ATOM      8  H   UNK     1      -2.053   3.081  -0.573  0.00  0.00    +0.159 HD
ATOM      9  H   UNK     1      -3.667   2.531  -0.523  0.00  0.00    +0.159 HD
BRANCH   3  10
ATOM     10  C   UNK     1      -4.441   0.200   0.001  0.00  0.00    +0.127 C 
BRANCH  10  11
ATOM     11  C   UNK     1      -5.118  -1.085   0.352  0.00  0.00    -0.002 C 
ATOM     12  C   UNK     1      -5.930  -1.752  -0.476  0.00  0.00    -0.003 C 
ENDBRANCH  10  11
ENDBRANCH   3  10
ENDBRANCH   1   2
BRANCH   1  13
ATOM     13  C   UNK     1       1.386   0.194   0.312  0.00  0.00    +0.022 C 
BRANCH  13  14
ATOM     14  C   UNK     1       2.247  -1.031   0.649  0.00  0.00    -0.009 C 
BRANCH  14  15
ATOM     15  C   UNK     1       3.748  -0.724   0.694  0.00  0.00    +0.036 C 
BRANCH  15  16
ATOM     16  N   UNK     1       4.011   0.315   1.732  0.00  0.00    +0.389 N 
ATOM     17  H   UNK     1       3.681  -0.018   2.638  0.00  0.00    -0.088 HD
ATOM     18  H   UNK     1       3.519   1.174   1.486  0.00  0.00    -0.088 HD
ATOM     19  H   UNK     1       5.013   0.499   1.783  0.00  0.00    -0.088 HD
ENDBRANCH  15  16
BRANCH  15  21
ATOM     20  O   UNK     1       4.688   0.885  -0.868  0.00  0.00    -0.253 OA
ATOM     21  C   UNK     1       4.237  -0.232  -0.651  0.00  0.00    +0.293 C 
BRANCH  21  22
ATOM     22  O   UNK     1       4.121  -1.181  -1.615  0.00  0.00    -0.482 OA
ATOM     23  H   UNK     1       3.770  -2.024  -1.404  0.00  0.00    +0.295 HD
ENDBRANCH  21  22
ENDBRANCH  15  21
ENDBRANCH  14  15
ENDBRANCH  13  14
ENDBRANCH   1  13
TORSDOF 9
