REMARK  Name = 13945
REMARK  7 active torsions:
REMARK  status: ('A' for Active; 'I' for Inactive)
REMARK    1  A    between atoms: C_2  and  O_16
REMARK    2  A    between atoms: C_3  and  C_18
REMARK    3  A    between atoms: C_5  and  N_7
REMARK    4  A    between atoms: C_18  and  O_19
REMARK    5  A    between atoms: O_19  and  P_20
REMARK    6  A    between atoms: P_20  and  O_22
REMARK    7  A    between atoms: P_20  and  O_24
REMARK                            x       y       z     vdW  Elec       q    Type
REMARK                         _______ _______ _______ _____ _____    ______ ____
ROOT
ATOM      1  O   UNL     1      -0.343   1.171   1.025  0.00  0.00    -0.334 OA
ATOM      2  C   UNL     1      -0.848   2.761  -0.659  0.00  0.00    +0.144 C 
ATOM      3  C   UNL     1      -1.451   1.762   0.318  0.00  0.00    +0.174 C 
ATOM      4  C   UNL     1       0.509   2.168  -0.962  0.00  0.00    +0.084 C 
ATOM      5  C   UNL     1       0.880   1.507   0.356  0.00  0.00    +0.209 C 
ENDROOT
BRANCH   5   7
ATOM      6  O   UNL     1       3.693   1.408   0.388  0.00  0.00    -0.193 OA
ATOM      7  N   UNL     1       1.667   0.322   0.182  0.00  0.00    -0.180 N 
ATOM      8  N   UNL     1       3.779  -0.833   0.035  0.00  0.00    -0.306 NA
ATOM      9  N   UNL     1       3.860  -3.128  -0.328  0.00  0.00    -0.332 N 
ATOM     10  C   UNL     1       1.015  -0.883  -0.022  0.00  0.00    +0.083 C 
ATOM     11  C   UNL     1       3.083   0.351   0.210  0.00  0.00    +0.275 C 
ATOM     12  C   UNL     1       1.666  -2.032  -0.194  0.00  0.00    +0.065 C 
ATOM     13  C   UNL     1       3.150  -1.963  -0.156  0.00  0.00    +0.193 C 
ATOM     14  H   UNL     1       4.844  -3.113  -0.308  0.00  0.00    +0.145 HD
ATOM     15  H   UNL     1       3.384  -3.978  -0.472  0.00  0.00    +0.145 HD
ENDBRANCH   5   7
BRANCH   2  16
ATOM     16  O   UNL     1      -0.687   4.027  -0.022  0.00  0.00    -0.382 OA
ATOM     17  H   UNL     1      -1.560   4.404   0.170  0.00  0.00    +0.210 HD
ENDBRANCH   2  16
BRANCH   3  18
ATOM     18  C   UNL     1      -2.215   0.642  -0.376  0.00  0.00    +0.186 C 
BRANCH  18  19
ATOM     19  O   UNL     1      -2.728  -0.241   0.609  0.00  0.00    -0.271 OA
BRANCH  19  20
ATOM     20  P   UNL     1      -3.586  -1.524   0.122  0.00  0.00    +0.473 P 
ATOM     21  O   UNL     1      -4.091  -2.405   1.227  0.00  0.00    -0.227 OA
BRANCH  20  22
ATOM     22  O   UNL     1      -2.617  -2.248  -0.952  0.00  0.00    -0.303 OA
ATOM     23  H   UNL     1      -2.342  -1.606  -1.624  0.00  0.00    +0.222 HD
ENDBRANCH  20  22
BRANCH  20  24
ATOM     24  O   UNL     1      -4.735  -0.860  -0.802  0.00  0.00    -0.303 OA
ATOM     25  H   UNL     1      -4.322  -0.310  -1.486  0.00  0.00    +0.222 HD
ENDBRANCH  20  24
ENDBRANCH  19  20
ENDBRANCH  18  19
ENDBRANCH   3  18
TORSDOF 7
