REMARK  Name = 10894
REMARK  1 active torsions:
REMARK  status: ('A' for Active; 'I' for Inactive)
REMARK    1  A    between atoms: C_2  and  O_8
REMARK                            x       y       z     vdW  Elec       q    Type
REMARK                         _______ _______ _______ _____ _____    ______ ____
ROOT
ATOM      1  I   UNL     1      -3.383   0.000   0.000  0.00  0.00    -0.043 I 
ATOM      2  C   UNL     1       1.484   0.000   0.000  0.00  0.00    +0.134 C 
ATOM      3  C   UNL     1       0.787  -1.208   0.000  0.00  0.00    +0.037 C 
ATOM      4  C   UNL     1       0.787   1.208   0.000  0.00  0.00    +0.037 C 
ATOM      5  C   UNL     1      -0.608  -1.208   0.000  0.00  0.00    +0.009 C 
ATOM      6  C   UNL     1      -0.608   1.208   0.000  0.00  0.00    +0.009 C 
ATOM      7  C   UNL     1      -1.305   0.000   0.000  0.00  0.00    +0.030 C 
ENDROOT
BRANCH   2   8
ATOM      8  O   UNL     1       2.845   0.000   0.000  0.00  0.00    -0.506 OA
ATOM      9  H   UNL     1       3.314  -0.811   0.000  0.00  0.00    +0.292 HD
ENDBRANCH   2   8
TORSDOF 1
