REMARK  Name = 445843
REMARK  4 active torsions:
REMARK  status: ('A' for Active; 'I' for Inactive)
REMARK    1  A    between atoms: C_3  and  C_19
REMARK    2  A    between atoms: C_9  and  C_14
REMARK    3  A    between atoms: C_20  and  O_31
REMARK    4  A    between atoms: C_21  and  C_25
REMARK                            x       y       z     vdW  Elec       q    Type
REMARK                         _______ _______ _______ _____ _____    ______ ____
ROOT
ATOM      1 CL   UNL     1      -5.418  -2.710  -0.634  0.00  0.00    +0.000 Cl
ENDROOT
TORSDOF 0
REMARK  Name = 445843
REMARK  4 active torsions:
REMARK  status: ('A' for Active; 'I' for Inactive)
REMARK    1  A    between atoms: C_3  and  C_19
REMARK    2  A    between atoms: C_9  and  C_14
REMARK    3  A    between atoms: C_20  and  O_31
REMARK    4  A    between atoms: C_21  and  C_25
REMARK                            x       y       z     vdW  Elec       q    Type
REMARK                         _______ _______ _______ _____ _____    ______ ____
ROOT
ATOM      1  N   UNL     1      -0.773  -0.371  -0.502  0.00  0.00    -0.312 N 
ATOM      2  C   UNL     1      -0.355   0.880  -0.136  0.00  0.00    +0.051 C 
ATOM      3  C   UNL     1      -2.594   0.746   0.140  0.00  0.00    +0.015 C 
ATOM      4  C   UNL     1      -2.136  -0.481  -0.344  0.00  0.00    +0.048 C 
ATOM      5  C   UNL     1      -1.460   1.595   0.265  0.00  0.00    +0.016 C 
ATOM      6  C   UNL     1      -3.971   0.905   0.393  0.00  0.00    +0.004 C 
ATOM      7  C   UNL     1      -2.990  -1.562  -0.589  0.00  0.00    +0.015 C 
ATOM      8  C   UNL     1      -4.838  -0.168   0.151  0.00  0.00    +0.029 C 
ATOM      9  C   UNL     1      -4.352  -1.382  -0.332  0.00  0.00    +0.004 C 
ATOM     10  H   UNL     1      -0.184  -1.088  -0.830  0.00  0.00    +0.152 HD
ENDROOT
BRANCH   8  13
ATOM     11  N   UNL     1      -7.122  -0.972   0.204  0.00  0.00    -0.387 N 
ATOM     12  N   UNL     1      -6.696   1.201   0.886  0.00  0.00    -0.345 N 
ATOM     13  C   UNL     1      -6.250   0.024   0.420  0.00  0.00    +0.095 C 
ATOM     14  H   UNL     1      -8.080  -0.836   0.388  0.00  0.00    +0.157 HD
ATOM     15  H   UNL     1      -6.805  -1.838  -0.139  0.00  0.00    +0.157 HD
ATOM     16  H   UNL     1      -7.655   1.326   1.067  0.00  0.00    +0.144 HD
ATOM     17  H   UNL     1      -6.064   1.938   1.047  0.00  0.00    +0.144 HD
ENDBRANCH   8  13
BRANCH   2  18
ATOM     18  C   UNL     1       1.032   1.272  -0.202  0.00  0.00    +0.047 C 
ATOM     19  C   UNL     1       2.054   0.338  -0.029  0.00  0.00    +0.135 C 
ATOM     20  C   UNL     1       3.388   0.740  -0.097  0.00  0.00    +0.034 C 
ATOM     21  C   UNL     1       1.348   2.611  -0.443  0.00  0.00    +0.004 C 
ATOM     22  C   UNL     1       3.702   2.078  -0.338  0.00  0.00    +0.003 C 
ATOM     23  C   UNL     1       2.682   3.013  -0.510  0.00  0.00    +0.000 C 
BRANCH  20  24
ATOM     24  C   UNL     1       4.465  -0.214   0.079  0.00  0.00    +0.003 C 
ATOM     25  C   UNL     1       4.978  -0.456   1.352  0.00  0.00    +0.000 C 
ATOM     26  C   UNL     1       4.986  -0.886  -1.026  0.00  0.00    +0.000 C 
ATOM     27  C   UNL     1       6.014  -1.374   1.522  0.00  0.00    +0.000 C 
ATOM     28  C   UNL     1       6.022  -1.804  -0.856  0.00  0.00    +0.000 C 
ATOM     29  C   UNL     1       6.536  -2.048   0.418  0.00  0.00    +0.000 C 
ENDBRANCH  20  24
BRANCH  19  30
ATOM     30  O   UNL     1       1.747  -0.973   0.206  0.00  0.00    -0.505 OA
ATOM     31  H   UNL     1       0.851  -1.244   0.252  0.00  0.00    +0.292 HD
ENDBRANCH  19  30
ENDBRANCH   2  18
TORSDOF 4
