REMARK  Name = 446236
REMARK  7 active torsions:
REMARK  status: ('A' for Active; 'I' for Inactive)
REMARK    1  A    between atoms: C_1  and  C_2
REMARK    2  A    between atoms: C_1  and  C_15
REMARK    3  A    between atoms: C_2  and  C_3
REMARK    4  A    between atoms: C_3  and  C_10
REMARK    5  A    between atoms: C_15  and  C_18
REMARK    6  A    between atoms: N_17  and  C_20
REMARK    7  A    between atoms: C_25  and  N_28
REMARK                            x       y       z     vdW  Elec       q    Type
REMARK                         _______ _______ _______ _____ _____    ______ ____
ROOT
ATOM      1  C   UNL     1      -1.027  -0.940  -0.267  0.00  0.00    +0.010 C 
ENDROOT
BRANCH   1   2
ATOM      2  C   UNL     1      -2.366  -0.914   0.471  0.00  0.00    +0.001 C 
BRANCH   2   3
ATOM      3  C   UNL     1      -3.510  -1.361  -0.437  0.00  0.00    +0.013 C 
BRANCH   3  10
ATOM      4  S   UNL     1      -6.215  -1.845  -0.777  0.00  0.00    -0.138 S 
ATOM      5  O   UNL     1      -6.117   2.905  -1.207  0.00  0.00    -0.253 OA
ATOM      6  N   UNL     1      -4.966   1.164  -0.144  0.00  0.00    -0.288 N 
ATOM      7  N   UNL     1      -7.195   1.313   0.132  0.00  0.00    -0.288 N 
ATOM      8  C   UNL     1      -5.282   0.081   0.768  0.00  0.00    +0.102 C 
ATOM      9  C   UNL     1      -6.821   0.137   0.892  0.00  0.00    +0.103 C 
ATOM     10  C   UNL     1      -4.848  -1.305   0.283  0.00  0.00    +0.067 C 
ATOM     11  C   UNL     1      -7.460  -1.126   0.317  0.00  0.00    +0.079 C 
ATOM     12  C   UNL     1      -6.096   1.911  -0.494  0.00  0.00    +0.301 C 
ATOM     13  H   UNL     1      -4.059   1.352  -0.478  0.00  0.00    +0.151 HD
ATOM     14  H   UNL     1      -8.116   1.653   0.063  0.00  0.00    +0.151 HD
ENDBRANCH   3  10
ENDBRANCH   2   3
ENDBRANCH   1   2
BRANCH   1  15
ATOM     15  C   UNL     1       0.112  -0.461   0.630  0.00  0.00    +0.085 C 
BRANCH  15  18
ATOM     16  O   UNL     1       1.589  -0.900  -1.222  0.00  0.00    -0.275 OA
ATOM     17  N   UNL     1       2.470  -0.066   0.789  0.00  0.00    -0.284 N 
ATOM     18  C   UNL     1       1.466  -0.511  -0.066  0.00  0.00    +0.226 C 
ATOM     19  H   UNL     1       2.184   0.210   1.690  0.00  0.00    +0.155 HD
BRANCH  17  20
ATOM     20  C   UNL     1       3.855   0.036   0.514  0.00  0.00    +0.050 C 
ATOM     21  C   UNL     1       4.708   0.505   1.498  0.00  0.00    +0.016 C 
ATOM     22  C   UNL     1       4.326  -0.335  -0.734  0.00  0.00    +0.016 C 
ATOM     23  C   UNL     1       6.073   0.606   1.227  0.00  0.00    +0.025 C 
ATOM     24  C   UNL     1       5.691  -0.234  -1.006  0.00  0.00    +0.025 C 
ATOM     25  C   UNL     1       6.564   0.236  -0.025  0.00  0.00    +0.143 C 
BRANCH  25  28
ATOM     26  O   UNL     1       8.722   0.764   0.595  0.00  0.00    -0.126 OA
ATOM     27  O   UNL     1       8.374   0.000  -1.434  0.00  0.00    -0.126 OA
ATOM     28  N   UNL     1       7.953   0.338  -0.301  0.00  0.00    +0.058 N 
ENDBRANCH  25  28
ENDBRANCH  17  20
ENDBRANCH  15  18
ENDBRANCH   1  15
TORSDOF 7
