REMARK  Name = 5288855
REMARK  6 active torsions:
REMARK  status: ('A' for Active; 'I' for Inactive)
REMARK    1  A    between atoms: C_2  and  C_11
REMARK    2  A    between atoms: C_3  and  C_24
REMARK    3  A    between atoms: C_4  and  O_20
REMARK    4  A    between atoms: C_5  and  O_22
REMARK    5  A    between atoms: C_15  and  O_18
REMARK    6  A    between atoms: C_24  and  S_25
REMARK                            x       y       z     vdW  Elec       q    Type
REMARK                         _______ _______ _______ _____ _____    ______ ____
ROOT
ATOM      1  N   UNL     1      -1.617   0.047   1.142  0.00  0.00    +0.393 N 
ATOM      2  C   UNL     1      -1.005   1.293   0.521  0.00  0.00    -0.006 C 
ATOM      3  C   UNL     1      -2.881  -0.327   0.389  0.00  0.00    -0.020 C 
ATOM      4  C   UNL     1      -1.763   1.439  -0.800  0.00  0.00    +0.120 C 
ATOM      5  C   UNL     1      -3.153   0.889  -0.490  0.00  0.00    +0.117 C 
ATOM      6  H   UNL     1      -1.845   0.231   2.119  0.00  0.00    -0.084 HD
ATOM      7  H   UNL     1      -0.949  -0.723   1.086  0.00  0.00    -0.084 HD
ENDROOT
BRANCH   2  11
ATOM      8  N   UNL     1       2.624   1.894   0.285  0.00  0.00    -0.322 N 
ATOM      9  N   UNL     1       0.930  -1.179  -0.028  0.00  0.00    -0.247 NA
ATOM     10  N   UNL     1       3.296  -1.675  -0.313  0.00  0.00    -0.213 NA
ATOM     11  C   UNL     1       0.489   1.259   0.380  0.00  0.00    -0.010 C 
ATOM     12  C   UNL     1       1.292   0.117   0.136  0.00  0.00    +0.078 C 
ATOM     13  C   UNL     1       1.340   2.341   0.467  0.00  0.00    +0.053 C 
ATOM     14  C   UNL     1       2.618   0.538   0.081  0.00  0.00    +0.186 C 
ATOM     15  C   UNL     1       3.631  -0.377  -0.147  0.00  0.00    +0.219 C 
ATOM     16  C   UNL     1       1.984  -1.992  -0.244  0.00  0.00    +0.253 C 
ATOM     17  H   UNL     1       3.429   2.461   0.299  0.00  0.00    +0.148 HD
BRANCH  15  18
ATOM     18  O   UNL     1       4.955  -0.026  -0.212  0.00  0.00    -0.494 OA
ATOM     19  H   UNL     1       5.606  -0.681  -0.369  0.00  0.00    +0.293 HD
ENDBRANCH  15  18
ENDBRANCH   2  11
BRANCH   4  20
ATOM     20  O   UNL     1      -1.820   2.795  -1.208  0.00  0.00    -0.384 OA
ATOM     21  H   UNL     1      -0.923   3.114  -1.397  0.00  0.00    +0.210 HD
ENDBRANCH   4  20
BRANCH   5  22
ATOM     22  O   UNL     1      -3.939   1.838   0.230  0.00  0.00    -0.384 OA
ATOM     23  H   UNL     1      -4.814   1.461   0.412  0.00  0.00    +0.210 HD
ENDBRANCH   5  22
BRANCH   3  24
ATOM     24  C   UNL     1      -2.616  -1.601  -0.400  0.00  0.00    +0.039 C 
BRANCH  24  25
ATOM     25  S   UNL     1      -2.315  -2.990   0.725  0.00  0.00    -0.141 S 
ATOM     26  C   UNL     1      -2.050  -4.282  -0.512  0.00  0.00    +0.069 C 
ENDBRANCH  24  25
ENDBRANCH   3  24
TORSDOF 6
