REMARK  Name = 444570
REMARK  0 active torsions:
REMARK  status: ('A' for Active; 'I' for Inactive)
REMARK                            x       y       z     vdW  Elec       q    Type
REMARK                         _______ _______ _______ _____ _____    ______ ____
ROOT
ATOM      1  O   UNL     1       2.525   0.254  -0.021  0.00  0.00    -0.275 OA
ATOM      2  N   UNL     1       0.207   0.676   0.044  0.00  0.00    -0.281 N 
ATOM      3  C   UNL     1      -1.024  -0.115  -0.002  0.00  0.00    +0.061 C 
ATOM      4  C   UNL     1      -0.527  -1.485   0.481  0.00  0.00    +0.028 C 
ATOM      5  C   UNL     1       0.917  -1.555  -0.006  0.00  0.00    +0.087 C 
ATOM      6  C   UNL     1       1.359  -0.113   0.017  0.00  0.00    +0.226 C 
ATOM      7  C   UNL     1      -1.555  -0.205  -1.441  0.00  0.00    +0.020 C 
ATOM      8  C   UNL     1      -2.120   0.416   0.926  0.00  0.00    +0.020 C 
ATOM      9  C   UNL     1       0.218   2.127   0.001  0.00  0.00    +0.115 C 
ENDROOT
TORSDOF 0
