REMARK  Name = 446904
REMARK  7 active torsions:
REMARK  status: ('A' for Active; 'I' for Inactive)
REMARK    1  A    between atoms: C_7  and  C_12
REMARK    2  A    between atoms: C_12  and  C_13
REMARK    3  A    between atoms: C_13  and  C_14
REMARK    4  A    between atoms: C_14  and  C_15
REMARK    5  A    between atoms: C_15  and  C_16
REMARK    6  A    between atoms: C_16  and  C_18
REMARK    7  A    between atoms: C_18  and  O_19
REMARK                            x       y       z     vdW  Elec       q    Type
REMARK                         _______ _______ _______ _____ _____    ______ ____
ROOT
ATOM      1  S   UNL     1      -3.135   1.969   0.840  0.00  0.00    -0.138 S 
ATOM      2  O   UNL     1      -3.398  -2.794   0.920  0.00  0.00    -0.253 OA
ATOM      3  N   UNL     1      -2.052  -1.073   0.075  0.00  0.00    -0.288 N 
ATOM      4  N   UNL     1      -4.259  -1.037  -0.368  0.00  0.00    -0.288 N 
ATOM      5  C   UNL     1      -2.223   0.091  -0.774  0.00  0.00    +0.102 C 
ATOM      6  C   UNL     1      -3.749   0.159  -1.011  0.00  0.00    +0.103 C 
ATOM      7  C   UNL     1      -1.732   1.404  -0.158  0.00  0.00    +0.067 C 
ATOM      8  C   UNL     1      -4.341   1.422  -0.390  0.00  0.00    +0.079 C 
ATOM      9  C   UNL     1      -3.255  -1.757   0.287  0.00  0.00    +0.301 C 
ATOM     10  H   UNL     1      -1.189  -1.350   0.457  0.00  0.00    +0.151 HD
ATOM     11  H   UNL     1      -5.204  -1.311  -0.391  0.00  0.00    +0.151 HD
ENDROOT
BRANCH   7  12
ATOM     12  C   UNL     1      -0.453   1.311   0.657  0.00  0.00    +0.013 C 
BRANCH  12  13
ATOM     13  C   UNL     1       0.746   0.796  -0.143  0.00  0.00    +0.001 C 
BRANCH  13  14
ATOM     14  C   UNL     1       2.025   0.678   0.689  0.00  0.00    +0.001 C 
BRANCH  14  15
ATOM     15  C   UNL     1       3.199   0.195  -0.170  0.00  0.00    +0.012 C 
BRANCH  15  16
ATOM     16  C   UNL     1       4.504   0.103   0.622  0.00  0.00    +0.109 C 
BRANCH  16  18
ATOM     17  O   UNL     1       5.621  -0.719  -1.380  0.00  0.00    -0.250 OA
ATOM     18  C   UNL     1       5.674  -0.379  -0.207  0.00  0.00    +0.314 C 
BRANCH  18  19
ATOM     19  O   UNL     1       6.828  -0.370   0.511  0.00  0.00    -0.480 OA
ATOM     20  H   UNL     1       6.819  -0.101   1.408  0.00  0.00    +0.295 HD
ENDBRANCH  18  19
ENDBRANCH  16  18
ENDBRANCH  15  16
ENDBRANCH  14  15
ENDBRANCH  13  14
ENDBRANCH  12  13
ENDBRANCH   7  12
TORSDOF 7
