REMARK  Name = 1567
REMARK  3 active torsions:
REMARK  status: ('A' for Active; 'I' for Inactive)
REMARK    1  A    between atoms: C_1  and  S_2
REMARK    2  A    between atoms: C_1  and  C_4
REMARK    3  A    between atoms: C_4  and  O_5
REMARK                            x       y       z     vdW  Elec       q    Type
REMARK                         _______ _______ _______ _____ _____    ______ ____
ROOT
ATOM      1  C   UNL     1      -0.523  -0.768  -0.284  0.00  0.00    +0.085 C 
ENDROOT
BRANCH   1   2
ATOM      2  S   UNL     1      -1.696   0.563   0.118  0.00  0.00    -0.165 S 
ATOM      3  H   UNL     1      -2.902   0.292  -0.449  0.00  0.00    +0.102 HD
ENDBRANCH   1   2
BRANCH   1   4
ATOM      4  C   UNL     1       0.843  -0.508   0.330  0.00  0.00    +0.148 C 
BRANCH   4   5
ATOM      5  O   UNL     1       1.377   0.713  -0.164  0.00  0.00    -0.381 OA
ATOM      6  H   UNL     1       2.247   0.870   0.233  0.00  0.00    +0.210 HD
ENDBRANCH   4   5
ENDBRANCH   1   4
TORSDOF 3
