REMARK  Name = 2724898
REMARK  6 active torsions:
REMARK  status: ('A' for Active; 'I' for Inactive)
REMARK    1  A    between atoms: C_1  and  C_2
REMARK    2  A    between atoms: C_1  and  C_6
REMARK    3  A    between atoms: C_2  and  C_3
REMARK    4  A    between atoms: C_3  and  C_4
REMARK    5  A    between atoms: C_6  and  O_7
REMARK    6  A    between atoms: C_6  and  C_9
REMARK                            x       y       z     vdW  Elec       q    Type
REMARK                         _______ _______ _______ _____ _____    ______ ____
ROOT
ATOM      1  C   UNL     1       0.437   0.312   0.338  0.00  0.00    +0.034 C 
ENDROOT
BRANCH   1   2
ATOM      2  C   UNL     1      -0.821  -0.323  -0.261  0.00  0.00    +0.003 C 
BRANCH   2   3
ATOM      3  C   UNL     1      -2.087   0.375   0.242  0.00  0.00    +0.000 C 
BRANCH   3   4
ATOM      4  C   UNL     1      -3.343  -0.230  -0.386  0.00  0.00    +0.000 C 
ATOM      5  C   UNL     1      -4.604   0.439   0.137  0.00  0.00    +0.000 C 
ENDBRANCH   3   4
ENDBRANCH   2   3
ENDBRANCH   1   2
BRANCH   1   6
ATOM      6  C   UNL     1       1.747  -0.291  -0.190  0.00  0.00    +0.132 C 
BRANCH   6   7
ATOM      7  O   UNL     1       1.765  -1.678   0.149  0.00  0.00    -0.380 OA
ATOM      8  H   UNL     1       0.969  -2.107  -0.203  0.00  0.00    +0.211 HD
ENDBRANCH   6   7
BRANCH   6   9
ATOM      9  C   UNL     1       2.973   0.402   0.346  0.00  0.00    +0.003 C 
ATOM     10  C   UNL     1       3.934   0.994  -0.375  0.00  0.00    -0.002 C 
ENDBRANCH   6   9
ENDBRANCH   1   6
TORSDOF 6
