REMARK  Name = 447531
REMARK  5 active torsions:
REMARK  status: ('A' for Active; 'I' for Inactive)
REMARK    1  A    between atoms: C_1  and  C_11
REMARK    2  A    between atoms: C_11  and  P_12
REMARK    3  A    between atoms: C_11  and  O_18
REMARK    4  A    between atoms: P_12  and  O_14
REMARK    5  A    between atoms: P_12  and  O_16
REMARK                            x       y       z     vdW  Elec       q    Type
REMARK                         _______ _______ _______ _____ _____    ______ ____
ROOT
ATOM      1  C   UNL     1       0.247   0.637  -0.391  0.00  0.00    +0.016 C 
ATOM      2  C   UNL     1      -0.926  -0.120  -0.244  0.00  0.00    -0.001 C 
ATOM      3  C   UNL     1      -2.114   0.520   0.183  0.00  0.00    -0.000 C 
ATOM      4  C   UNL     1       0.251   2.006  -0.121  0.00  0.00    -0.001 C 
ATOM      5  C   UNL     1      -0.947  -1.499  -0.510  0.00  0.00    -0.000 C 
ATOM      6  C   UNL     1      -2.092   1.899   0.450  0.00  0.00    -0.000 C 
ATOM      7  C   UNL     1      -0.917   2.635   0.299  0.00  0.00    -0.000 C 
ATOM      8  C   UNL     1      -3.287  -0.237   0.331  0.00  0.00    -0.000 C 
ATOM      9  C   UNL     1      -2.122  -2.236  -0.358  0.00  0.00    -0.000 C 
ATOM     10  C   UNL     1      -3.290  -1.606   0.062  0.00  0.00    -0.000 C 
ENDROOT
BRANCH   1  11
ATOM     11  C   UNL     1       1.538   0.023  -0.839  0.00  0.00    +0.237 C 
BRANCH  11  12
ATOM     12  P   UNL     1       2.635  -0.524   0.471  0.00  0.00    +0.367 P 
ATOM     13  O   UNL     1       3.072   0.566   1.404  0.00  0.00    -0.255 OA
BRANCH  12  14
ATOM     14  O   UNL     1       1.824  -1.733   1.177  0.00  0.00    -0.322 OA
ATOM     15  H   UNL     1       2.351  -2.093   1.907  0.00  0.00    +0.220 HD
ENDBRANCH  12  14
BRANCH  12  16
ATOM     16  O   UNL     1       3.835  -1.284  -0.301  0.00  0.00    -0.322 OA
ATOM     17  H   UNL     1       4.478  -1.614   0.346  0.00  0.00    +0.220 HD
ENDBRANCH  12  16
ENDBRANCH  11  12
BRANCH  11  18
ATOM     18  O   UNL     1       2.295   0.953  -1.615  0.00  0.00    -0.370 OA
ATOM     19  H   UNL     1       3.125   0.538  -1.896  0.00  0.00    +0.212 HD
ENDBRANCH  11  18
ENDBRANCH   1  11
TORSDOF 5
