REMARK  Name = 6468
REMARK  2 active torsions:
REMARK  status: ('A' for Active; 'I' for Inactive)
REMARK    1  A    between atoms: C_1  and  N_7
REMARK    2  A    between atoms: C_1  and  C_14
REMARK                            x       y       z     vdW  Elec       q    Type
REMARK                         _______ _______ _______ _____ _____    ______ ____
ROOT
ATOM      1  C   UNL     1      -0.339   0.727  -0.033  0.00  0.00    -0.022 C 
ATOM      2  C   UNL     1      -0.859   1.480  -1.290  0.00  0.00    -0.015 C 
ATOM      3  C   UNL     1      -0.790   1.523   1.226  0.00  0.00    -0.015 C 
ATOM      4  C   UNL     1      -2.359   1.788  -1.258  0.00  0.00    -0.002 C 
ATOM      5  C   UNL     1      -2.286   1.845   1.257  0.00  0.00    -0.002 C 
ATOM      6  C   UNL     1      -2.739   2.566  -0.005  0.00  0.00    -0.000 C 
ENDROOT
BRANCH   1   7
ATOM      7  N   UNL     1      -0.993  -0.582  -0.023  0.00  0.00    +0.392 N 
ATOM      8  C   UNL     1      -0.594  -1.364  -1.201  0.00  0.00    -0.077 C 
ATOM      9  C   UNL     1      -0.685  -1.301   1.221  0.00  0.00    -0.077 C 
ATOM     10  C   UNL     1      -1.307  -2.717  -1.232  0.00  0.00    -0.023 C 
ATOM     11  C   UNL     1      -1.401  -2.652   1.270  0.00  0.00    -0.023 C 
ATOM     12  C   UNL     1      -1.062  -3.503   0.051  0.00  0.00    -0.004 C 
ATOM     13  H   UNL     1      -2.003  -0.444  -0.065  0.00  0.00    -0.079 HD
ENDBRANCH   1   7
BRANCH   1  14
ATOM     14  C   UNL     1       1.191   0.537  -0.014  0.00  0.00    -0.040 C 
ATOM     15  C   UNL     1       1.887   0.421  -1.213  0.00  0.00    -0.006 C 
ATOM     16  C   UNL     1       1.865   0.481   1.202  0.00  0.00    -0.006 C 
ATOM     17  C   UNL     1       3.271   0.249  -1.196  0.00  0.00    -0.000 C 
ATOM     18  C   UNL     1       3.249   0.309   1.219  0.00  0.00    -0.000 C 
ATOM     19  C   UNL     1       3.952   0.194   0.020  0.00  0.00    -0.000 C 
ENDBRANCH   1  14
TORSDOF 2
