REMARK  Name = 446134
REMARK  4 active torsions:
REMARK  status: ('A' for Active; 'I' for Inactive)
REMARK    1  A    between atoms: C_2  and  C_14
REMARK    2  A    between atoms: C_3  and  C_8
REMARK    3  A    between atoms: C_14  and  C_17
REMARK    4  A    between atoms: C_17  and  O_18
REMARK                            x       y       z     vdW  Elec       q    Type
REMARK                         _______ _______ _______ _____ _____    ______ ____
ROOT
ATOM      1  F   UNL     1      -1.019  -0.701  -2.005  0.00  0.00    -0.204 F 
ATOM      2  C   UNL     1       1.487   0.645   0.222  0.00  0.00    -0.010 C 
ATOM      3  C   UNL     1      -1.242   0.232   0.172  0.00  0.00    +0.027 C 
ATOM      4  C   UNL     1       0.919   0.068  -0.896  0.00  0.00    +0.026 C 
ATOM      5  C   UNL     1       0.734   1.022   1.316  0.00  0.00    -0.004 C 
ATOM      6  C   UNL     1      -0.460  -0.141  -0.921  0.00  0.00    +0.140 C 
ATOM      7  C   UNL     1      -0.645   0.813   1.291  0.00  0.00    +0.002 C 
ENDROOT
BRANCH   3   8
ATOM      8  C   UNL     1      -2.673   0.016   0.151  0.00  0.00    +0.002 C 
ATOM      9  C   UNL     1      -3.520   1.007  -0.344  0.00  0.00    +0.000 C 
ATOM     10  C   UNL     1      -3.205  -1.183   0.625  0.00  0.00    +0.000 C 
ATOM     11  C   UNL     1      -4.899   0.799  -0.365  0.00  0.00    +0.000 C 
ATOM     12  C   UNL     1      -4.584  -1.391   0.604  0.00  0.00    +0.000 C 
ATOM     13  C   UNL     1      -5.431  -0.400   0.109  0.00  0.00    +0.000 C 
ENDBRANCH   3   8
BRANCH   2  14
ATOM     14  C   UNL     1       2.990   0.873   0.249  0.00  0.00    +0.121 C 
ATOM     15  C   UNL     1       3.455   1.822  -0.859  0.00  0.00    +0.016 C 
BRANCH  14  17
ATOM     16  O   UNL     1       3.263  -1.548   0.071  0.00  0.00    -0.250 OA
ATOM     17  C   UNL     1       3.765  -0.436   0.183  0.00  0.00    +0.321 C 
BRANCH  17  18
ATOM     18  O   UNL     1       5.106  -0.177   0.239  0.00  0.00    -0.444 OA
ATOM     19  C   UNL     1       5.961  -1.322   0.159  0.00  0.00    +0.256 C 
ENDBRANCH  17  18
ENDBRANCH  14  17
ENDBRANCH   2  14
TORSDOF 4
