REMARK  Name = 5289037
REMARK  5 active torsions:
REMARK  status: ('A' for Active; 'I' for Inactive)
REMARK    1  A    between atoms: C_1  and  N_4
REMARK    2  A    between atoms: C_1  and  C_7
REMARK    3  A    between atoms: C_7  and  C_8
REMARK    4  A    between atoms: C_8  and  C_9
REMARK    5  A    between atoms: C_9  and  C_10
REMARK                            x       y       z     vdW  Elec       q    Type
REMARK                         _______ _______ _______ _____ _____    ______ ____
ROOT
ATOM      1  C   UNL     1      -1.443  -0.728   0.216  0.00  0.00    +0.072 C 
ATOM      2  C   UNL     1      -2.366  -1.921  -0.007  0.00  0.00    +0.021 C 
ENDROOT
BRANCH   1   4
ATOM      3  O   UNL     1      -3.427   1.396   0.614  0.00  0.00    -0.265 OA
ATOM      4  N   UNL     1      -1.799   0.340  -0.690  0.00  0.00    -0.299 N 
ATOM      5  C   UNL     1      -2.751   1.292  -0.401  0.00  0.00    +0.299 C 
ATOM      6  H   UNL     1      -1.336   0.389  -1.557  0.00  0.00    +0.150 HD
ENDBRANCH   1   4
BRANCH   1   7
ATOM      7  C   UNL     1       0.027  -1.136   0.047  0.00  0.00    +0.020 C 
BRANCH   7   8
ATOM      8  C   UNL     1       0.990   0.046   0.214  0.00  0.00    +0.002 C 
BRANCH   8   9
ATOM      9  C   UNL     1       2.440  -0.385  -0.019  0.00  0.00    +0.000 C 
BRANCH   9  10
ATOM     10  C   UNL     1       3.448   0.752   0.162  0.00  0.00    +0.000 C 
ATOM     11  C   UNL     1       4.882   0.345  -0.137  0.00  0.00    +0.000 C 
ENDBRANCH   9  10
ENDBRANCH   8   9
ENDBRANCH   7   8
ENDBRANCH   1   7
TORSDOF 5
