REMARK  Name = 974
REMARK  2 active torsions:
REMARK  status: ('A' for Active; 'I' for Inactive)
REMARK    1  A    between atoms: C_3  and  C_7
REMARK    2  A    between atoms: C_7  and  O_8
REMARK                            x       y       z     vdW  Elec       q    Type
REMARK                         _______ _______ _______ _____ _____    ______ ____
ROOT
ATOM      1  O   UNL     1      -1.260   1.173   0.000  0.00  0.00    -0.263 OA
ATOM      2  N   UNL     1      -1.406  -1.139   0.000  0.00  0.00    -0.320 N 
ATOM      3  C   UNL     1      -0.748   0.065   0.000  0.00  0.00    +0.319 C 
ATOM      4  H   UNL     1      -2.390  -1.162   0.000  0.00  0.00    +0.145 HD
ATOM      5  H   UNL     1      -0.894  -1.980   0.000  0.00  0.00    +0.145 HD
ENDROOT
BRANCH   3   7
ATOM      6  O   UNL     1       1.323  -1.154   0.000  0.00  0.00    -0.240 OA
ATOM      7  C   UNL     1       0.757  -0.079   0.000  0.00  0.00    +0.392 C 
BRANCH   7   8
ATOM      8  O   UNL     1       1.334   1.133   0.000  0.00  0.00    -0.474 OA
ATOM      9  H   UNL     1       0.802   1.905  -0.001  0.00  0.00    +0.296 HD
ENDBRANCH   7   8
ENDBRANCH   3   7
TORSDOF 2
