REMARK  Name = 71098
REMARK  6 active torsions:
REMARK  status: ('A' for Active; 'I' for Inactive)
REMARK    1  A    between atoms: CB_1  and  CG_2
REMARK    2  A    between atoms: CB_1  and  CA_10
REMARK    3  A    between atoms: CZ_7  and  OH_8
REMARK    4  A    between atoms: CA_10  and  N_11
REMARK    5  A    between atoms: CA_10  and  C_16
REMARK    6  A    between atoms: C_16  and  O_17
REMARK                            x       y       z     vdW  Elec       q    Type
REMARK                         _______ _______ _______ _____ _____    ______ ____
ROOT
ATOM      1  CB  TYR A   1       1.062   1.005   0.768  0.00  0.00    +0.015 C 
ENDROOT
BRANCH   1   2
ATOM      2  CG  TYR A   1      -0.351   0.569   0.456  0.00  0.00    -0.024 C 
ATOM      3  CD1 TYR A   1      -1.198   1.442  -0.205  0.00  0.00    -0.001 C 
ATOM      4  CD2 TYR A   1      -0.769  -0.694   0.838  0.00  0.00    -0.001 C 
ATOM      5  CE1 TYR A   1      -2.503   1.040  -0.492  0.00  0.00    +0.036 C 
ATOM      6  CE2 TYR A   1      -2.074  -1.096   0.551  0.00  0.00    +0.036 C 
ATOM      7  CZ  TYR A   1      -2.941  -0.229  -0.114  0.00  0.00    +0.134 C 
BRANCH   7   8
ATOM      8  OH  TYR A   1      -4.213  -0.621  -0.396  0.00  0.00    -0.506 OA
ATOM      9  HH  TYR A   1      -4.795  -0.038  -0.843  0.00  0.00    +0.292 HD
ENDBRANCH   7   8
ENDBRANCH   1   2
BRANCH   1  10
ATOM     10  CA  TYR A   1       2.050   0.655  -0.354  0.00  0.00    +0.040 C 
BRANCH  10  11
ATOM     11  N   TYR A   1       3.244   1.495  -0.236  0.00  0.00    +0.389 N 
ATOM     12  H1  TYR A   1       2.977   2.477  -0.302  0.00  0.00    -0.088 HD
ATOM     13  H2  TYR A   1       3.895   1.268  -0.988  0.00  0.00    -0.088 HD
ATOM     14  H3  TYR A   1       3.692   1.324   0.665  0.00  0.00    -0.088 HD
ENDBRANCH  10  11
BRANCH  10  16
ATOM     15  OXT TYR A   1       3.451  -1.187   0.430  0.00  0.00    -0.253 OA
ATOM     16  C   TYR A   1       2.516  -0.783  -0.247  0.00  0.00    +0.293 C 
BRANCH  16  17
ATOM     17  O   TYR A   1       1.727  -1.597  -0.997  0.00  0.00    -0.482 OA
ATOM     18  H   TYR A   1       1.023  -1.235  -1.498  0.00  0.00    +0.295 HD
ENDBRANCH  16  17
ENDBRANCH  10  16
ENDBRANCH   1  10
TORSDOF 6
