REMARK  Name = 447832
REMARK  10 active torsions:
REMARK  status: ('A' for Active; 'I' for Inactive)
REMARK    1  A    between atoms: C_2  and  O_18
REMARK    2  A    between atoms: C_3  and  O_20
REMARK    3  A    between atoms: C_4  and  N_6
REMARK    4  A    between atoms: C_5  and  C_22
REMARK    5  A    between atoms: C_22  and  O_23
REMARK    6  A    between atoms: O_23  and  P_24
REMARK    7  A    between atoms: P_24  and  O_26
REMARK    8  A    between atoms: P_24  and  O_28
REMARK    9  A    between atoms: O_28  and  C_29
REMARK   10  A    between atoms: C_29  and  C_30
REMARK                            x       y       z     vdW  Elec       q    Type
REMARK                         _______ _______ _______ _____ _____    ______ ____
ROOT
ATOM      1  O   UNL     1       0.487   1.049  -0.747  0.00  0.00    -0.333 OA
ATOM      2  C   UNL     1      -0.811   2.582   0.567  0.00  0.00    +0.187 C 
ATOM      3  C   UNL     1       0.566   2.395   1.176  0.00  0.00    +0.171 C 
ATOM      4  C   UNL     1      -0.868   1.476  -0.489  0.00  0.00    +0.225 C 
ATOM      5  C   UNL     1       1.378   1.899  -0.008  0.00  0.00    +0.176 C 
ENDROOT
BRANCH   4   6
ATOM      6  N   UNL     1      -1.675   0.323  -0.089  0.00  0.00    -0.247 N 
ATOM      7  N   UNL     1      -2.196  -1.636   0.844  0.00  0.00    -0.242 NA
ATOM      8  N   UNL     1      -3.827   0.908  -1.052  0.00  0.00    -0.228 NA
ATOM      9  N   UNL     1      -5.501  -0.808  -0.596  0.00  0.00    -0.229 NA
ATOM     10  C   UNL     1      -2.997   0.111  -0.363  0.00  0.00    +0.152 C 
ATOM     11  C   UNL     1      -1.240  -0.755   0.638  0.00  0.00    +0.223 C 
ATOM     12  C   UNL     1      -3.300  -1.107   0.224  0.00  0.00    +0.140 C 
ATOM     13  C   UNL     1      -4.608  -1.563   0.089  0.00  0.00    +0.143 C 
ATOM     14  C   UNL     1      -5.061   0.363  -1.116  0.00  0.00    +0.253 C 
ATOM     15  N   UNL     1      -5.004  -2.787   0.654  0.00  0.00    -0.342 N 
ATOM     16  H   UNL     1      -5.932  -3.099   0.552  0.00  0.00    +0.144 HD
ATOM     17  H   UNL     1      -4.353  -3.333   1.151  0.00  0.00    +0.144 HD
ENDBRANCH   4   6
BRANCH   2  18
ATOM     18  O   UNL     1      -0.924   3.851  -0.075  0.00  0.00    -0.378 OA
ATOM     19  H   UNL     1      -0.888   4.554   0.592  0.00  0.00    +0.211 HD
ENDBRANCH   2  18
BRANCH   3  20
ATOM     20  O   UNL     1       1.101   3.578   1.730  0.00  0.00    -0.379 OA
ATOM     21  H   UNL     1       0.554   3.859   2.481  0.00  0.00    +0.211 HD
ENDBRANCH   3  20
BRANCH   5  22
ATOM     22  C   UNL     1       2.618   1.121   0.393  0.00  0.00    +0.186 C 
BRANCH  22  23
ATOM     23  O   UNL     1       3.289   0.701  -0.782  0.00  0.00    -0.271 OA
BRANCH  23  24
ATOM     24  P   UNL     1       4.657  -0.158  -0.672  0.00  0.00    +0.476 P 
ATOM     25  O   UNL     1       5.267  -0.540  -1.990  0.00  0.00    -0.227 OA
BRANCH  24  26
ATOM     26  O   UNL     1       5.620   0.746   0.264  0.00  0.00    -0.302 OA
ATOM     27  H   UNL     1       5.162   0.953   1.094  0.00  0.00    +0.222 HD
ENDBRANCH  24  26
BRANCH  24  28
ATOM     28  O   UNL     1       4.287  -1.411   0.286  0.00  0.00    -0.273 OA
BRANCH  28  29
ATOM     29  C   UNL     1       3.362  -2.373  -0.189  0.00  0.00    +0.154 C 
BRANCH  29  30
ATOM     30  C   UNL     1       3.175  -3.443   0.876  0.00  0.00    +0.033 C 
ATOM     31  C   UNL     1       2.204  -4.521   0.429  0.00  0.00    +0.003 C 
ENDBRANCH  29  30
ENDBRANCH  28  29
ENDBRANCH  24  28
ENDBRANCH  23  24
ENDBRANCH  22  23
ENDBRANCH   5  22
TORSDOF 10
