REMARK  Name = 65124
REMARK  7 active torsions:
REMARK  status: ('A' for Active; 'I' for Inactive)
REMARK    1  A    between atoms: C_1  and  C_12
REMARK    2  A    between atoms: C_4  and  N_9
REMARK    3  A    between atoms: C_6  and  O_10
REMARK    4  A    between atoms: C_12  and  CA_13
REMARK    5  A    between atoms: CA_13  and  N_14
REMARK    6  A    between atoms: CA_13  and  C_19
REMARK    7  A    between atoms: C_19  and  O_20
REMARK                            x       y       z     vdW  Elec       q    Type
REMARK                         _______ _______ _______ _____ _____    ______ ____
ROOT
ATOM      1  C   UNL     1      -0.383   0.922   0.521  0.00  0.00    -0.022 C 
ATOM      2  C   UNL     1       0.373  -0.237   0.581  0.00  0.00    +0.023 C 
ATOM      3  C   UNL     1       0.157   2.115   0.068  0.00  0.00    -0.001 C 
ATOM      4  C   UNL     1       1.708  -0.202   0.177  0.00  0.00    +0.176 C 
ATOM      5  C   UNL     1       1.491   2.149  -0.336  0.00  0.00    +0.038 C 
ATOM      6  C   UNL     1       2.267   0.991  -0.281  0.00  0.00    +0.156 C 
ENDROOT
BRANCH   4   9
ATOM      7  O   UNL     1       1.944  -2.445   0.656  0.00  0.00    -0.126 OA
ATOM      8  O   UNL     1       3.682  -1.355  -0.126  0.00  0.00    -0.126 OA
ATOM      9  N   UNL     1       2.483  -1.393   0.239  0.00  0.00    +0.061 N 
ENDBRANCH   4   9
BRANCH   6  10
ATOM     10  O   UNL     1       3.570   1.051  -0.679  0.00  0.00    -0.504 OA
ATOM     11  H   UNL     1       4.104   0.282  -0.649  0.00  0.00    +0.292 HD
ENDBRANCH   6  10
BRANCH   1  12
ATOM     12  C   UNL     1      -1.829   0.886   0.958  0.00  0.00    +0.015 C 
BRANCH  12  13
ATOM     13  CA  UNL     1      -2.792   0.547  -0.190  0.00  0.00    +0.040 C 
BRANCH  13  14
ATOM     14  N   UNL     1      -4.143   0.987   0.151  0.00  0.00    +0.389 N 
ATOM     15  H1  UNL     1      -4.138   1.991   0.333  0.00  0.00    -0.088 HD
ATOM     16  H2  UNL     1      -4.461   0.493   0.985  0.00  0.00    -0.088 HD
ATOM     17  H3  UNL     1      -4.773   0.785  -0.625  0.00  0.00    -0.088 HD
ENDBRANCH  13  14
BRANCH  13  19
ATOM     18  OXT UNL     1      -3.650  -1.712   0.114  0.00  0.00    -0.253 OA
ATOM     19  C   UNL     1      -2.874  -0.948  -0.446  0.00  0.00    +0.293 C 
BRANCH  19  20
ATOM     20  O   UNL     1      -2.003  -1.357  -1.405  0.00  0.00    -0.482 OA
ATOM     21  H   UNL     1      -1.426  -0.738  -1.809  0.00  0.00    +0.295 HD
ENDBRANCH  19  20
ENDBRANCH  13  19
ENDBRANCH  12  13
ENDBRANCH   1  12
TORSDOF 7
