REMARK  Name = 21138
REMARK  7 active torsions:
REMARK  status: ('A' for Active; 'I' for Inactive)
REMARK    1  A    between atoms: O_1  and  C_2
REMARK    2  A    between atoms: O_1  and  C_12
REMARK    3  A    between atoms: C_12  and  C_13
REMARK    4  A    between atoms: C_13  and  O_14
REMARK    5  A    between atoms: C_13  and  C_16
REMARK    6  A    between atoms: C_16  and  N_17
REMARK    7  A    between atoms: N_17  and  C_20
REMARK                            x       y       z     vdW  Elec       q    Type
REMARK                         _______ _______ _______ _____ _____    ______ ____
ROOT
ATOM      1  O   UNL     1      -0.409   1.478   0.679  0.00  0.00    -0.473 OA
ENDROOT
BRANCH   1   2
ATOM      2  C   UNL     1       0.722   1.200  -0.034  0.00  0.00    +0.139 C 
ATOM      3  C   UNL     1       1.585   0.158   0.342  0.00  0.00    +0.034 C 
ATOM      4  C   UNL     1       2.745  -0.091  -0.430  0.00  0.00    +0.003 C 
ATOM      5  C   UNL     1       0.998   1.985  -1.154  0.00  0.00    +0.037 C 
ATOM      6  C   UNL     1       1.322  -0.642   1.466  0.00  0.00    +0.003 C 
ATOM      7  C   UNL     1       3.008   0.708  -1.554  0.00  0.00    +0.000 C 
ATOM      8  C   UNL     1       2.139   1.739  -1.913  0.00  0.00    +0.003 C 
ATOM      9  C   UNL     1       3.609  -1.133  -0.054  0.00  0.00    +0.000 C 
ATOM     10  C   UNL     1       2.192  -1.673   1.824  0.00  0.00    +0.000 C 
ATOM     11  C   UNL     1       3.333  -1.918   1.066  0.00  0.00    +0.000 C 
ENDBRANCH   1   2
BRANCH   1  12
ATOM     12  C   UNL     1      -1.509   2.026  -0.042  0.00  0.00    +0.232 C 
BRANCH  12  13
ATOM     13  C   UNL     1      -2.808   1.576   0.622  0.00  0.00    +0.133 C 
BRANCH  13  14
ATOM     14  O   UNL     1      -2.805   2.027   1.979  0.00  0.00    -0.383 OA
ATOM     15  H   UNL     1      -3.626   1.748   2.414  0.00  0.00    +0.210 HD
ENDBRANCH  13  14
BRANCH  13  16
ATOM     16  C   UNL     1      -2.994   0.057   0.623  0.00  0.00    -0.048 C 
BRANCH  16  17
ATOM     17  N   UNL     1      -2.971  -0.498  -0.723  0.00  0.00    +0.387 N 
ATOM     18  H   UNL     1      -2.091  -0.248  -1.173  0.00  0.00    -0.084 HD
ATOM     19  H   UNL     1      -3.760  -0.117  -1.246  0.00  0.00    -0.084 HD
BRANCH  17  20
ATOM     20  C   UNL     1      -3.093  -1.950  -0.690  0.00  0.00    -0.062 C 
ATOM     21  C   UNL     1      -1.945  -2.559   0.109  0.00  0.00    -0.023 C 
ATOM     22  C   UNL     1      -3.116  -2.490  -2.116  0.00  0.00    -0.023 C 
ENDBRANCH  17  20
ENDBRANCH  16  17
ENDBRANCH  13  16
ENDBRANCH  12  13
ENDBRANCH   1  12
TORSDOF 7
