REMARK  Name = 1372
REMARK  6 active torsions:
REMARK  status: ('A' for Active; 'I' for Inactive)
REMARK    1  A    between atoms: N_1  and  C_13
REMARK    2  A    between atoms: C_4  and  C_20
REMARK    3  A    between atoms: C_9  and  O_11
REMARK    4  A    between atoms: C_13  and  C_14
REMARK    5  A    between atoms: C_20  and  C_22
REMARK    6  A    between atoms: C_22  and  O_23
REMARK                            x       y       z     vdW  Elec       q    Type
REMARK                         _______ _______ _______ _____ _____    ______ ____
ROOT
ATOM      1  N   UNL     1      -0.553   0.461  -0.774  0.00  0.00    -0.327 N 
ATOM      2  C   UNL     1       0.258  -0.623  -0.526  0.00  0.00    +0.060 A 
ATOM      3  C   UNL     1      -0.002   1.595  -0.241  0.00  0.00    +0.034 A 
ATOM      4  C   UNL     1       1.184   1.246   0.362  0.00  0.00    +0.002 A 
ATOM      5  C   UNL     1       1.362  -0.155   0.190  0.00  0.00    +0.016 A 
ATOM      6  C   UNL     1       2.359  -1.073   0.575  0.00  0.00    +0.038 C 
ATOM      7  C   UNL     1       0.101  -1.969  -0.877  0.00  0.00    +0.020 C 
ATOM      8  C   UNL     1      -0.660   2.915  -0.355  0.00  0.00    +0.050 C 
ATOM      9  C   UNL     1       2.216  -2.422   0.231  0.00  0.00    +0.139 C 
ATOM     10  C   UNL     1       1.103  -2.861  -0.484  0.00  0.00    +0.038 C 
ENDROOT
BRANCH   9  11
ATOM     11  O   UNL     1       3.177  -3.315   0.599  0.00  0.00    -0.471 OA
ATOM     12  C   UNL     1       2.977  -4.675   0.219  0.00  0.00    +0.252 C 
ENDBRANCH   9  11
BRANCH   1  13
ATOM     13  C   UNL     1      -1.809   0.407  -1.495  0.00  0.00    +0.132 C 
BRANCH  13  14
ATOM     14  C   UNL     1      -2.965   0.152  -0.567  0.00  0.00    +0.000 C 
ATOM     15  C   UNL     1      -3.630   1.226   0.009  0.00  0.00    -0.002 C 
ATOM     16  C   UNL     1      -3.352  -1.154  -0.298  0.00  0.00    -0.002 C 
ATOM     17  C   UNL     1      -4.702   0.990   0.870  0.00  0.00    -0.000 C 
ATOM     18  C   UNL     1      -4.423  -1.390   0.563  0.00  0.00    -0.000 C 
ATOM     19  C   UNL     1      -5.098  -0.319   1.147  0.00  0.00    -0.000 C 
ENDBRANCH  13  14
ENDBRANCH   1  13
BRANCH   4  20
ATOM     20  C   UNL     1       2.107   2.164   1.063  0.00  0.00    +0.137 C 
BRANCH  20  22
ATOM     21  O   UNL     1       3.251   2.416  -1.054  0.00  0.00    -0.250 OA
ATOM     22  C   UNL     1       3.138   2.744   0.121  0.00  0.00    +0.318 C 
BRANCH  22  23
ATOM     23  O   UNL     1       3.960   3.638   0.726  0.00  0.00    -0.480 OA
ATOM     24  H   UNL     1       3.832   3.856   1.628  0.00  0.00    +0.295 HD
ENDBRANCH  22  23
ENDBRANCH  20  22
ENDBRANCH   4  20
TORSDOF 6
