REMARK  Name = 5287870
REMARK  10 active torsions:
REMARK  status: ('A' for Active; 'I' for Inactive)
REMARK    1  A    between atoms: CA_1  and  N_5
REMARK    2  A    between atoms: CA_1  and  C_14
REMARK    3  A    between atoms: CA_1  and  CB_28
REMARK    4  A    between atoms: N_13  and  C_16
REMARK    5  A    between atoms: C_16  and  C_18
REMARK    6  A    between atoms: C_16  and  C_19
REMARK    7  A    between atoms: C_19  and  S_20
REMARK    8  A    between atoms: S_20  and  C_21
REMARK    9  A    between atoms: C_21  and  C_22
REMARK   10  A    between atoms: CB_28  and  CG_29
REMARK                            x       y       z     vdW  Elec       q    Type
REMARK                         _______ _______ _______ _____ _____    ______ ____
ROOT
ATOM      1  CA  PHE A   1      -1.724  -0.543  -0.282  0.00  0.00    +0.154 C 
ENDROOT
BRANCH   1   5
ATOM      2  O   UNK A   0       1.223   5.157  -0.416  0.00  0.00    -0.350 OA
ATOM      3  O   UNK A   0      -0.197   0.872   1.610  0.00  0.00    -0.253 OA
ATOM      4  N   UNK A   0      -0.119   2.768   0.277  0.00  0.00    -0.259 N 
ATOM      5  N   PHE A   1      -1.252   0.816  -0.426  0.00  0.00    -0.282 N 
ATOM      6  C   UNK A   0       0.670   3.510   1.263  0.00  0.00    +0.127 C 
ATOM      7  C   UNK A   0      -0.562   3.571  -0.872  0.00  0.00    +0.127 C 
ATOM      8  C   UNK A   0       1.776   4.305   0.589  0.00  0.00    +0.164 C 
ATOM      9  C   UNK A   0       0.594   4.387  -1.441  0.00  0.00    +0.164 C 
ATOM     10  C   UNK A   0      -0.499   1.445   0.558  0.00  0.00    +0.304 C 
ATOM     11  H   PHE A   1      -1.469   1.311  -1.249  0.00  0.00    +0.151 HD
ENDBRANCH   1   5
BRANCH   1  14
ATOM     12  O   PHE A   1       0.124  -1.171  -1.719  0.00  0.00    -0.273 OA
ATOM     13  N   UNK A   2      -0.519  -2.620  -0.022  0.00  0.00    -0.297 N 
ATOM     14  C   PHE A   1      -0.615  -1.462  -0.781  0.00  0.00    +0.241 C 
ATOM     15  H   UNK A   2      -1.165  -2.755   0.708  0.00  0.00    +0.150 HD
BRANCH  13  16
ATOM     16  C   UNK A   2       0.481  -3.638  -0.251  0.00  0.00    +0.148 C 
BRANCH  16  18
ATOM     17  O   UNK A   2       0.230  -6.016  -0.618  0.00  0.00    -0.286 OA
ATOM     18  C   UNK A   2      -0.239  -4.885  -0.722  0.00  0.00    +0.228 C 
ENDBRANCH  16  18
BRANCH  16  19
ATOM     19  C   UNK A   2       1.393  -3.870   0.951  0.00  0.00    +0.085 C 
BRANCH  19  20
ATOM     20  S   UNK A   2       2.277  -2.377   1.510  0.00  0.00    -0.133 S 
BRANCH  20  21
ATOM     21  C   UNK A   2       3.559  -2.348   0.238  0.00  0.00    +0.084 C 
BRANCH  21  22
ATOM     22  C   UNK A   2       4.191  -0.990   0.100  0.00  0.00    -0.011 C 
ATOM     23  C   UNK A   2       5.311  -0.660   0.864  0.00  0.00    -0.003 C 
ATOM     24  C   UNK A   2       3.656  -0.060  -0.791  0.00  0.00    -0.003 C 
ATOM     25  C   UNK A   2       5.896   0.599   0.736  0.00  0.00    -0.000 C 
ATOM     26  C   UNK A   2       4.242   1.200  -0.919  0.00  0.00    -0.000 C 
ATOM     27  C   UNK A   2       5.362   1.529  -0.156  0.00  0.00    -0.000 C 
ENDBRANCH  21  22
ENDBRANCH  20  21
ENDBRANCH  19  20
ENDBRANCH  16  19
ENDBRANCH  13  16
ENDBRANCH   1  14
BRANCH   1  28
ATOM     28  CB  PHE A   1      -3.017  -0.793  -1.068  0.00  0.00    +0.055 C 
BRANCH  28  29
ATOM     29  CG  PHE A   1      -4.242  -0.270  -0.358  0.00  0.00    -0.020 C 
ATOM     30  CD1 PHE A   1      -4.676   1.036  -0.585  0.00  0.00    -0.004 C 
ATOM     31  CD2 PHE A   1      -4.940  -1.093   0.526  0.00  0.00    -0.004 C 
ATOM     32  CE1 PHE A   1      -5.808   1.518   0.071  0.00  0.00    -0.000 C 
ATOM     33  CE2 PHE A   1      -6.072  -0.611   1.182  0.00  0.00    -0.000 C 
ATOM     34  CZ  PHE A   1      -6.506   0.695   0.955  0.00  0.00    -0.000 C 
ENDBRANCH  28  29
ENDBRANCH   1  28
TORSDOF 10
