REMARK  Name = 73927
REMARK  4 active torsions:
REMARK  status: ('A' for Active; 'I' for Inactive)
REMARK    1  A    between atoms: C_1  and  C_8
REMARK    2  A    between atoms: C_8  and  C_9
REMARK    3  A    between atoms: C_9  and  C_11
REMARK    4  A    between atoms: C_11  and  O_12
REMARK                            x       y       z     vdW  Elec       q    Type
REMARK                         _______ _______ _______ _____ _____    ______ ____
ROOT
ATOM      1  C   UNL     1      -0.337  -0.046   0.422  0.00  0.00    -0.022 C 
ATOM      2  C   UNL     1      -1.006   1.177   0.361  0.00  0.00    -0.005 C 
ATOM      3  C   UNL     1      -1.029  -1.233   0.181  0.00  0.00    -0.005 C 
ATOM      4  C   UNL     1      -3.059   0.025  -0.183  0.00  0.00    -0.022 C 
ATOM      5  C   UNL     1      -2.367   1.212   0.059  0.00  0.00    -0.005 C 
ATOM      6  C   UNL     1      -2.390  -1.197  -0.121  0.00  0.00    -0.005 C 
ATOM      7  C   UNL     1      -4.514   0.063  -0.505  0.00  0.00    +0.031 C 
ENDROOT
BRANCH   1   8
ATOM      8  C   UNL     1       1.119  -0.084   0.745  0.00  0.00    +0.038 C 
BRANCH   8   9
ATOM      9  C   UNL     1       1.989   0.002  -0.512  0.00  0.00    +0.114 C 
BRANCH   9  11
ATOM     10  O   UNL     1       3.890  -0.098   0.974  0.00  0.00    -0.250 OA
ATOM     11  C   UNL     1       3.455   0.018  -0.164  0.00  0.00    +0.314 C 
BRANCH  11  12
ATOM     12  O   UNL     1       4.248   0.160  -1.256  0.00  0.00    -0.480 OA
ATOM     13  H   UNL     1       3.863   0.244  -2.106  0.00  0.00    +0.295 HD
ENDBRANCH  11  12
ENDBRANCH   9  11
ENDBRANCH   8   9
ENDBRANCH   1   8
TORSDOF 4
