46936829
  -OEChem-10051720253D

 63 65  0     1  0  0  0  0  0999 V2000
    3.0747    0.2736    0.6148 O   0  0  0  0  0  0  0  0  0  0  0  0
    3.8088    3.0658    0.3403 O   0  0  0  0  0  0  0  0  0  0  0  0
   -0.3260    0.6646    1.0736 O   0  0  0  0  0  0  0  0  0  0  0  0
    0.4855   -1.6522   -1.5878 O   0  0  0  0  0  0  0  0  0  0  0  0
    0.4283    1.9849   -0.6830 N   0  0  0  0  0  0  0  0  0  0  0  0
    3.5688    0.2410   -1.5668 N   0  0  0  0  0  0  0  0  0  0  0  0
    3.7486   -1.0361   -1.0689 N   0  0  0  0  0  0  0  0  0  0  0  0
   -1.6004   -0.9790   -0.7763 N   0  0  0  0  0  0  0  0  0  0  0  0
   -3.0973   -2.6158    0.0958 N   0  0  0  0  0  0  0  0  0  0  0  0
   -0.0521   -4.2899   -1.1156 N   0  0  0  0  0  0  0  0  0  0  0  0
    1.4155    2.7461    0.0606 C   0  0  2  0  0  0  0  0  0  0  0  0
    1.0378    4.2518    0.0760 C   0  0  0  0  0  0  0  0  0  0  0  0
    2.8275    2.4415   -0.4964 C   0  0  2  0  0  0  0  0  0  0  0  0
    1.1085    4.8573   -1.3316 C   0  0  0  0  0  0  0  0  0  0  0  0
   -0.3388    4.5303    0.6874 C   0  0  0  0  0  0  0  0  0  0  0  0
    3.4596   -2.0267    1.2266 C   0  0  0  0  0  0  0  0  0  0  0  0
    3.1754    0.9712   -0.5495 C   0  0  0  0  0  0  0  0  0  0  0  0
    3.4490   -0.9699    0.2073 C   0  0  0  0  0  0  0  0  0  0  0  0
   -0.3605    1.0047   -0.1063 C   0  0  0  0  0  0  0  0  0  0  0  0
    4.4172   -1.7968    2.4557 C   0  0  0  0  0  0  0  0  0  0  0  0
    2.0434   -2.2426    1.8660 C   0  0  0  0  0  0  0  0  0  0  0  0
    3.9029   -3.4105    0.6354 C   0  0  0  0  0  0  0  0  0  0  0  0
   -1.3341    0.4224   -1.1086 C   0  0  0  0  0  0  0  0  0  0  0  0
   -2.7971   -1.3810   -0.1666 C   0  0  0  0  0  0  0  0  0  0  0  0
   -0.6112   -1.9169   -1.0970 C   0  0  0  0  0  0  0  0  0  0  0  0
   -3.7838   -0.3500    0.2065 C   0  0  0  0  0  0  0  0  0  0  0  0
   -0.9706   -3.3354   -0.7962 C   0  0  0  0  0  0  0  0  0  0  0  0
   -2.1676   -3.5582   -0.2388 C   0  0  0  0  0  0  0  0  0  0  0  0
   -3.7310    0.2421    1.4683 C   0  0  0  0  0  0  0  0  0  0  0  0
   -4.7685    0.0338   -0.7035 C   0  0  0  0  0  0  0  0  0  0  0  0
   -4.6634    1.2182    1.8202 C   0  0  0  0  0  0  0  0  0  0  0  0
   -5.7009    1.0098   -0.3518 C   0  0  0  0  0  0  0  0  0  0  0  0
   -5.6484    1.6020    0.9102 C   0  0  0  0  0  0  0  0  0  0  0  0
    1.3884    2.4122    1.1068 H   0  0  0  0  0  0  0  0  0  0  0  0
    1.7761    4.7763    0.6967 H   0  0  0  0  0  0  0  0  0  0  0  0
    2.9503    2.8375   -1.5091 H   0  0  0  0  0  0  0  0  0  0  0  0
    0.3272    2.1824   -1.6740 H   0  0  0  0  0  0  0  0  0  0  0  0
   -0.4099    4.0980    1.6909 H   0  0  0  0  0  0  0  0  0  0  0  0
   -0.5118    5.6082    0.7753 H   0  0  0  0  0  0  0  0  0  0  0  0
   -1.1461    4.1115    0.0776 H   0  0  0  0  0  0  0  0  0  0  0  0
    2.1210    4.8192   -1.7424 H   0  0  0  0  0  0  0  0  0  0  0  0
    0.8256    5.9160   -1.3008 H   0  0  0  0  0  0  0  0  0  0  0  0
    0.4290    4.3613   -2.0312 H   0  0  0  0  0  0  0  0  0  0  0  0
    4.1450   -0.8785    2.9885 H   0  0  0  0  0  0  0  0  0  0  0  0
    5.4526   -1.6823    2.1151 H   0  0  0  0  0  0  0  0  0  0  0  0
    4.3783   -2.6296    3.1663 H   0  0  0  0  0  0  0  0  0  0  0  0
    1.3079   -2.4925    1.0959 H   0  0  0  0  0  0  0  0  0  0  0  0
    1.6975   -1.3331    2.3705 H   0  0  0  0  0  0  0  0  0  0  0  0
    2.0509   -3.0562    2.5999 H   0  0  0  0  0  0  0  0  0  0  0  0
    4.9199   -3.3532    0.2302 H   0  0  0  0  0  0  0  0  0  0  0  0
    3.2366   -3.7145   -0.1805 H   0  0  0  0  0  0  0  0  0  0  0  0
    3.8833   -4.1998    1.3952 H   0  0  0  0  0  0  0  0  0  0  0  0
    3.6740    2.7484    1.2499 H   0  0  0  0  0  0  0  0  0  0  0  0
   -2.2308    1.0437   -1.1233 H   0  0  0  0  0  0  0  0  0  0  0  0
   -0.8949    0.4490   -2.1130 H   0  0  0  0  0  0  0  0  0  0  0  0
   -2.4647   -4.5774   -0.0074 H   0  0  0  0  0  0  0  0  0  0  0  0
   -2.9690   -0.0506    2.1858 H   0  0  0  0  0  0  0  0  0  0  0  0
   -4.8180   -0.4206   -1.6897 H   0  0  0  0  0  0  0  0  0  0  0  0
    0.8321   -4.0213   -1.5288 H   0  0  0  0  0  0  0  0  0  0  0  0
   -0.2501   -5.2650   -0.9290 H   0  0  0  0  0  0  0  0  0  0  0  0
   -4.6224    1.6792    2.8027 H   0  0  0  0  0  0  0  0  0  0  0  0
   -6.4676    1.3090   -1.0604 H   0  0  0  0  0  0  0  0  0  0  0  0
   -6.3742    2.3621    1.1840 H   0  0  0  0  0  0  0  0  0  0  0  0
  1 17  1  0  0  0  0
  1 18  1  0  0  0  0
  2 13  1  0  0  0  0
  2 53  1  0  0  0  0
  3 19  2  0  0  0  0
  4 25  2  0  0  0  0
  5 11  1  0  0  0  0
  5 19  1  0  0  0  0
  5 37  1  0  0  0  0
  6  7  1  0  0  0  0
  6 17  2  0  0  0  0
  7 18  2  0  0  0  0
  8 23  1  0  0  0  0
  8 24  1  0  0  0  0
  8 25  1  0  0  0  0
  9 24  2  0  0  0  0
  9 28  1  0  0  0  0
 10 27  1  0  0  0  0
 10 59  1  0  0  0  0
 10 60  1  0  0  0  0
 11 12  1  0  0  0  0
 11 13  1  0  0  0  0
 11 34  1  0  0  0  0
 12 14  1  0  0  0  0
 12 15  1  0  0  0  0
 12 35  1  0  0  0  0
 13 17  1  0  0  0  0
 13 36  1  0  0  0  0
 14 41  1  0  0  0  0
 14 42  1  0  0  0  0
 14 43  1  0  0  0  0
 15 38  1  0  0  0  0
 15 39  1  0  0  0  0
 15 40  1  0  0  0  0
 16 18  1  0  0  0  0
 16 20  1  0  0  0  0
 16 21  1  0  0  0  0
 16 22  1  0  0  0  0
 19 23  1  0  0  0  0
 20 44  1  0  0  0  0
 20 45  1  0  0  0  0
 20 46  1  0  0  0  0
 21 47  1  0  0  0  0
 21 48  1  0  0  0  0
 21 49  1  0  0  0  0
 22 50  1  0  0  0  0
 22 51  1  0  0  0  0
 22 52  1  0  0  0  0
 23 54  1  0  0  0  0
 23 55  1  0  0  0  0
 24 26  1  0  0  0  0
 25 27  1  0  0  0  0
 26 29  2  0  0  0  0
 26 30  1  0  0  0  0
 27 28  2  0  0  0  0
 28 56  1  0  0  0  0
 29 31  1  0  0  0  0
 29 57  1  0  0  0  0
 30 32  2  0  0  0  0
 30 58  1  0  0  0  0
 31 33  2  0  0  0  0
 31 61  1  0  0  0  0
 32 33  1  0  0  0  0
 32 62  1  0  0  0  0
 33 63  1  0  0  0  0
M  END
> <DATABASE_ID>
DB03925

> <DATABASE_NAME>
drugbank

> <ORIGINAL_SOURCE>
PUBCHEM

> <ORIGINAL_SOURCE_URL>
https://pubchem.ncbi.nlm.nih.gov/rest/pug/compound/inchikey/HMPQTEPEMQZWQH-QZTJIDSGSA-N/SDF?record_type=3d

> <SMILES>
CC(C)[C@@H](NC(=O)CN1C(=O)C(N)=CN=C1C1=CC=CC=C1)[C@@H](O)C1=NN=C(O1)C(C)(C)C

> <INCHI_IDENTIFIER>
InChI=1S/C23H30N6O4/c1-13(2)17(18(31)20-27-28-22(33-20)23(3,4)5)26-16(30)12-29-19(14-9-7-6-8-10-14)25-11-15(24)21(29)32/h6-11,13,17-18,31H,12,24H2,1-5H3,(H,26,30)/t17-,18-/m1/s1

> <INCHI_KEY>
HMPQTEPEMQZWQH-QZTJIDSGSA-N

> <FORMULA>
C23H30N6O4

> <MOLECULAR_WEIGHT>
454.5221

> <EXACT_MASS>
454.232853478

> <JCHEM_ACCEPTOR_COUNT>
7

> <JCHEM_AVERAGE_POLARIZABILITY>
46.748125236458584

> <JCHEM_BIOAVAILABILITY>
1

> <JCHEM_DONOR_COUNT>
3

> <JCHEM_FORMAL_CHARGE>
0

> <JCHEM_GHOSE_FILTER>
1

> <JCHEM_IUPAC>
2-(5-amino-6-oxo-2-phenyl-1,6-dihydropyrimidin-1-yl)-N-[(1R,2R)-1-(5-tert-butyl-1,3,4-oxadiazol-2-yl)-1-hydroxy-3-methylbutan-2-yl]acetamide

> <ALOGPS_LOGP>
1.85

> <JCHEM_LOGP>
1.1070830256666655

> <ALOGPS_LOGS>
-3.60

> <JCHEM_MDDR_LIKE_RULE>
1

> <JCHEM_NUMBER_OF_RINGS>
3

> <JCHEM_PHYSIOLOGICAL_CHARGE>
0

> <JCHEM_PKA>
14.82899969355531

> <JCHEM_PKA_STRONGEST_ACIDIC>
12.104911541886551

> <JCHEM_PKA_STRONGEST_BASIC>
0.30413388997737656

> <JCHEM_POLAR_SURFACE_AREA>
146.94

> <JCHEM_REFRACTIVITY>
123.80560000000001

> <JCHEM_ROTATABLE_BOND_COUNT>
8

> <JCHEM_RULE_OF_FIVE>
1

> <ALOGPS_SOLUBILITY>
1.13e-01 g/l

> <JCHEM_TRADITIONAL_IUPAC>
2-(5-amino-6-oxo-2-phenylpyrimidin-1-yl)-N-[(1R,2R)-1-(5-tert-butyl-1,3,4-oxadiazol-2-yl)-1-hydroxy-3-methylbutan-2-yl]acetamide

> <JCHEM_VEBER_RULE>
0

> <DRUGBANK_ID>
DB03925

> <SECONDARY_ACCESSION_NUMBERS>
EXPT00279

> <DRUG_GROUPS>
experimental; investigational

> <GENERIC_NAME>
Freselestat

$$$$
