REMARK  Name = 444453
REMARK  1 active torsions:
REMARK  status: ('A' for Active; 'I' for Inactive)
REMARK    1  A    between atoms: N_5  and  C_7
REMARK                            x       y       z     vdW  Elec       q    Type
REMARK                         _______ _______ _______ _____ _____    ______ ____
ROOT
ATOM      1  N   UNL     1       1.661  -0.289   0.000  0.00  0.00    -0.274 N 
ATOM      2  N   UNL     1      -1.587   1.345   0.000  0.00  0.00    -0.312 N 
ATOM      3  N   UNL     1      -0.170  -1.843   0.000  0.00  0.00    -0.233 NA
ATOM      4  N   UNL     1      -2.342  -0.752   0.000  0.00  0.00    -0.301 N 
ATOM      5  C   UNL     1      -0.474   0.552   0.000  0.00  0.00    +0.105 C 
ATOM      6  C   UNL     1       0.883   0.797   0.000  0.00  0.00    +0.111 C 
ATOM      7  C   UNL     1      -0.971  -0.747  -0.001  0.00  0.00    +0.142 C 
ATOM      8  C   UNL     1       1.141  -1.522   0.000  0.00  0.00    +0.222 C 
ATOM      9  C   UNL     1       3.117  -0.152   0.000  0.00  0.00    +0.115 C 
ATOM     10  C   UNL     1      -2.680   0.520   0.001  0.00  0.00    +0.183 C 
ATOM     11  H   UNL     1      -1.601   2.330  -0.001  0.00  0.00    +0.149 HD
ATOM     12  H   UNL     1      -2.941  -1.533   0.001  0.00  0.00    +0.150 HD
ENDROOT
BRANCH   6  13
ATOM     13  N   UNL     1       1.424   2.091   0.000  0.00  0.00    -0.345 N 
ATOM     14  H   UNL     1       2.400   2.217   0.000  0.00  0.00    +0.144 HD
ATOM     15  H   UNL     1       0.827   2.874   0.000  0.00  0.00    +0.144 HD
ENDBRANCH   6  13
TORSDOF 1
