REMARK  Name = 114829
REMARK  3 active torsions:
REMARK  status: ('A' for Active; 'I' for Inactive)
REMARK    1  A    between atoms: C_3  and  C_12
REMARK    2  A    between atoms: C_10  and  O_20
REMARK    3  A    between atoms: C_17  and  O_18
REMARK                            x       y       z     vdW  Elec       q    Type
REMARK                         _______ _______ _______ _____ _____    ______ ____
ROOT
ATOM      1  O   UNL     1       0.296  -0.677  -0.152  0.00  0.00    -0.474 OA
ATOM      2  O   UNL     1       1.818   3.130  -0.026  0.00  0.00    -0.291 OA
ATOM      3  C   UNL     1      -0.473   0.403   0.402  0.00  0.00    +0.196 C 
ATOM      4  C   UNL     1      -0.114   1.729  -0.265  0.00  0.00    +0.117 C 
ATOM      5  C   UNL     1       1.356   1.997  -0.070  0.00  0.00    +0.180 C 
ATOM      6  C   UNL     1       2.227   0.805  -0.005  0.00  0.00    +0.069 C 
ATOM      7  C   UNL     1       1.648  -0.466  -0.072  0.00  0.00    +0.145 C 
ATOM      8  C   UNL     1       3.614   0.945   0.078  0.00  0.00    +0.009 C 
ATOM      9  C   UNL     1       2.462  -1.599  -0.091  0.00  0.00    +0.074 C 
ATOM     10  C   UNL     1       3.849  -1.461  -0.010  0.00  0.00    +0.137 C 
ATOM     11  C   UNL     1       4.422  -0.192   0.079  0.00  0.00    +0.037 C 
ENDROOT
BRANCH   3  12
ATOM     12  C   UNL     1      -1.942   0.083   0.227  0.00  0.00    +0.018 C 
ATOM     13  C   UNL     1      -2.755  -0.091   1.347  0.00  0.00    +0.002 C 
ATOM     14  C   UNL     1      -2.482  -0.036  -1.053  0.00  0.00    +0.002 C 
ATOM     15  C   UNL     1      -4.109  -0.384   1.186  0.00  0.00    +0.036 C 
ATOM     16  C   UNL     1      -3.837  -0.329  -1.214  0.00  0.00    +0.036 C 
ATOM     17  C   UNL     1      -4.650  -0.503  -0.094  0.00  0.00    +0.134 C 
BRANCH  17  18
ATOM     18  O   UNL     1      -5.971  -0.790  -0.251  0.00  0.00    -0.506 OA
ATOM     19  H   UNL     1      -6.518  -0.907   0.501  0.00  0.00    +0.292 HD
ENDBRANCH  17  18
ENDBRANCH   3  12
BRANCH  10  20
ATOM     20  O   UNL     1       4.643  -2.567  -0.016  0.00  0.00    -0.505 OA
ATOM     21  H   UNL     1       4.258  -3.419  -0.076  0.00  0.00    +0.292 HD
ENDBRANCH  10  20
TORSDOF 3
