23657869
  -OEChem-10051720213D

 14 13  0     0  0  0  0  0  0999 V2000
    1.4388    1.4477    0.0043 O   0  5  0  0  0  0  0  0  0  0  0  0
    2.0804   -0.7415   -0.0063 O   0  0  0  0  0  0  0  0  0  0  0  0
   -0.5482   -1.6405    0.0059 N   0  3  0  0  0  0  0  0  0  0  0  0
   -0.2426   -0.2549   -0.0017 C   0  0  0  0  0  0  0  0  0  0  0  0
   -1.2461    0.6371   -0.0019 C   0  0  0  0  0  0  0  0  0  0  0  0
   -2.7162    0.3516   -0.0020 C   0  0  0  0  0  0  0  0  0  0  0  0
    1.2340    0.2004    0.0017 C   0  0  0  0  0  0  0  0  0  0  0  0
   -1.0902   -1.9104    0.8380 H   0  0  0  0  0  0  0  0  0  0  0  0
    0.3037   -2.2177    0.0084 H   0  0  0  0  0  0  0  0  0  0  0  0
   -1.0911   -1.9192   -0.8228 H   0  0  0  0  0  0  0  0  0  0  0  0
   -1.0124    1.6999   -0.0037 H   0  0  0  0  0  0  0  0  0  0  0  0
   -3.1774    0.7993   -0.8879 H   0  0  0  0  0  0  0  0  0  0  0  0
   -3.1773    0.7983    0.8845 H   0  0  0  0  0  0  0  0  0  0  0  0
   -2.9547   -0.7151   -0.0027 H   0  0  0  0  0  0  0  0  0  0  0  0
  1  7  1  0  0  0  0
  2  7  2  0  0  0  0
  3  4  1  0  0  0  0
  3  8  1  0  0  0  0
  3  9  1  0  0  0  0
  3 10  1  0  0  0  0
  4  5  2  0  0  0  0
  4  7  1  0  0  0  0
  5  6  1  0  0  0  0
  5 11  1  0  0  0  0
  6 12  1  0  0  0  0
  6 13  1  0  0  0  0
  6 14  1  0  0  0  0
M  CHG  2   1  -1   3   1
M  END
> <DATABASE_ID>
DB03720

> <DATABASE_NAME>
drugbank

> <ORIGINAL_SOURCE>
PUBCHEM

> <ORIGINAL_SOURCE_URL>
https://pubchem.ncbi.nlm.nih.gov/rest/pug/compound/inchikey/PAWSVPVNIXFKOS-IHWYPQMZSA-N/SDF?record_type=3d

> <SMILES>
C\C=C(/N)C(O)=O

> <INCHI_IDENTIFIER>
InChI=1S/C4H7NO2/c1-2-3(5)4(6)7/h2H,5H2,1H3,(H,6,7)/b3-2-

> <INCHI_KEY>
PAWSVPVNIXFKOS-IHWYPQMZSA-N

> <FORMULA>
C4H7NO2

> <MOLECULAR_WEIGHT>
101.1039

> <EXACT_MASS>
101.047678473

> <JCHEM_ACCEPTOR_COUNT>
3

> <JCHEM_AVERAGE_POLARIZABILITY>
9.75263285287134

> <JCHEM_BIOAVAILABILITY>
1

> <JCHEM_DONOR_COUNT>
2

> <JCHEM_FORMAL_CHARGE>
0

> <JCHEM_GHOSE_FILTER>
0

> <JCHEM_IUPAC>
(2Z)-2-aminobut-2-enoic acid

> <ALOGPS_LOGP>
0.26

> <JCHEM_LOGP>
-2.491002868386687

> <ALOGPS_LOGS>
0.27

> <JCHEM_MDDR_LIKE_RULE>
0

> <JCHEM_NUMBER_OF_RINGS>
0

> <JCHEM_PHYSIOLOGICAL_CHARGE>
0

> <JCHEM_PKA_STRONGEST_ACIDIC>
2.883455736867233

> <JCHEM_PKA_STRONGEST_BASIC>
8.46256977320568

> <JCHEM_POLAR_SURFACE_AREA>
63.32

> <JCHEM_REFRACTIVITY>
26.5898

> <JCHEM_ROTATABLE_BOND_COUNT>
1

> <JCHEM_RULE_OF_FIVE>
1

> <ALOGPS_SOLUBILITY>
1.88e+02 g/l

> <JCHEM_TRADITIONAL_IUPAC>
Z-dehydrobutyrine

> <JCHEM_VEBER_RULE>
0

> <DRUGBANK_ID>
DB03720

> <SECONDARY_ACCESSION_NUMBERS>
EXPT01127

> <DRUG_GROUPS>
experimental

> <GENERIC_NAME>
Z-Dehydrobutyrine

$$$$
