REMARK  Name = 86289080
REMARK  9 active torsions:
REMARK  status: ('A' for Active; 'I' for Inactive)
REMARK    1  A    between atoms: C_3  and  C_8
REMARK    2  A    between atoms: C_4  and  C_20
REMARK    3  A    between atoms: C_8  and  C_9
REMARK    4  A    between atoms: C_9  and  C_10
REMARK    5  A    between atoms: C_10  and  C_13
REMARK    6  A    between atoms: C_10  and  N_16
REMARK    7  A    between atoms: C_20  and  CA_21
REMARK    8  A    between atoms: CA_21  and  N_22
REMARK    9  A    between atoms: CA_21  and  C_28
REMARK                            x       y       z     vdW  Elec       q    Type
REMARK                         _______ _______ _______ _____ _____    ______ ____
ROOT
ATOM      1  N   UNL     1       1.320  -1.096   1.012  0.00  0.00    -0.321 N 
ATOM      2  N   UNL     1       0.197  -2.345  -0.441  0.00  0.00    -0.317 N 
ATOM      3  C   UNL     1       0.126  -1.682   0.692  0.00  0.00    +0.143 C 
ATOM      4  C   UNL     1       2.207  -1.406   0.020  0.00  0.00    +0.036 C 
ATOM      5  C   UNL     1       1.491  -2.177  -0.865  0.00  0.00    +0.069 C 
ATOM      6  H   UNL     1       1.506  -0.552   1.811  0.00  0.00    +0.148 HD
ATOM      7  H   UNL     1      -0.521  -2.851  -0.887  0.00  0.00    +0.148 HD
ENDROOT
BRANCH   3   8
ATOM      8  C   UNL     1      -1.083  -1.539   1.583  0.00  0.00    +0.039 C 
BRANCH   8   9
ATOM      9  C   UNL     1      -1.743  -0.164   1.417  0.00  0.00    -0.008 C 
BRANCH   9  10
ATOM     10  C   UNL     1      -2.182   0.166  -0.015  0.00  0.00    +0.024 C 
BRANCH  10  13
ATOM     11  O   UNL     1      -4.329  -0.954   0.000  0.00  0.00    -0.278 OA
ATOM     12  N   UNL     1      -2.851  -1.444  -1.689  0.00  0.00    -0.330 N 
ATOM     13  C   UNL     1      -3.240  -0.786  -0.542  0.00  0.00    +0.200 C 
ATOM     14  H   UNL     1      -3.461  -2.087  -2.118  0.00  0.00    +0.145 HD
ATOM     15  H   UNL     1      -1.964  -1.271  -2.079  0.00  0.00    +0.145 HD
ENDBRANCH  10  13
BRANCH  10  16
ATOM     16  N   UNL     1      -2.663   1.574  -0.080  0.00  0.00    +0.393 N 
ATOM     17  C   UNL     1      -3.591   1.882   1.101  0.00  0.00    -0.095 C 
ATOM     18  C   UNL     1      -1.483   2.551  -0.033  0.00  0.00    -0.095 C 
ATOM     19  C   UNL     1      -3.439   1.819  -1.379  0.00  0.00    -0.095 C 
ENDBRANCH  10  16
ENDBRANCH   9  10
ENDBRANCH   8   9
ENDBRANCH   3   8
BRANCH   4  20
ATOM     20  C   UNL     1       3.602  -0.942   0.030  0.00  0.00    +0.031 C 
BRANCH  20  21
ATOM     21  CA  UNL     1       3.817   0.422  -0.672  0.00  0.00    +0.046 C 
BRANCH  21  22
ATOM     22  N   UNL     1       5.287   0.706  -0.712  0.00  0.00    +0.389 N 
ATOM     23  H1  UNL     1       5.769  -0.060  -1.182  0.00  0.00    -0.088 HD
ATOM     24  H2  UNL     1       5.641   0.798   0.240  0.00  0.00    -0.088 HD
ATOM     25  H3  UNL     1       5.452   1.574  -1.221  0.00  0.00    -0.088 HD
ENDBRANCH  21  22
BRANCH  21  28
ATOM     26  O   UNL     1       3.320   1.710   1.244  0.00  0.00    -0.248 OA
ATOM     27  OXT UNL     1       2.204   2.164  -0.699  0.00  0.00    -0.248 OA
ATOM     28  C   UNL     1       3.032   1.542   0.025  0.00  0.00    +0.345 C 
ENDBRANCH  21  28
ENDBRANCH  20  21
ENDBRANCH   4  20
TORSDOF 9
