REMARK  Name = 29435
REMARK  5 active torsions:
REMARK  status: ('A' for Active; 'I' for Inactive)
REMARK    1  A    between atoms: C_2  and  O_9
REMARK    2  A    between atoms: CA_3  and  C_15
REMARK    3  A    between atoms: C_4  and  O_11
REMARK    4  A    between atoms: C_5  and  O_13
REMARK    5  A    between atoms: C_15  and  O_16
REMARK                            x       y       z     vdW  Elec       q    Type
REMARK                         _______ _______ _______ _____ _____    ______ ____
ROOT
ATOM      1  N   UNL     1      -0.268   1.753   0.280  0.00  0.00    +0.390 N 
ATOM      2  C   UNL     1      -0.437  -0.724   0.243  0.00  0.00    +0.123 C 
ATOM      3  CA  UNL     1      -1.058   0.613  -0.203  0.00  0.00    -0.002 C 
ATOM      4  C   UNL     1       1.032  -0.825  -0.176  0.00  0.00    +0.160 C 
ATOM      5  C   UNL     1       1.815   0.420   0.240  0.00  0.00    +0.118 C 
ATOM      6  C   UNL     1       1.105   1.693  -0.214  0.00  0.00    -0.049 C 
ATOM      7  H1  UNL     1      -0.256   1.741   1.299  0.00  0.00    -0.084 HD
ATOM      8  H2  UNL     1      -0.697   2.612  -0.065  0.00  0.00    -0.084 HD
ENDROOT
BRANCH   2   9
ATOM      9  O   UNL     1      -1.132  -1.812  -0.367  0.00  0.00    -0.384 OA
ATOM     10  H   UNL     1      -2.070  -1.776  -0.120  0.00  0.00    +0.210 HD
ENDBRANCH   2   9
BRANCH   4  11
ATOM     11  O   UNL     1       1.603  -1.970   0.461  0.00  0.00    -0.380 OA
ATOM     12  H   UNL     1       1.111  -2.764   0.201  0.00  0.00    +0.211 HD
ENDBRANCH   4  11
BRANCH   5  13
ATOM     13  O   UNL     1       3.106   0.363  -0.363  0.00  0.00    -0.384 OA
ATOM     14  H   UNL     1       3.561  -0.445  -0.077  0.00  0.00    +0.210 HD
ENDBRANCH   5  13
BRANCH   3  15
ATOM     15  C   UNL     1      -2.491   0.773   0.311  0.00  0.00    +0.118 C 
BRANCH  15  16
ATOM     16  O   UNL     1      -3.273  -0.283  -0.212  0.00  0.00    -0.384 OA
ATOM     17  H   UNL     1      -4.186  -0.197   0.104  0.00  0.00    +0.210 HD
ENDBRANCH  15  16
ENDBRANCH   3  15
TORSDOF 5
