REMARK  Name = 446578
REMARK  4 active torsions:
REMARK  status: ('A' for Active; 'I' for Inactive)
REMARK    1  A    between atoms: C_2  and  O_8
REMARK    2  A    between atoms: C_3  and  O_10
REMARK    3  A    between atoms: C_4  and  O_12
REMARK    4  A    between atoms: C_6  and  O_14
REMARK                            x       y       z     vdW  Elec       q    Type
REMARK                         _______ _______ _______ _____ _____    ______ ____
ROOT
ATOM      1  O   UNL     1       0.686   1.037  -0.767  0.00  0.00    -0.329 OA
ATOM      2  C   UNL     1      -0.982  -0.878   0.584  0.00  0.00    +0.171 C 
ATOM      3  C   UNL     1      -1.375   0.599   0.469  0.00  0.00    +0.167 C 
ATOM      4  C   UNL     1      -0.041  -1.277  -0.551  0.00  0.00    +0.196 C 
ATOM      5  C   UNL     1      -0.123   1.477   0.334  0.00  0.00    +0.147 C 
ATOM      6  C   UNL     1       1.145  -0.311  -0.638  0.00  0.00    +0.266 C 
ATOM      7  C   UNL     1      -0.465   2.943   0.089  0.00  0.00    +0.035 C 
ENDROOT
BRANCH   2   8
ATOM      8  O   UNL     1      -2.147  -1.698   0.543  0.00  0.00    -0.379 OA
ATOM      9  H   UNL     1      -2.746  -1.446   1.263  0.00  0.00    +0.211 HD
ENDBRANCH   2   8
BRANCH   3  10
ATOM     10  O   UNL     1      -2.225   0.785  -0.666  0.00  0.00    -0.379 OA
ATOM     11  H   UNL     1      -3.013   0.227  -0.574  0.00  0.00    +0.211 HD
ENDBRANCH   3  10
BRANCH   4  12
ATOM     12  O   UNL     1       0.424  -2.606  -0.334  0.00  0.00    -0.378 OA
ATOM     13  H   UNL     1      -0.334  -3.209  -0.281  0.00  0.00    +0.211 HD
ENDBRANCH   4  12
BRANCH   6  14
ATOM     14  O   UNL     1       1.996  -0.477   0.495  0.00  0.00    -0.326 OA
ATOM     15  C   UNL     1       3.106   0.407   0.442  0.00  0.00    +0.177 C 
ENDBRANCH   6  14
TORSDOF 4
