REMARK  Name = 97538
REMARK  16 active torsions:
REMARK  status: ('A' for Active; 'I' for Inactive)
REMARK    1  A    between atoms: CA_1  and  N_3
REMARK    2  A    between atoms: CA_1  and  C_19
REMARK    3  A    between atoms: CA_1  and  CB_26
REMARK    4  A    between atoms: C_4  and  C_6
REMARK    5  A    between atoms: C_6  and  C_7
REMARK    6  A    between atoms: C_7  and  CA_8
REMARK    7  A    between atoms: CA_8  and  N_9
REMARK    8  A    between atoms: CA_8  and  C_14
REMARK    9  A    between atoms: C_14  and  O_15
REMARK   10  A    between atoms: N_18  and  CA_21
REMARK   11  A    between atoms: CA_21  and  C_23
REMARK   12  A    between atoms: C_23  and  O_24
REMARK   13  A    between atoms: CB_26  and  SG_27
REMARK   14  A    between atoms: SG_27  and  C_28
REMARK   15  A    between atoms: C_28  and  C_29
REMARK   16  A    between atoms: C_34  and  N_37
REMARK                            x       y       z     vdW  Elec       q    Type
REMARK                         _______ _______ _______ _____ _____    ______ ____
ROOT
ATOM      1  CA  UNL     1       2.298  -0.857  -0.863  0.00  0.00    +0.159 C 
ENDROOT
BRANCH   1   3
ATOM      2  O   UNL     1       0.229  -2.561  -1.933  0.00  0.00    -0.275 OA
ATOM      3  N   UNL     1       1.548  -1.866  -0.151  0.00  0.00    -0.298 N 
ATOM      4  C   UNL     1       0.567  -2.639  -0.755  0.00  0.00    +0.223 C 
ATOM      5  H   UNL     1       1.741  -2.011   0.803  0.00  0.00    +0.150 HD
BRANCH   4   6
ATOM      6  C   UNL     1      -0.063  -3.610   0.230  0.00  0.00    +0.083 C 
BRANCH   6   7
ATOM      7  C   UNL     1      -0.725  -2.896   1.410  0.00  0.00    -0.001 C 
BRANCH   7   8
ATOM      8  CA  UNL     1      -1.794  -1.889   0.973  0.00  0.00    +0.036 C 
BRANCH   8   9
ATOM      9  N   UNL     1      -2.378  -1.251   2.155  0.00  0.00    +0.389 N 
ATOM     10  H1  UNL     1      -1.646  -0.774   2.681  0.00  0.00    -0.088 HD
ATOM     11  H2  UNL     1      -2.812  -1.961   2.745  0.00  0.00    -0.088 HD
ATOM     12  H3  UNL     1      -3.083  -0.574   1.863  0.00  0.00    -0.088 HD
ENDBRANCH   8   9
BRANCH   8  14
ATOM     13  OXT UNL     1      -3.606  -3.495   0.692  0.00  0.00    -0.253 OA
ATOM     14  C   UNL     1      -2.933  -2.576   0.242  0.00  0.00    +0.293 C 
BRANCH  14  15
ATOM     15  O   UNL     1      -3.121  -2.073  -1.006  0.00  0.00    -0.482 OA
ATOM     16  H   UNL     1      -2.584  -1.369  -1.313  0.00  0.00    +0.295 HD
ENDBRANCH  14  15
ENDBRANCH   8  14
ENDBRANCH   7   8
ENDBRANCH   6   7
ENDBRANCH   4   6
ENDBRANCH   1   3
BRANCH   1  19
ATOM     17  O   UNL     1       4.083  -1.480   0.658  0.00  0.00    -0.273 OA
ATOM     18  N   UNL     1       4.537   0.050  -1.026  0.00  0.00    -0.294 N 
ATOM     19  C   ACE A   1       3.723  -0.822  -0.316  0.00  0.00    +0.242 C 
ATOM     20  H   UNL     1       4.155   0.534  -1.793  0.00  0.00    +0.150 HD
BRANCH  18  21
ATOM     21  CA  UNL     1       5.922   0.276  -0.684  0.00  0.00    +0.200 C 
BRANCH  21  23
ATOM     22  OXT UNL     1       7.205   1.763   0.708  0.00  0.00    -0.248 OA
ATOM     23  C   UNL     1       6.108   1.405   0.297  0.00  0.00    +0.334 C 
BRANCH  23  24
ATOM     24  O   UNL     1       4.947   1.985   0.680  0.00  0.00    -0.479 OA
ATOM     25  H   UNL     1       4.132   1.675   0.337  0.00  0.00    +0.295 HD
ENDBRANCH  23  24
ENDBRANCH  21  23
ENDBRANCH  18  21
ENDBRANCH   1  19
BRANCH   1  26
ATOM     26  CB  UNL     1       1.605   0.508  -0.842  0.00  0.00    +0.087 C 
BRANCH  26  27
ATOM     27  SG  UNL     1       1.431   1.216   0.829  0.00  0.00    -0.133 S 
BRANCH  27  28
ATOM     28  C   UNL     1       0.524   2.712   0.378  0.00  0.00    +0.084 C 
BRANCH  28  29
ATOM     29  C   UNL     1      -0.941   2.445   0.165  0.00  0.00    -0.011 C 
ATOM     30  C   UNL     1      -1.831   2.546   1.234  0.00  0.00    -0.002 C 
ATOM     31  C   UNL     1      -1.409   2.099  -1.103  0.00  0.00    -0.002 C 
ATOM     32  C   UNL     1      -3.190   2.300   1.036  0.00  0.00    +0.024 C 
ATOM     33  C   UNL     1      -2.768   1.853  -1.301  0.00  0.00    +0.024 C 
ATOM     34  C   UNL     1      -3.658   1.954  -0.232  0.00  0.00    +0.143 C 
BRANCH  34  37
ATOM     35  O   UNL     1      -5.825   1.801   0.541  0.00  0.00    -0.126 OA
ATOM     36  O   UNL     1      -5.442   1.395  -1.582  0.00  0.00    -0.126 OA
ATOM     37  N   UNL     1      -5.041   1.705  -0.434  0.00  0.00    +0.058 N 
ENDBRANCH  34  37
ENDBRANCH  28  29
ENDBRANCH  27  28
ENDBRANCH  26  27
ENDBRANCH   1  26
TORSDOF 16
