REMARK  Name = 6950298
REMARK  5 active torsions:
REMARK  status: ('A' for Active; 'I' for Inactive)
REMARK    1  A    between atoms: CA_1  and  N_2
REMARK    2  A    between atoms: CA_1  and  CB_6
REMARK    3  A    between atoms: CA_1  and  C_14
REMARK    4  A    between atoms: CB_6  and  CG_9
REMARK    5  A    between atoms: C_14  and  O_15
REMARK                            x       y       z     vdW  Elec       q    Type
REMARK                         _______ _______ _______ _____ _____    ______ ____
ROOT
ATOM      1  CA  HIS A   1      -1.559   0.338  -0.378  0.00  0.00    -0.030 C 
ENDROOT
BRANCH   1   2
ATOM      2  N   HIS A   1      -1.446   1.811  -0.603  0.00  0.00    +0.384 N 
ATOM      3  H1  HIS A   1      -0.483   2.045  -0.847  0.00  0.00    -0.089 HD
ATOM      4  H2  HIS A   1      -1.709   2.306   0.250  0.00  0.00    -0.089 HD
ATOM      5  H3  HIS A   1      -2.067   2.089  -1.363  0.00  0.00    -0.089 HD
ENDBRANCH   1   2
BRANCH   1   6
ATOM      6  CB  HIS A   1      -0.600  -0.081   0.744  0.00  0.00    +0.023 C 
BRANCH   6   9
ATOM      7  ND1 HIS A   1       1.792   0.598   0.881  0.00  0.00    -0.319 N 
ATOM      8  NE2 HIS A   1       2.778  -0.603  -0.706  0.00  0.00    -0.315 N 
ATOM      9  CG  HIS A   1       0.841  -0.151   0.295  0.00  0.00    +0.035 C 
ATOM     10  CD2 HIS A   1       1.435  -0.881  -0.670  0.00  0.00    +0.069 C 
ATOM     11  CE1 HIS A   1       2.960   0.292   0.240  0.00  0.00    +0.182 C 
ATOM     12  HD1 HIS A   1       1.671   1.236   1.621  0.00  0.00    +0.148 HD
ATOM     13  HE2 HIS A   1       3.456  -0.987  -1.308  0.00  0.00    +0.148 HD
ENDBRANCH   6   9
ENDBRANCH   1   6
BRANCH   1  14
ATOM     14  C   HIS A   1      -3.012   0.035  -0.015  0.00  0.00    +0.116 C 
BRANCH  14  15
ATOM     15  O   HIS A   1      -3.189  -1.358   0.212  0.00  0.00    -0.384 OA
ATOM     16  H   HIS A   1      -4.115  -1.533   0.441  0.00  0.00    +0.210 HD
ENDBRANCH  14  15
ENDBRANCH   1  14
TORSDOF 5
