REMARK  Name = 439190
REMARK  11 active torsions:
REMARK  status: ('A' for Active; 'I' for Inactive)
REMARK    1  A    between atoms: C_1  and  O_2
REMARK    2  A    between atoms: C_1  and  C_4
REMARK    3  A    between atoms: C_1  and  C_12
REMARK    4  A    between atoms: C_4  and  O_5
REMARK    5  A    between atoms: C_4  and  C_8
REMARK    6  A    between atoms: C_8  and  C_9
REMARK    7  A    between atoms: C_9  and  O_10
REMARK    8  A    between atoms: C_12  and  O_13
REMARK    9  A    between atoms: O_13  and  P_14
REMARK   10  A    between atoms: P_14  and  O_16
REMARK   11  A    between atoms: P_14  and  O_18
REMARK                            x       y       z     vdW  Elec       q    Type
REMARK                         _______ _______ _______ _____ _____    ______ ____
ROOT
ATOM      1  C   UNL     1       0.404  -0.222  -0.065  0.00  0.00    +0.175 C 
ENDROOT
BRANCH   1   2
ATOM      2  O   UNL     1       0.495  -0.166  -1.492  0.00  0.00    -0.379 OA
ATOM      3  H   UNL     1       1.371  -0.474  -1.772  0.00  0.00    +0.211 HD
ENDBRANCH   1   2
BRANCH   1   4
ATOM      4  C   UNL     1       1.506   0.639   0.561  0.00  0.00    +0.200 C 
BRANCH   4   5
ATOM      5  O   UNL     1       1.318   1.997   0.189  0.00  0.00    -0.375 OA
ATOM      6  H   UNL     1       0.431   2.286   0.456  0.00  0.00    +0.211 HD
ENDBRANCH   4   5
BRANCH   4   8
ATOM      7  O   UNL     1       3.664   0.957  -0.471  0.00  0.00    -0.291 OA
ATOM      8  C   UNL     1       2.905   0.201   0.136  0.00  0.00    +0.209 C 
BRANCH   8   9
ATOM      9  C   UNL     1       3.326  -1.204   0.522  0.00  0.00    +0.205 C 
BRANCH   9  10
ATOM     10  O   UNL     1       4.634  -1.474   0.060  0.00  0.00    -0.375 OA
ATOM     11  H   UNL     1       4.887  -2.375   0.315  0.00  0.00    +0.211 HD
ENDBRANCH   9  10
ENDBRANCH   8   9
ENDBRANCH   4   8
ENDBRANCH   1   4
BRANCH   1  12
ATOM     12  C   UNL     1      -0.990   0.272   0.320  0.00  0.00    +0.186 C 
BRANCH  12  13
ATOM     13  O   UNL     1      -1.962  -0.586  -0.270  0.00  0.00    -0.271 OA
BRANCH  13  14
ATOM     14  P   UNL     1      -3.524  -0.267  -0.005  0.00  0.00    +0.473 P 
ATOM     15  O   UNL     1      -4.487  -1.215  -0.659  0.00  0.00    -0.227 OA
BRANCH  14  16
ATOM     16  O   UNL     1      -3.680   1.284  -0.436  0.00  0.00    -0.303 OA
ATOM     17  H   UNL     1      -3.020   1.817   0.034  0.00  0.00    +0.222 HD
ENDBRANCH  14  16
BRANCH  14  18
ATOM     18  O   UNL     1      -3.607  -0.215   1.609  0.00  0.00    -0.303 OA
ATOM     19  H   UNL     1      -2.955   0.418   1.946  0.00  0.00    +0.222 HD
ENDBRANCH  14  18
ENDBRANCH  13  14
ENDBRANCH  12  13
ENDBRANCH   1  12
TORSDOF 11
