REMARK  Name = 9543443
REMARK  9 active torsions:
REMARK  status: ('A' for Active; 'I' for Inactive)
REMARK    1  A    between atoms: N_2  and  C_18
REMARK    2  A    between atoms: C_3  and  C_5
REMARK    3  A    between atoms: C_6  and  C_11
REMARK    4  A    between atoms: C_18  and  C_19
REMARK    5  A    between atoms: C_18  and  C_25
REMARK    6  A    between atoms: C_19  and  S_20
REMARK    7  A    between atoms: S_20  and  C_22
REMARK    8  A    between atoms: C_22  and  S_23
REMARK    9  A    between atoms: C_25  and  O_26
REMARK                            x       y       z     vdW  Elec       q    Type
REMARK                         _______ _______ _______ _____ _____    ______ ____
ROOT
ATOM      1  O   UNK A   0      -0.412   1.920   1.816  0.00  0.00    -0.270 OA
ATOM      2  N   UNK A   1      -1.555   1.176  -0.063  0.00  0.00    -0.299 N 
ATOM      3  C   UNK A   0      -0.446   1.306   0.755  0.00  0.00    +0.246 C 
ATOM      4  H   UNK A   1      -1.474   0.659  -0.897  0.00  0.00    +0.150 HD
ENDROOT
BRANCH   3   5
ATOM      5  C   UNK A   0       0.742   0.604   0.195  0.00  0.00    +0.058 C 
ATOM      6  C   UNK A   0       1.899   0.629   0.858  0.00  0.00    +0.011 C 
BRANCH   6  11
ATOM      7  O   UNK A   0       3.761   1.938  -0.817  0.00  0.00    -0.267 OA
ATOM      8  O   UNK A   0       6.507  -1.732  -1.108  0.00  0.00    -0.247 OA
ATOM      9  N   UNK A   0       4.590  -1.862   0.149  0.00  0.00    -0.310 N 
ATOM     10  N   UNK A   0       5.137   0.110  -0.963  0.00  0.00    -0.275 N 
ATOM     11  C   UNK A   0       3.092  -0.028   0.373  0.00  0.00    +0.068 A 
ATOM     12  C   UNK A   0       3.435  -1.303   0.657  0.00  0.00    +0.042 A 
ATOM     13  C   UNK A   0       4.007   0.772  -0.513  0.00  0.00    +0.262 A 
ATOM     14  C   UNK A   0       2.656  -2.258   1.525  0.00  0.00    +0.050 C 
ATOM     15  C   UNK A   0       5.484  -1.202  -0.671  0.00  0.00    +0.327 A 
ATOM     16  H   UNK A   0       4.791  -2.796   0.387  0.00  0.00    +0.170 HD
ATOM     17  H   UNK A   0       5.750   0.616  -1.543  0.00  0.00    +0.173 HD
ENDBRANCH   6  11
ENDBRANCH   3   5
BRANCH   2  18
ATOM     18  C   UNK A   1      -2.828   1.775   0.267  0.00  0.00    +0.114 C 
BRANCH  18  19
ATOM     19  C   UNK A   1      -3.979   0.938  -0.294  0.00  0.00    +0.115 C 
BRANCH  19  20
ATOM     20  S   UNK A   1      -3.919  -0.779   0.322  0.00  0.00    +0.055 S 
ATOM     21  O   UNK A   1      -4.317  -0.735   1.763  0.00  0.00    -0.255 OA
BRANCH  20  22
ATOM     22  C   UNK A   1      -5.354  -1.349  -0.640  0.00  0.00    +0.149 C 
BRANCH  22  23
ATOM     23  S   UNK A   1      -5.707  -3.097  -0.311  0.00  0.00    -0.125 S 
ATOM     24  C   UNK A   1      -7.140  -3.291  -1.396  0.00  0.00    +0.070 C 
ENDBRANCH  22  23
ENDBRANCH  20  22
ENDBRANCH  19  20
ENDBRANCH  18  19
BRANCH  18  25
ATOM     25  C   UNK A   1      -2.876   3.217  -0.243  0.00  0.00    +0.158 C 
BRANCH  25  26
ATOM     26  O   UNK A   1      -2.779   3.251  -1.661  0.00  0.00    -0.380 OA
ATOM     27  H   UNK A   1      -2.811   4.171  -1.966  0.00  0.00    +0.211 HD
ENDBRANCH  25  26
ENDBRANCH  18  25
ENDBRANCH   2  18
TORSDOF 9
