REMARK  Name = 25200582
REMARK  4 active torsions:
REMARK  status: ('A' for Active; 'I' for Inactive)
REMARK    1  A    between atoms: CA_1  and  C_2
REMARK    2  A    between atoms: CA_1  and  N_10
REMARK    3  A    between atoms: CA_1  and  C_16
REMARK    4  A    between atoms: C_7  and  O_8
REMARK                            x       y       z     vdW  Elec       q    Type
REMARK                         _______ _______ _______ _____ _____    ______ ____
ROOT
ATOM      1  CA  UNL     1       1.585  -0.218   0.708  0.00  0.00    +0.064 C 
ENDROOT
BRANCH   1   2
ATOM      2  C   UNL     1       0.128  -0.105   0.412  0.00  0.00    -0.032 C 
ATOM      3  C   UNL     1      -0.570   1.048   0.771  0.00  0.00    -0.003 C 
ATOM      4  C   UNL     1      -0.537  -1.153  -0.226  0.00  0.00    -0.003 C 
ATOM      5  C   UNL     1      -1.933   1.153   0.494  0.00  0.00    +0.036 C 
ATOM      6  C   UNL     1      -1.900  -1.048  -0.503  0.00  0.00    +0.036 C 
ATOM      7  C   UNL     1      -2.598   0.105  -0.143  0.00  0.00    +0.134 C 
BRANCH   7   8
ATOM      8  O   UNL     1      -3.928   0.209  -0.414  0.00  0.00    -0.506 OA
ATOM      9  H   UNL     1      -4.396   0.983  -0.172  0.00  0.00    +0.292 HD
ENDBRANCH   7   8
ENDBRANCH   1   2
BRANCH   1  10
ATOM     10  N   UNL     1       2.012  -1.618   1.067  0.00  0.00    +0.391 N 
ATOM     11  H1  UNL     1       1.440  -1.960   1.839  0.00  0.00    -0.088 HD
ATOM     12  H2  UNL     1       2.993  -1.612   1.347  0.00  0.00    -0.088 HD
ATOM     13  H3  UNL     1       1.893  -2.228   0.259  0.00  0.00    -0.088 HD
ENDBRANCH   1  10
BRANCH   1  16
ATOM     14  O   UNL     1       2.217  -0.134  -1.587  0.00  0.00    -0.248 OA
ATOM     15  OXT UNL     1       3.132   1.366  -0.127  0.00  0.00    -0.248 OA
ATOM     16  C   UNL     1       2.390   0.394  -0.453  0.00  0.00    +0.349 C 
ENDBRANCH   1  16
TORSDOF 4
