REMARK  Name = 445896
REMARK  8 active torsions:
REMARK  status: ('A' for Active; 'I' for Inactive)
REMARK    1  A    between atoms: C_1  and  C_2
REMARK    2  A    between atoms: C_1  and  O_11
REMARK    3  A    between atoms: C_1  and  CA_13
REMARK    4  A    between atoms: C_7  and  N_8
REMARK    5  A    between atoms: CA_13  and  N_15
REMARK    6  A    between atoms: CA_13  and  C_21
REMARK    7  A    between atoms: C_16  and  C_20
REMARK    8  A    between atoms: C_21  and  O_22
REMARK                            x       y       z     vdW  Elec       q    Type
REMARK                         _______ _______ _______ _____ _____    ______ ____
ROOT
ATOM      1  C   UNL     1      -0.355   0.082  -0.969  0.00  0.00    +0.153 C 
ENDROOT
BRANCH   1   2
ATOM      2  C   UNL     1      -1.787   0.141  -0.487  0.00  0.00    +0.006 C 
ATOM      3  C   UNL     1      -2.742  -0.649  -1.105  0.00  0.00    -0.001 C 
ATOM      4  C   UNL     1      -2.114   0.984   0.562  0.00  0.00    -0.001 C 
ATOM      5  C   UNL     1      -4.063  -0.594  -0.661  0.00  0.00    +0.014 C 
ATOM      6  C   UNL     1      -3.436   1.039   1.006  0.00  0.00    +0.014 C 
ATOM      7  C   UNL     1      -4.410   0.250   0.394  0.00  0.00    +0.042 C 
BRANCH   7   8
ATOM      8  N   UNL     1      -5.746   0.305   0.844  0.00  0.00    -0.357 N 
ATOM      9  H   UNL     1      -6.434  -0.252   0.413  0.00  0.00    +0.142 HD
ATOM     10  H   UNL     1      -5.990   0.900   1.589  0.00  0.00    +0.142 HD
ENDBRANCH   7   8
ENDBRANCH   1   2
BRANCH   1  11
ATOM     11  O   UNL     1      -0.041   1.369  -1.510  0.00  0.00    -0.378 OA
ATOM     12  H   UNL     1       0.874   1.370  -1.831  0.00  0.00    +0.211 HD
ENDBRANCH   1  11
BRANCH   1  13
ATOM     13  CA  UNL     1       0.663  -0.272   0.137  0.00  0.00    +0.132 C 
BRANCH  13  15
ATOM     14  O   UNL     1       3.018   0.493   1.583  0.00  0.00    -0.272 OA
ATOM     15  N   UNL     1       2.010  -0.178  -0.394  0.00  0.00    -0.299 N 
ATOM     16  C   UNL     1       3.084   0.202   0.389  0.00  0.00    +0.253 C 
ATOM     17  H   UNL     1       2.164  -0.391  -1.343  0.00  0.00    +0.150 HD
BRANCH  16  20
ATOM     18 CL   UNL     1       5.027   1.873  -0.330  0.00  0.00    -0.087 Cl
ATOM     19 CL   UNL     1       5.496  -0.922   0.378  0.00  0.00    -0.087 Cl
ATOM     20  C   UNL     1       4.382   0.225  -0.385  0.00  0.00    +0.234 C 
ENDBRANCH  16  20
ENDBRANCH  13  15
BRANCH  13  21
ATOM     21  C   UNL     1       0.457  -1.657   0.760  0.00  0.00    +0.159 C 
BRANCH  21  22
ATOM     22  O   UNL     1       0.558  -2.689  -0.213  0.00  0.00    -0.380 OA
ATOM     23  H   UNL     1       0.424  -3.550   0.213  0.00  0.00    +0.211 HD
ENDBRANCH  21  22
ENDBRANCH  13  21
ENDBRANCH   1  13
TORSDOF 8
