REMARK  Name = 440064
REMARK  6 active torsions:
REMARK  status: ('A' for Active; 'I' for Inactive)
REMARK    1  A    between atoms: CA_1  and  N_2
REMARK    2  A    between atoms: CA_1  and  C_7
REMARK    3  A    between atoms: CA_1  and  C_10
REMARK    4  A    between atoms: C_7  and  O_8
REMARK    5  A    between atoms: C_10  and  C_13
REMARK    6  A    between atoms: C_13  and  O_14
REMARK                            x       y       z     vdW  Elec       q    Type
REMARK                         _______ _______ _______ _____ _____    ______ ____
ROOT
ATOM      1  CA  UNL     1      -0.697  -0.680   0.415  0.00  0.00    +0.046 C 
ENDROOT
BRANCH   1   2
ATOM      2  N   UNL     1      -1.577  -1.811   0.127  0.00  0.00    +0.389 N 
ATOM      3  H1  UNL     1      -1.098  -2.682   0.357  0.00  0.00    -0.088 HD
ATOM      4  H2  UNL     1      -1.822  -1.809  -0.863  0.00  0.00    -0.088 HD
ATOM      5  H3  UNL     1      -2.426  -1.732   0.687  0.00  0.00    -0.088 HD
ENDBRANCH   1   2
BRANCH   1   7
ATOM      6  OXT UNL     1      -2.317   0.623  -0.867  0.00  0.00    -0.253 OA
ATOM      7  C   UNL     1      -1.499   0.559   0.041  0.00  0.00    +0.293 C 
BRANCH   7   8
ATOM      8  O   UNL     1      -1.213   1.615   0.849  0.00  0.00    -0.482 OA
ATOM      9  H   UNL     1      -0.579   1.524   1.533  0.00  0.00    +0.295 HD
ENDBRANCH   7   8
ENDBRANCH   1   7
BRANCH   1  10
ATOM     10  C   UNL     1       0.641  -0.754  -0.359  0.00  0.00    +0.089 C 
ATOM     11  C   UNL     1       1.468  -1.992  -0.003  0.00  0.00    +0.010 C 
BRANCH  10  13
ATOM     12  O   UNL     1       1.919   0.782   1.044  0.00  0.00    -0.250 OA
ATOM     13  C   UNL     1       1.499   0.471  -0.063  0.00  0.00    +0.312 C 
BRANCH  13  14
ATOM     14  O   UNL     1       1.776   1.188  -1.183  0.00  0.00    -0.480 OA
ATOM     15  H   UNL     1       1.434   0.914  -2.011  0.00  0.00    +0.295 HD
ENDBRANCH  13  14
ENDBRANCH  10  13
ENDBRANCH   1  10
TORSDOF 6
