REMARK  Name = 447280
REMARK  10 active torsions:
REMARK  status: ('A' for Active; 'I' for Inactive)
REMARK    1  A    between atoms: C_3  and  C_13
REMARK    2  A    between atoms: C_7  and  C_26
REMARK    3  A    between atoms: C_10  and  C_17
REMARK    4  A    between atoms: N_16  and  C_19
REMARK    5  A    between atoms: C_19  and  C_23
REMARK    6  A    between atoms: C_26  and  O_27
REMARK    7  A    between atoms: C_26  and  C_29
REMARK    8  A    between atoms: C_29  and  N_30
REMARK    9  A    between atoms: C_29  and  C_34
REMARK   10  A    between atoms: C_34  and  C_35
REMARK                            x       y       z     vdW  Elec       q    Type
REMARK                         _______ _______ _______ _____ _____    ______ ____
ROOT
ATOM      1  O   UNL     1       2.027   1.245   1.262  0.00  0.00    -0.272 OA
ATOM      2  N   UNL     1       1.073   2.538  -0.404  0.00  0.00    -0.271 N 
ATOM      3  C   UNL     1      -0.209   2.741   0.256  0.00  0.00    +0.152 C 
ATOM      4  C   UNL     1      -0.864   3.883  -0.513  0.00  0.00    +0.031 C 
ATOM      5  C   UNL     1      -0.285   3.742  -1.918  0.00  0.00    +0.024 C 
ATOM      6  C   UNL     1       1.140   3.274  -1.664  0.00  0.00    +0.094 C 
ATOM      7  C   UNL     1       2.121   1.857   0.196  0.00  0.00    +0.251 C 
ENDROOT
BRANCH   3  13
ATOM      8  O   UNL     1      -0.809   0.730  -0.852  0.00  0.00    -0.273 OA
ATOM      9  N   UNL     1      -1.881   1.200   1.145  0.00  0.00    -0.272 N 
ATOM     10  C   UNL     1      -2.592  -0.066   1.254  0.00  0.00    +0.152 C 
ATOM     11  C   UNL     1      -3.079  -0.114   2.698  0.00  0.00    +0.031 C 
ATOM     12  C   UNL     1      -2.119   2.041   2.316  0.00  0.00    +0.094 C 
ATOM     13  C   UNL     1      -0.983   1.464   0.123  0.00  0.00    +0.244 C 
ATOM     14  C   UNL     1      -3.255   1.358   3.062  0.00  0.00    +0.024 C 
BRANCH  10  17
ATOM     15  O   UNL     1      -4.283   1.039  -0.018  0.00  0.00    -0.273 OA
ATOM     16  N   UNL     1      -4.080  -1.274  -0.182  0.00  0.00    -0.297 N 
ATOM     17  C   UNL     1      -3.734  -0.018   0.284  0.00  0.00    +0.241 C 
ATOM     18  H   UNL     1      -3.562  -2.050   0.134  0.00  0.00    +0.150 HD
BRANCH  16  19
ATOM     19  C   UNL     1      -5.163  -1.503  -1.110  0.00  0.00    +0.148 C 
ATOM     20  C   UNL     1      -4.674  -1.441  -2.549  0.00  0.00    +0.031 C 
BRANCH  19  23
ATOM     21  O   UNL     1      -5.338  -3.629   0.050  0.00  0.00    -0.274 OA
ATOM     22  N   UNL     1      -6.908  -3.118  -1.547  0.00  0.00    -0.327 N 
ATOM     23  C   UNL     1      -5.777  -2.859  -0.801  0.00  0.00    +0.237 C 
ATOM     24  H   UNL     1      -7.391  -3.968  -1.431  0.00  0.00    +0.145 HD
ATOM     25  H   UNL     1      -7.233  -2.452  -2.195  0.00  0.00    +0.145 HD
ENDBRANCH  19  23
ENDBRANCH  16  19
ENDBRANCH  10  17
ENDBRANCH   3  13
BRANCH   7  26
ATOM     26  C   UNL     1       3.430   1.890  -0.550  0.00  0.00    +0.167 C 
BRANCH  26  27
ATOM     27  O   UNL     1       4.124   3.053  -0.150  0.00  0.00    -0.377 OA
ATOM     28  H   UNL     1       3.576   3.833  -0.328  0.00  0.00    +0.211 HD
ENDBRANCH  26  27
BRANCH  26  29
ATOM     29  C   UNL     1       4.248   0.615  -0.294  0.00  0.00    -0.025 C 
BRANCH  29  30
ATOM     30  N   UNL     1       5.544   0.795  -0.969  0.00  0.00    +0.384 N 
ATOM     31  H   UNL     1       5.980   1.657  -0.642  0.00  0.00    -0.089 HD
ATOM     32  H   UNL     1       5.398   0.848  -1.977  0.00  0.00    -0.089 HD
ATOM     33  H   UNL     1       6.152   0.004  -0.754  0.00  0.00    -0.089 HD
ENDBRANCH  29  30
BRANCH  29  34
ATOM     34  C   UNL     1       3.620  -0.699  -0.814  0.00  0.00    +0.007 C 
BRANCH  34  35
ATOM     35  C   UNL     1       4.225  -1.959  -0.245  0.00  0.00    -0.024 C 
ATOM     36  C   UNL     1       5.305  -2.566  -0.886  0.00  0.00    -0.004 C 
ATOM     37  C   UNL     1       3.705  -2.517   0.923  0.00  0.00    -0.004 C 
ATOM     38  C   UNL     1       5.864  -3.730  -0.360  0.00  0.00    -0.000 C 
ATOM     39  C   UNL     1       4.264  -3.682   1.449  0.00  0.00    -0.000 C 
ATOM     40  C   UNL     1       5.344  -4.288   0.807  0.00  0.00    -0.000 C 
ENDBRANCH  34  35
ENDBRANCH  29  34
ENDBRANCH  26  29
ENDBRANCH   7  26
TORSDOF 10
