REMARK  Name = 20689
REMARK  6 active torsions:
REMARK  status: ('A' for Active; 'I' for Inactive)
REMARK    1  A    between atoms: S_1  and  C_3
REMARK    2  A    between atoms: S_1  and  C_7
REMARK    3  A    between atoms: C_3  and  C_4
REMARK    4  A    between atoms: C_4  and  C_5
REMARK    5  A    between atoms: C_7  and  C_8
REMARK    6  A    between atoms: C_8  and  N_9
REMARK                            x       y       z     vdW  Elec       q    Type
REMARK                         _______ _______ _______ _____ _____    ______ ____
ROOT
ATOM      1  S   UNL     1       0.609  -1.181  -0.003  0.00  0.00    -0.079 S 
ENDROOT
BRANCH   1   3
ATOM      2  O   UNL     1       1.671   1.236   0.005  0.00  0.00    -0.285 OA
ATOM      3  C   UNL     1       1.892   0.032   0.001  0.00  0.00    +0.199 C 
BRANCH   3   4
ATOM      4  C   UNL     1       3.278  -0.582   0.000  0.00  0.00    +0.076 C 
BRANCH   4   5
ATOM      5  C   UNL     1       4.374   0.482  -0.019  0.00  0.00    +0.009 C 
ATOM      6  C   UNL     1       5.759  -0.144   0.014  0.00  0.00    +0.000 C 
ENDBRANCH   4   5
ENDBRANCH   3   4
ENDBRANCH   1   3
BRANCH   1   7
ATOM      7  C   UNL     1      -0.853  -0.100  -0.001  0.00  0.00    +0.043 C 
BRANCH   7   8
ATOM      8  C   UNL     1      -2.151  -0.891   0.010  0.00  0.00    -0.061 C 
BRANCH   8   9
ATOM      9  N   UNL     1      -3.346   0.052   0.001  0.00  0.00    +0.386 N 
ATOM     10  C   UNL     1      -3.258   0.970  -1.210  0.00  0.00    -0.096 C 
ATOM     11  C   UNL     1      -4.631  -0.760  -0.071  0.00  0.00    -0.096 C 
ATOM     12  C   UNL     1      -3.343   0.887   1.272  0.00  0.00    -0.096 C 
ENDBRANCH   8   9
ENDBRANCH   7   8
ENDBRANCH   1   7
TORSDOF 6
