121945
  -OEChem-10051720393D

 51 52  0     1  0  0  0  0  0999 V2000
   -0.9313   -3.2742    0.0078 S   0  0  0  0  0  0  0  0  0  0  0  0
   -0.2552   -4.0477   -1.0162 O   0  0  0  0  0  0  0  0  0  0  0  0
   -1.5061   -3.9372    1.1627 O   0  0  0  0  0  0  0  0  0  0  0  0
   -2.8398    3.6644    1.4699 O   0  0  0  0  0  0  0  0  0  0  0  0
   -0.6264    3.3160    1.0913 O   0  0  0  0  0  0  0  0  0  0  0  0
   -2.1205   -2.2984   -0.7157 N   0  0  0  0  0  0  0  0  0  0  0  0
    3.6076    1.3884    0.0202 N   0  0  0  0  0  0  0  0  0  0  0  0
   -1.0459    2.9213   -1.5864 N   0  0  0  0  0  0  0  0  0  0  0  0
   -3.7641   -0.4803   -0.4306 C   0  0  0  0  0  0  0  0  0  0  0  0
   -2.6895    0.6087   -0.3294 C   0  0  0  0  0  0  0  0  0  0  0  0
   -3.2776   -1.8329    0.0791 C   0  0  0  0  0  0  0  0  0  0  0  0
   -3.2140    1.9502   -0.8606 C   0  0  0  0  0  0  0  0  0  0  0  0
    0.2062   -2.0675    0.6195 C   0  0  0  0  0  0  0  0  0  0  0  0
    1.0098   -1.2960   -0.2266 C   0  0  0  0  0  0  0  0  0  0  0  0
   -2.2274    3.1221   -0.7483 C   0  0  1  0  0  0  0  0  0  0  0  0
    1.8948   -0.3505    0.3441 C   0  0  0  0  0  0  0  0  0  0  0  0
    2.7045    0.4282   -0.4986 C   0  0  0  0  0  0  0  0  0  0  0  0
    0.2614   -1.9229    2.0015 C   0  0  0  0  0  0  0  0  0  0  0  0
    0.9606   -1.4348   -1.6233 C   0  0  0  0  0  0  0  0  0  0  0  0
    1.9437   -0.2114    1.7408 C   0  0  0  0  0  0  0  0  0  0  0  0
    1.1316   -0.9931    2.5628 C   0  0  0  0  0  0  0  0  0  0  0  0
    2.6428    0.2770   -1.8841 C   0  0  0  0  0  0  0  0  0  0  0  0
    1.7723   -0.6527   -2.4454 C   0  0  0  0  0  0  0  0  0  0  0  0
   -1.7768    3.3630    0.6792 C   0  0  0  0  0  0  0  0  0  0  0  0
    3.1768    2.7529    0.2315 C   0  0  0  0  0  0  0  0  0  0  0  0
    4.9621    1.0075    0.3550 C   0  0  0  0  0  0  0  0  0  0  0  0
   -4.6468   -0.1805    0.1467 H   0  0  0  0  0  0  0  0  0  0  0  0
   -4.0815   -0.5787   -1.4763 H   0  0  0  0  0  0  0  0  0  0  0  0
   -1.8063    0.3125   -0.9046 H   0  0  0  0  0  0  0  0  0  0  0  0
   -2.3791    0.7093    0.7168 H   0  0  0  0  0  0  0  0  0  0  0  0
   -4.0803   -2.5722   -0.0099 H   0  0  0  0  0  0  0  0  0  0  0  0
   -3.0057   -1.7441    1.1360 H   0  0  0  0  0  0  0  0  0  0  0  0
   -3.5079    1.8300   -1.9116 H   0  0  0  0  0  0  0  0  0  0  0  0
   -4.1318    2.2072   -0.3158 H   0  0  0  0  0  0  0  0  0  0  0  0
   -2.2642   -2.3615   -1.7310 H   0  0  0  0  0  0  0  0  0  0  0  0
   -2.7198    4.0383   -1.0951 H   0  0  0  0  0  0  0  0  0  0  0  0
   -0.3548   -2.5063    2.6780 H   0  0  0  0  0  0  0  0  0  0  0  0
    0.2862   -2.1056   -2.1399 H   0  0  0  0  0  0  0  0  0  0  0  0
    2.6086    0.5004    2.2235 H   0  0  0  0  0  0  0  0  0  0  0  0
    1.1786   -0.8747    3.6415 H   0  0  0  0  0  0  0  0  0  0  0  0
    3.2678    0.8810   -2.5372 H   0  0  0  0  0  0  0  0  0  0  0  0
    1.7188   -0.7628   -3.5247 H   0  0  0  0  0  0  0  0  0  0  0  0
   -0.4302    3.7305   -1.5142 H   0  0  0  0  0  0  0  0  0  0  0  0
   -0.5082    2.1224   -1.2531 H   0  0  0  0  0  0  0  0  0  0  0  0
    2.5260    2.8207    1.1092 H   0  0  0  0  0  0  0  0  0  0  0  0
    2.6235    3.1282   -0.6365 H   0  0  0  0  0  0  0  0  0  0  0  0
    4.0263    3.4258    0.3895 H   0  0  0  0  0  0  0  0  0  0  0  0
    5.4486    1.7561    0.9892 H   0  0  0  0  0  0  0  0  0  0  0  0
    5.5603    0.8961   -0.5555 H   0  0  0  0  0  0  0  0  0  0  0  0
    4.9843    0.0572    0.8994 H   0  0  0  0  0  0  0  0  0  0  0  0
   -2.5693    3.8299    2.3982 H   0  0  0  0  0  0  0  0  0  0  0  0
  1  2  2  0  0  0  0
  1  3  2  0  0  0  0
  1  6  1  0  0  0  0
  1 13  1  0  0  0  0
  4 24  1  0  0  0  0
  4 51  1  0  0  0  0
  5 24  2  0  0  0  0
  6 11  1  0  0  0  0
  6 35  1  0  0  0  0
  7 17  1  0  0  0  0
  7 25  1  0  0  0  0
  7 26  1  0  0  0  0
  8 15  1  0  0  0  0
  8 43  1  0  0  0  0
  8 44  1  0  0  0  0
  9 10  1  0  0  0  0
  9 11  1  0  0  0  0
  9 27  1  0  0  0  0
  9 28  1  0  0  0  0
 10 12  1  0  0  0  0
 10 29  1  0  0  0  0
 10 30  1  0  0  0  0
 11 31  1  0  0  0  0
 11 32  1  0  0  0  0
 12 15  1  0  0  0  0
 12 33  1  0  0  0  0
 12 34  1  0  0  0  0
 13 14  1  0  0  0  0
 13 18  2  0  0  0  0
 14 16  2  0  0  0  0
 14 19  1  0  0  0  0
 15 24  1  0  0  0  0
 15 36  1  0  0  0  0
 16 17  1  0  0  0  0
 16 20  1  0  0  0  0
 17 22  2  0  0  0  0
 18 21  1  0  0  0  0
 18 37  1  0  0  0  0
 19 23  2  0  0  0  0
 19 38  1  0  0  0  0
 20 21  2  0  0  0  0
 20 39  1  0  0  0  0
 21 40  1  0  0  0  0
 22 23  1  0  0  0  0
 22 41  1  0  0  0  0
 23 42  1  0  0  0  0
 25 45  1  0  0  0  0
 25 46  1  0  0  0  0
 25 47  1  0  0  0  0
 26 48  1  0  0  0  0
 26 49  1  0  0  0  0
 26 50  1  0  0  0  0
M  END
> <DATABASE_ID>
DB04676

> <DATABASE_NAME>
drugbank

> <ORIGINAL_SOURCE>
PUBCHEM

> <ORIGINAL_SOURCE_URL>
https://pubchem.ncbi.nlm.nih.gov/rest/pug/compound/inchikey/VQPRNSWQIAHPMS-HNNXBMFYSA-N/SDF?record_type=3d

> <SMILES>
CN(C)C1=CC=CC2=C1C=CC=C2S(=O)(=O)NCCCC[C@H](N)C(O)=O

> <INCHI_IDENTIFIER>
InChI=1S/C18H25N3O4S/c1-21(2)16-10-5-8-14-13(16)7-6-11-17(14)26(24,25)20-12-4-3-9-15(19)18(22)23/h5-8,10-11,15,20H,3-4,9,12,19H2,1-2H3,(H,22,23)/t15-/m0/s1

> <INCHI_KEY>
VQPRNSWQIAHPMS-HNNXBMFYSA-N

> <FORMULA>
C18H25N3O4S

> <MOLECULAR_WEIGHT>
379.474

> <EXACT_MASS>
379.156576993

> <JCHEM_ACCEPTOR_COUNT>
6

> <JCHEM_AVERAGE_POLARIZABILITY>
40.788356456332664

> <JCHEM_BIOAVAILABILITY>
1

> <JCHEM_DONOR_COUNT>
3

> <JCHEM_FORMAL_CHARGE>
0

> <JCHEM_GHOSE_FILTER>
0

> <JCHEM_IUPAC>
(2S)-2-amino-6-[5-(dimethylamino)naphthalene-1-sulfonamido]hexanoic acid

> <ALOGPS_LOGP>
-0.68

> <JCHEM_LOGP>
-0.45071455848241393

> <ALOGPS_LOGS>
-3.69

> <JCHEM_MDDR_LIKE_RULE>
0

> <JCHEM_NUMBER_OF_RINGS>
2

> <JCHEM_PHYSIOLOGICAL_CHARGE>
0

> <JCHEM_PKA>
10.063104849707948

> <JCHEM_PKA_STRONGEST_ACIDIC>
1.543648081650522

> <JCHEM_PKA_STRONGEST_BASIC>
9.37737287788048

> <JCHEM_POLAR_SURFACE_AREA>
112.73000000000002

> <JCHEM_REFRACTIVITY>
101.88209999999998

> <JCHEM_ROTATABLE_BOND_COUNT>
8

> <JCHEM_RULE_OF_FIVE>
1

> <ALOGPS_SOLUBILITY>
7.82e-02 g/l

> <JCHEM_TRADITIONAL_IUPAC>
dansyllysine

> <JCHEM_VEBER_RULE>
0

> <DRUGBANK_ID>
DB04676

> <DRUG_GROUPS>
experimental

> <GENERIC_NAME>
Dansyllysine

> <SYNONYMS>
DNS-lysine; N(epsilon)-Dansyl-L-lysine

$$$$
