REMARK  Name = 448971
REMARK  9 active torsions:
REMARK  status: ('A' for Active; 'I' for Inactive)
REMARK    1  A    between atoms: N_1  and  C_13
REMARK    2  A    between atoms: C_5  and  C_18
REMARK    3  A    between atoms: C_13  and  C_14
REMARK    4  A    between atoms: C_14  and  C_15
REMARK    5  A    between atoms: C_15  and  C_16
REMARK    6  A    between atoms: C_18  and  C_20
REMARK    7  A    between atoms: C_23  and  O_26
REMARK    8  A    between atoms: C_24  and  O_28
REMARK    9  A    between atoms: C_25  and  O_30
REMARK                            x       y       z     vdW  Elec       q    Type
REMARK                         _______ _______ _______ _____ _____    ______ ____
ROOT
ATOM      1  N   UNL     1       2.338  -0.238  -0.752  0.00  0.00    -0.249 N 
ATOM      2  N   UNL     1       0.548  -1.318   0.023  0.00  0.00    -0.385 NA
ATOM      3  N   UNL     1       4.038  -1.934  -0.390  0.00  0.00    -0.227 NA
ATOM      4  N   UNL     1       3.083  -3.949   0.603  0.00  0.00    -0.227 NA
ATOM      5  C   UNL     1       0.990  -0.199  -0.512  0.00  0.00    +0.169 C 
ATOM      6  C   UNL     1       2.783  -1.462  -0.343  0.00  0.00    +0.167 C 
ATOM      7  C   UNL     1       1.659  -2.117   0.134  0.00  0.00    +0.195 C 
ATOM      8  C   UNL     1       1.841  -3.408   0.619  0.00  0.00    +0.155 C 
ATOM      9  C   UNL     1       4.090  -3.189   0.107  0.00  0.00    +0.253 C 
ATOM     10  N   UNL     1       0.755  -4.146   1.122  0.00  0.00    -0.341 N 
ATOM     11  H   UNL     1       0.896  -5.059   1.463  0.00  0.00    +0.144 HD
ATOM     12  H   UNL     1      -0.146  -3.750   1.133  0.00  0.00    +0.144 HD
ENDROOT
BRANCH   1  13
ATOM     13  C   UNL     1       3.143   0.814  -1.328  0.00  0.00    +0.100 C 
BRANCH  13  14
ATOM     14  C   UNL     1       3.707   1.754  -0.260  0.00  0.00    +0.036 C 
BRANCH  14  15
ATOM     15  C   UNL     1       4.570   2.869  -0.851  0.00  0.00    +0.079 C 
BRANCH  15  16
ATOM     16  C   UNL     1       5.090   3.777   0.181  0.00  0.00    -0.078 C 
ATOM     17  C   UNL     1       5.517   4.521   1.021  0.00  0.00    -0.014 C 
ENDBRANCH  15  16
ENDBRANCH  14  15
ENDBRANCH  13  14
ENDBRANCH   1  13
BRANCH   5  18
ATOM     18  C   UNL     1       0.170   0.988  -0.834  0.00  0.00    +0.102 C 
BRANCH  18  20
ATOM     19 CL   UNL     1      -0.734   1.840   1.966  0.00  0.00    -0.079 Cl
ATOM     20  C   UNL     1      -1.305   0.830  -0.491  0.00  0.00    +0.003 C 
ATOM     21  C   UNL     1      -1.786   1.194   0.751  0.00  0.00    +0.091 C 
ATOM     22  C   UNL     1      -2.130   0.313  -1.472  0.00  0.00    +0.037 C 
ATOM     23  C   UNL     1      -3.144   1.034   1.025  0.00  0.00    +0.186 C 
ATOM     24  C   UNL     1      -3.488   0.153  -1.198  0.00  0.00    +0.175 C 
ATOM     25  C   UNL     1      -3.995   0.513   0.050  0.00  0.00    +0.207 C 
BRANCH  23  26
ATOM     26  O   UNL     1      -3.658   1.381   2.241  0.00  0.00    -0.467 OA
ATOM     27  C   UNL     1      -3.677   0.372   3.246  0.00  0.00    +0.253 C 
ENDBRANCH  23  26
BRANCH  24  28
ATOM     28  O   UNL     1      -4.309  -0.357  -2.159  0.00  0.00    -0.468 OA
ATOM     29  C   UNL     1      -4.924   0.574  -3.046  0.00  0.00    +0.253 C 
ENDBRANCH  24  28
BRANCH  25  30
ATOM     30  O   UNL     1      -5.324   0.357   0.316  0.00  0.00    -0.465 OA
ATOM     31  C   UNL     1      -5.848  -0.966   0.230  0.00  0.00    +0.253 C 
ENDBRANCH  25  30
ENDBRANCH  18  20
ENDBRANCH   5  18
TORSDOF 9
