REMARK  Name = 736299
REMARK  4 active torsions:
REMARK  status: ('A' for Active; 'I' for Inactive)
REMARK    1  A    between atoms: C_5  and  C_16
REMARK    2  A    between atoms: C_6  and  O_11
REMARK    3  A    between atoms: C_9  and  O_13
REMARK    4  A    between atoms: C_16  and  O_17
REMARK                            x       y       z     vdW  Elec       q    Type
REMARK                         _______ _______ _______ _____ _____    ______ ____
ROOT
ATOM      1  C   UNL     1       0.768   0.426   0.030  0.00  0.00    +0.003 C 
ATOM      2  C   UNL     1       0.879  -0.983  -0.040  0.00  0.00    +0.003 C 
ATOM      3  C   UNL     1      -0.507   1.014   0.058  0.00  0.00    +0.010 C 
ATOM      4  C   UNL     1      -0.289  -1.762  -0.081  0.00  0.00    +0.037 C 
ATOM      5  C   UNL     1      -1.656   0.224   0.017  0.00  0.00    +0.109 C 
ATOM      6  C   UNL     1      -1.547  -1.161  -0.053  0.00  0.00    +0.140 C 
ATOM      7  C   UNL     1       1.935   1.206   0.072  0.00  0.00    +0.037 C 
ATOM      8  C   UNL     1       2.154  -1.571  -0.067  0.00  0.00    +0.003 C 
ATOM      9  C   UNL     1       3.194   0.605   0.044  0.00  0.00    +0.134 C 
ATOM     10  C   UNL     1       3.303  -0.781  -0.025  0.00  0.00    +0.037 C 
ENDROOT
BRANCH   6  11
ATOM     11  O   UNL     1      -2.659  -1.950  -0.093  0.00  0.00    -0.505 OA
ATOM     12  H   UNL     1      -2.571  -2.881  -0.139  0.00  0.00    +0.292 HD
ENDBRANCH   6  11
BRANCH   9  13
ATOM     13  O   UNL     1       4.316   1.373   0.085  0.00  0.00    -0.506 OA
ATOM     14  H   UNL     1       4.244   2.307   0.132  0.00  0.00    +0.292 HD
ENDBRANCH   9  13
BRANCH   5  16
ATOM     15  O   UNL     1      -3.989   0.382   0.525  0.00  0.00    -0.245 OA
ATOM     16  C   UNL     1      -2.961   0.871   0.047  0.00  0.00    +0.341 C 
BRANCH  16  17
ATOM     17  O   UNL     1      -2.941   2.107  -0.520  0.00  0.00    -0.477 OA
ATOM     18  H   UNL     1      -2.142   2.447  -0.873  0.00  0.00    +0.295 HD
ENDBRANCH  16  17
ENDBRANCH   5  16
TORSDOF 4
