REMARK  Name = 2724877
REMARK  4 active torsions:
REMARK  status: ('A' for Active; 'I' for Inactive)
REMARK    1  A    between atoms: C_1  and  N_3
REMARK    2  A    between atoms: C_1  and  C_8
REMARK    3  A    between atoms: C_1  and  C_11
REMARK    4  A    between atoms: C_8  and  O_9
REMARK                            x       y       z     vdW  Elec       q    Type
REMARK                         _______ _______ _______ _____ _____    ______ ____
ROOT
ATOM      1  C   UNL     1       0.229  -0.566   0.027  0.00  0.00    +0.043 C 
ATOM      2  C   UNL     1      -0.116  -1.864  -0.717  0.00  0.00    -0.011 C 
ENDROOT
BRANCH   1   3
ATOM      3  N   UNL     1       0.544  -0.900   1.421  0.00  0.00    +0.390 N 
ATOM      4  H   UNL     1       1.361  -1.511   1.448  0.00  0.00    -0.088 HD
ATOM      5  H   UNL     1      -0.251  -1.378   1.845  0.00  0.00    -0.088 HD
ATOM      6  H   UNL     1       0.743  -0.045   1.940  0.00  0.00    -0.088 HD
ENDBRANCH   1   3
BRANCH   1   8
ATOM      7  O   UNL     1      -1.568   0.758   1.046  0.00  0.00    -0.253 OA
ATOM      8  C   UNL     1      -0.996   0.346   0.046  0.00  0.00    +0.294 C 
BRANCH   8   9
ATOM      9  O   UNL     1      -1.396   0.663  -1.213  0.00  0.00    -0.482 OA
ATOM     10  H   UNL     1      -0.929   0.325  -1.952  0.00  0.00    +0.295 HD
ENDBRANCH   8   9
ENDBRANCH   1   8
BRANCH   1  11
ATOM     11  C   UNL     1       1.438   0.128  -0.636  0.00  0.00    -0.010 C 
ATOM     12  C   UNL     1       1.865   1.436   0.024  0.00  0.00    -0.002 C 
ENDBRANCH   1  11
TORSDOF 4
