REMARK  Name = 6852220
REMARK  10 active torsions:
REMARK  status: ('A' for Active; 'I' for Inactive)
REMARK    1  A    between atoms: CA_1  and  C_4
REMARK    2  A    between atoms: CA_1  and  C_19
REMARK    3  A    between atoms: CA_1  and  N_22
REMARK    4  A    between atoms: C_3  and  O_9
REMARK    5  A    between atoms: C_8  and  O_15
REMARK    6  A    between atoms: O_9  and  C_11
REMARK    7  A    between atoms: O_15  and  C_16
REMARK    8  A    between atoms: C_19  and  O_20
REMARK    9  A    between atoms: N_22  and  C_24
REMARK   10  A    between atoms: C_29  and  C_32
REMARK                            x       y       z     vdW  Elec       q    Type
REMARK                         _______ _______ _______ _____ _____    ______ ____
ROOT
ATOM      1  CA  UNL     1      -0.467  -2.426  -0.830  0.00  0.00    +0.195 C 
ENDROOT
BRANCH   1   4
ATOM      2  F   UNL     1       1.623  -0.842  -1.868  0.00  0.00    -0.201 F 
ATOM      3  C   UNL     1       2.294  -0.087   0.274  0.00  0.00    +0.168 C 
ATOM      4  C   UNL     1       0.435  -1.611   0.035  0.00  0.00    +0.040 C 
ATOM      5  C   UNL     1       1.452  -0.847  -0.538  0.00  0.00    +0.172 C 
ATOM      6  C   UNL     1       2.119  -0.090   1.657  0.00  0.00    +0.076 C 
ATOM      7  C   UNL     1       0.260  -1.614   1.418  0.00  0.00    +0.037 C 
ATOM      8  C   UNL     1       1.102  -0.854   2.230  0.00  0.00    +0.141 C 
BRANCH   3   9
ATOM      9  O   UNL     1       3.295   0.663  -0.287  0.00  0.00    -0.474 OA
BRANCH   9  11
ATOM     10  O   UNL     1       5.459   2.787  -0.522  0.00  0.00    -0.350 OA
ATOM     11  C   UNL     1       3.249   2.066  -0.055  0.00  0.00    +0.198 C 
ATOM     12  C   UNL     1       3.250   2.786  -1.381  0.00  0.00    +0.078 C 
ATOM     13  C   UNL     1       4.552   2.530   0.564  0.00  0.00    +0.185 C 
ATOM     14  C   UNL     1       4.720   2.771  -1.751  0.00  0.00    +0.146 C 
ENDBRANCH   9  11
ENDBRANCH   3   9
BRANCH   8  15
ATOM     15  O   UNL     1       0.931  -0.858   3.580  0.00  0.00    -0.475 OA
BRANCH  15  16
ATOM     16  C   UNL     1      -0.395  -1.061   4.066  0.00  0.00    +0.206 C 
ATOM     17  C   UNL     1      -0.547  -0.350   5.394  0.00  0.00    +0.051 C 
ENDBRANCH  15  16
ENDBRANCH   8  15
ENDBRANCH   1   4
BRANCH   1  19
ATOM     18  OXT UNL     1       0.327  -3.544  -2.820  0.00  0.00    -0.248 OA
ATOM     19  C   UNL     1       0.292  -3.501  -1.595  0.00  0.00    +0.336 C 
BRANCH  19  20
ATOM     20  O   UNL     1       0.873  -4.447  -0.817  0.00  0.00    -0.479 OA
ATOM     21  H   UNL     1       0.825  -4.379   0.117  0.00  0.00    +0.295 HD
ENDBRANCH  19  20
ENDBRANCH   1  19
BRANCH   1  22
ATOM     22  N   UNL     1      -1.237  -1.594  -1.745  0.00  0.00    -0.322 N 
ATOM     23  H   UNL     1      -1.118  -1.730  -2.713  0.00  0.00    +0.148 HD
BRANCH  22  24
ATOM     24  C   UNL     1      -2.123  -0.626  -1.324  0.00  0.00    +0.045 C 
ATOM     25  C   UNL     1      -2.797  -0.778  -0.112  0.00  0.00    +0.014 C 
ATOM     26  C   UNL     1      -2.346   0.505  -2.109  0.00  0.00    +0.014 C 
ATOM     27  C   UNL     1      -3.695   0.201   0.314  0.00  0.00    +0.004 C 
ATOM     28  C   UNL     1      -3.244   1.484  -1.683  0.00  0.00    +0.004 C 
ATOM     29  C   UNL     1      -3.918   1.332  -0.472  0.00  0.00    +0.031 C 
BRANCH  29  32
ATOM     30  N   UNL     1      -5.543   2.230   1.177  0.00  0.00    -0.343 N 
ATOM     31  N   UNL     1      -5.067   3.421  -0.776  0.00  0.00    -0.285 NA
ATOM     32  C   UNL     1      -4.854   2.353  -0.028  0.00  0.00    +0.117 C 
ATOM     33  H   UNL     1      -6.173   2.933   1.459  0.00  0.00    +0.144 HD
ATOM     34  H   UNL     1      -5.401   1.440   1.747  0.00  0.00    +0.144 HD
ATOM     35  H   UNL     1      -5.700   4.113  -0.477  0.00  0.00    +0.188 HD
ENDBRANCH  29  32
ENDBRANCH  22  24
ENDBRANCH   1  22
TORSDOF 10
