REMARK  Name = 637516
REMARK  2 active torsions:
REMARK  status: ('A' for Active; 'I' for Inactive)
REMARK    1  A    between atoms: C_1  and  C_7
REMARK    2  A    between atoms: C_7  and  O_9
REMARK                            x       y       z     vdW  Elec       q    Type
REMARK                         _______ _______ _______ _____ _____    ______ ____
ROOT
ATOM      1  C   UNL     1       0.288  -0.138   0.135  0.00  0.00    +0.004 C 
ATOM      2  C   UNL     1      -0.252   1.103  -0.201  0.00  0.00    -0.002 C 
ATOM      3  C   UNL     1      -0.552  -1.232   0.341  0.00  0.00    -0.002 C 
ATOM      4  C   UNL     1      -1.633   1.251  -0.330  0.00  0.00    -0.000 C 
ATOM      5  C   UNL     1      -1.933  -1.084   0.212  0.00  0.00    -0.000 C 
ATOM      6  C   UNL     1      -2.474   0.157  -0.124  0.00  0.00    -0.000 C 
ENDROOT
BRANCH   1   7
ATOM      7  C   UNL     1       1.765  -0.296   0.272  0.00  0.00    +0.133 C 
ATOM      8  C   UNL     1       2.444  -0.688  -1.044  0.00  0.00    +0.037 C 
BRANCH   7   9
ATOM      9  O   UNL     1       2.347   0.927   0.739  0.00  0.00    -0.380 OA
ATOM     10  H   UNL     1       1.926   1.188   1.573  0.00  0.00    +0.211 HD
ENDBRANCH   7   9
ENDBRANCH   1   7
TORSDOF 2
