REMARK  Name = 533975
REMARK  3 active torsions:
REMARK  status: ('A' for Active; 'I' for Inactive)
REMARK    1  A    between atoms: C_1  and  C_3
REMARK    2  A    between atoms: C_1  and  C_5
REMARK    3  A    between atoms: C_5  and  O_6
REMARK                            x       y       z     vdW  Elec       q    Type
REMARK                         _______ _______ _______ _____ _____    ______ ____
ROOT
ATOM      1  C   UNL     1       0.377   0.132  -1.001  0.00  0.00    +0.065 C 
ENDROOT
BRANCH   1   3
ATOM      2 BR   UNL     1      -1.584  -1.456   0.362  0.00  0.00    -0.054 Br
ATOM      3  C   UNL     1      -0.855   0.196  -0.135  0.00  0.00    +0.015 C 
ATOM      4  C   UNL     1      -1.436   1.349   0.225  0.00  0.00    +0.003 C 
ENDBRANCH   1   3
BRANCH   1   5
ATOM      5  C   UNL     1       1.576  -0.498  -0.295  0.00  0.00    +0.142 C 
BRANCH   5   6
ATOM      6  O   UNL     1       1.923   0.277   0.845  0.00  0.00    -0.382 OA
ATOM      7  H   UNL     1       2.684  -0.126   1.290  0.00  0.00    +0.210 HD
ENDBRANCH   5   6
ENDBRANCH   1   5
TORSDOF 3
