REMARK  Name = 5326925
REMARK  6 active torsions:
REMARK  status: ('A' for Active; 'I' for Inactive)
REMARK    1  A    between atoms: C_5  and  O_9
REMARK    2  A    between atoms: C_6  and  O_22
REMARK    3  A    between atoms: O_9  and  C_10
REMARK    4  A    between atoms: C_13  and  C_18
REMARK    5  A    between atoms: O_22  and  C_23
REMARK    6  A    between atoms: C_28  and  C_31
REMARK                            x       y       z     vdW  Elec       q    Type
REMARK                         _______ _______ _______ _____ _____    ______ ____
ROOT
ATOM      1  O   UNL     1      -0.153  -3.051  -0.568  0.00  0.00    -0.346 OA
ATOM      2  O   UNL     1       1.023  -0.283  -1.127  0.00  0.00    -0.346 OA
ATOM      3  C   UNL     1       1.003  -1.078   0.071  0.00  0.00    +0.188 C 
ATOM      4  C   UNL     1      -0.336  -1.789   0.103  0.00  0.00    +0.188 C 
ATOM      5  C   UNL     1       1.979  -2.227  -0.006  0.00  0.00    +0.225 C 
ATOM      6  C   UNL     1      -1.231  -0.886  -0.708  0.00  0.00    +0.225 C 
ATOM      7  C   UNL     1       1.238  -3.216  -0.877  0.00  0.00    +0.188 C 
ATOM      8  C   UNL     1      -0.278  -0.314  -1.738  0.00  0.00    +0.188 C 
ENDROOT
BRANCH   5   9
ATOM      9  O   UNL     1       3.228  -1.869  -0.553  0.00  0.00    -0.474 OA
BRANCH   9  10
ATOM     10  C   UNL     1       3.974  -0.941   0.136  0.00  0.00    +0.139 C 
ATOM     11  C   UNL     1       4.321   0.252  -0.482  0.00  0.00    +0.040 C 
ATOM     12  C   UNL     1       4.370  -1.214   1.438  0.00  0.00    +0.037 C 
ATOM     13  C   UNL     1       5.079   1.192   0.216  0.00  0.00    +0.034 C 
ATOM     14  C   UNL     1       5.127  -0.274   2.136  0.00  0.00    +0.003 C 
ATOM     15  C   UNL     1       5.482   0.929   1.526  0.00  0.00    +0.003 C 
BRANCH  13  18
ATOM     16  N   UNL     1       6.206   3.405   0.251  0.00  0.00    -0.343 N 
ATOM     17  N   UNL     1       5.063   2.694  -1.659  0.00  0.00    -0.285 NA
ATOM     18  C   UNL     1       5.449   2.446  -0.421  0.00  0.00    +0.117 C 
ATOM     19  H   UNL     1       6.445   4.247  -0.199  0.00  0.00    +0.144 HD
ATOM     20  H   UNL     1       6.501   3.239   1.176  0.00  0.00    +0.144 HD
ATOM     21  H   UNL     1       5.312   3.543  -2.092  0.00  0.00    +0.188 HD
ENDBRANCH  13  18
ENDBRANCH   9  10
ENDBRANCH   5   9
BRANCH   6  22
ATOM     22  O   UNL     1      -1.711   0.176   0.108  0.00  0.00    -0.474 OA
BRANCH  22  23
ATOM     23  C   UNL     1      -3.069   0.353   0.153  0.00  0.00    +0.139 C 
ATOM     24  C   UNL     1      -3.882  -0.675   0.614  0.00  0.00    +0.037 C 
ATOM     25  C   UNL     1      -3.620   1.561  -0.261  0.00  0.00    +0.037 C 
ATOM     26  C   UNL     1      -5.265  -0.495   0.661  0.00  0.00    +0.006 C 
ATOM     27  C   UNL     1      -5.002   1.742  -0.213  0.00  0.00    +0.006 C 
ATOM     28  C   UNL     1      -5.824   0.714   0.248  0.00  0.00    +0.031 C 
BRANCH  28  31
ATOM     29  N   UNL     1      -8.114  -0.105   0.753  0.00  0.00    -0.343 N 
ATOM     30  N   UNL     1      -7.793   2.047  -0.099  0.00  0.00    -0.285 NA
ATOM     31  C   UNL     1      -7.266   0.903   0.298  0.00  0.00    +0.117 C 
ATOM     32  H   UNL     1      -9.086   0.044   0.779  0.00  0.00    +0.144 HD
ATOM     33  H   UNL     1      -7.740  -0.966   1.050  0.00  0.00    +0.144 HD
ATOM     34  H   UNL     1      -8.769   2.177  -0.066  0.00  0.00    +0.188 HD
ENDBRANCH  28  31
ENDBRANCH  22  23
ENDBRANCH   6  22
TORSDOF 6
