REMARK  Name = 9600408
REMARK  11 active torsions:
REMARK  status: ('A' for Active; 'I' for Inactive)
REMARK    1  A    between atoms: S_1  and  C_5
REMARK    2  A    between atoms: S_1  and  C_18
REMARK    3  A    between atoms: C_2  and  C_14
REMARK    4  A    between atoms: C_3  and  O_8
REMARK    5  A    between atoms: C_6  and  O_10
REMARK    6  A    between atoms: C_7  and  O_12
REMARK    7  A    between atoms: C_14  and  O_15
REMARK    8  A    between atoms: N_17  and  O_19
REMARK    9  A    between atoms: C_18  and  C_24
REMARK   10  A    between atoms: O_19  and  S_20
REMARK   11  A    between atoms: C_24  and  C_25
REMARK                            x       y       z     vdW  Elec       q    Type
REMARK                         _______ _______ _______ _____ _____    ______ ____
ROOT
ATOM      1  S   UNL     1      -0.384  -0.230  -1.806  0.00  0.00    -0.094 S 
ENDROOT
BRANCH   1   5
ATOM      2  C   UNL     1      -2.978   0.348   1.376  0.00  0.00    +0.060 C 
ATOM      3  C   UNL     1      -4.314   0.237   0.624  0.00  0.00    +0.142 C 
ATOM      4  C   UNL     1      -1.827  -0.200   0.520  0.00  0.00    +0.019 C 
ATOM      5  C   UNL     1      -1.750   0.509  -0.834  0.00  0.00    +0.083 C 
ATOM      6  C   UNL     1      -4.250   0.906  -0.750  0.00  0.00    +0.165 C 
ATOM      7  C   UNL     1      -3.075   0.410  -1.598  0.00  0.00    +0.150 C 
BRANCH   3   8
ATOM      8  O   UNL     1      -5.346   0.888   1.369  0.00  0.00    -0.382 OA
ATOM      9  H   UNL     1      -5.412   0.485   2.250  0.00  0.00    +0.210 HD
ENDBRANCH   3   8
BRANCH   6  10
ATOM     10  O   UNL     1      -5.469   0.608  -1.441  0.00  0.00    -0.380 OA
ATOM     11  H   UNL     1      -6.223   0.917  -0.914  0.00  0.00    +0.211 HD
ENDBRANCH   6  10
BRANCH   7  12
ATOM     12  O   UNL     1      -3.024   1.233  -2.766  0.00  0.00    -0.381 OA
ATOM     13  H   UNL     1      -2.288   0.949  -3.330  0.00  0.00    +0.210 HD
ENDBRANCH   7  12
BRANCH   2  14
ATOM     14  C   UNL     1      -3.019  -0.379   2.723  0.00  0.00    +0.140 C 
BRANCH  14  15
ATOM     15  O   UNL     1      -1.783  -0.174   3.378  0.00  0.00    -0.382 OA
ATOM     16  H   UNL     1      -1.791  -0.629   4.235  0.00  0.00    +0.210 HD
ENDBRANCH  14  15
ENDBRANCH   2  14
ENDBRANCH   1   5
BRANCH   1  18
ATOM     17  N   UNL     1       1.645  -0.945  -0.241  0.00  0.00    -0.047 NA
ATOM     18  C   UNL     1       0.969   0.055  -0.714  0.00  0.00    +0.129 C 
BRANCH  17  19
ATOM     19  O   UNL     1       1.160  -2.161  -0.726  0.00  0.00    -0.205 OA
BRANCH  19  20
ATOM     20  S   UNL     1       2.008  -3.423  -0.133  0.00  0.00    +0.302 S 
ATOM     21  O   UNL     1       1.171  -4.709  -0.684  0.00  0.00    -0.103 OA
ATOM     22  O   UNL     1       1.895  -3.413   1.314  0.00  0.00    -0.011 OA
ATOM     23  O   UNL     1       3.310  -3.439  -0.774  0.00  0.00    -0.103 OA
ENDBRANCH  19  20
ENDBRANCH  17  19
BRANCH  18  24
ATOM     24  C   UNL     1       1.215   1.520  -0.405  0.00  0.00    +0.082 C 
BRANCH  24  25
ATOM     25  C   UNL     1       2.656   1.802  -0.057  0.00  0.00    -0.016 C 
ATOM     26  C   UNL     1       3.064   1.723   1.265  0.00  0.00    -0.004 C 
ATOM     27  C   UNL     1       3.546   2.135  -1.066  0.00  0.00    -0.004 C 
ATOM     28  C   UNL     1       4.396   1.984   1.587  0.00  0.00    -0.000 C 
ATOM     29  C   UNL     1       4.879   2.395  -0.745  0.00  0.00    -0.000 C 
ATOM     30  C   UNL     1       5.304   2.320   0.582  0.00  0.00    -0.000 C 
ENDBRANCH  24  25
ENDBRANCH  18  24
ENDBRANCH   1  18
TORSDOF 11
