REMARK  Name = 378
REMARK  5 active torsions:
REMARK  status: ('A' for Active; 'I' for Inactive)
REMARK    1  A    between atoms: C_1  and  O_10
REMARK    2  A    between atoms: C_2  and  N_9
REMARK    3  A    between atoms: O_10  and  P_11
REMARK    4  A    between atoms: P_11  and  O_13
REMARK    5  A    between atoms: P_11  and  O_15
REMARK                            x       y       z     vdW  Elec       q    Type
REMARK                         _______ _______ _______ _____ _____    ______ ____
ROOT
ATOM      1  C   UNL     1       0.650   0.593   0.045  0.00  0.00    +0.149 C 
ATOM      2  C   UNL     1      -2.080   0.018   0.003  0.00  0.00    +0.143 C 
ATOM      3  C   UNL     1      -0.282   1.631   0.046  0.00  0.00    +0.039 C 
ATOM      4  C   UNL     1       0.217  -0.733   0.024  0.00  0.00    +0.039 C 
ATOM      5  C   UNL     1      -1.647   1.344   0.025  0.00  0.00    +0.027 C 
ATOM      6  C   UNL     1      -1.148  -1.020   0.003  0.00  0.00    +0.027 C 
ENDROOT
BRANCH   2   9
ATOM      7  O   UNL     1      -4.291   0.672  -0.016  0.00  0.00    -0.126 OA
ATOM      8  O   UNL     1      -3.836  -1.476  -0.037  0.00  0.00    -0.126 OA
ATOM      9  N   UNL     1      -3.469  -0.276  -0.018  0.00  0.00    +0.058 N 
ENDBRANCH   2   9
BRANCH   1  10
ATOM     10  O   UNL     1       1.982   0.875   0.066  0.00  0.00    -0.403 OA
BRANCH  10  11
ATOM     11  P   UNL     1       3.168  -0.227   0.068  0.00  0.00    +0.528 P 
ATOM     12  O   UNL     1       3.161  -1.174   1.232  0.00  0.00    -0.216 OA
BRANCH  11  13
ATOM     13  O   UNL     1       3.073  -0.912  -1.394  0.00  0.00    -0.293 OA
ATOM     14  H   UNL     1       3.085  -0.223  -2.076  0.00  0.00    +0.223 HD
ENDBRANCH  11  13
BRANCH  11  15
ATOM     15  O   UNL     1       4.501   0.684  -0.045  0.00  0.00    -0.293 OA
ATOM     16  H   UNL     1       4.430   1.266  -0.818  0.00  0.00    +0.223 HD
ENDBRANCH  11  15
ENDBRANCH  10  11
ENDBRANCH   1  10
TORSDOF 5
