REMARK  Name = 71113
REMARK  5 active torsions:
REMARK  status: ('A' for Active; 'I' for Inactive)
REMARK    1  A    between atoms: C_1  and  C_4
REMARK    2  A    between atoms: C_1  and  C_7
REMARK    3  A    between atoms: C_1  and  C_10
REMARK    4  A    between atoms: C_7  and  C_8
REMARK    5  A    between atoms: C_10  and  C_11
REMARK                            x       y       z     vdW  Elec       q    Type
REMARK                         _______ _______ _______ _____ _____    ______ ____
ROOT
ATOM      1  C   UNL     1       0.022   0.146   0.709  0.00  0.00    +0.076 C 
ENDROOT
BRANCH   1   4
ATOM      2  O   UNL     1       0.223   1.415  -1.359  0.00  0.00    -0.275 OA
ATOM      3  N   UNL     1      -0.275   2.554   0.571  0.00  0.00    -0.329 N 
ATOM      4  C   UNL     1       0.012   1.413  -0.148  0.00  0.00    +0.219 C 
ATOM      5  H   UNL     1      -0.307   3.426   0.116  0.00  0.00    +0.145 HD
ATOM      6  H   UNL     1      -0.447   2.496   1.538  0.00  0.00    +0.145 HD
ENDBRANCH   1   4
BRANCH   1   7
ATOM      7  C   UNL     1       1.012  -0.906   0.179  0.00  0.00    +0.009 C 
BRANCH   7   8
ATOM      8  C   UNL     1       2.460  -0.403   0.199  0.00  0.00    +0.000 C 
ATOM      9  C   UNL     1       3.429  -1.482  -0.259  0.00  0.00    +0.000 C 
ENDBRANCH   7   8
ENDBRANCH   1   7
BRANCH   1  10
ATOM     10  C   UNL     1      -1.409  -0.417   0.842  0.00  0.00    +0.009 C 
BRANCH  10  11
ATOM     11  C   UNL     1      -2.048  -0.856  -0.480  0.00  0.00    +0.000 C 
ATOM     12  C   UNL     1      -3.425  -1.464  -0.253  0.00  0.00    +0.000 C 
ENDBRANCH  10  11
ENDBRANCH   1  10
TORSDOF 5
