REMARK  Name = 445913
REMARK  5 active torsions:
REMARK  status: ('A' for Active; 'I' for Inactive)
REMARK    1  A    between atoms: C_3  and  O_8
REMARK    2  A    between atoms: C_4  and  O_10
REMARK    3  A    between atoms: C_5  and  C_14
REMARK    4  A    between atoms: C_7  and  O_12
REMARK    5  A    between atoms: C_14  and  O_15
REMARK                            x       y       z     vdW  Elec       q    Type
REMARK                         _______ _______ _______ _____ _____    ______ ____
ROOT
ATOM      1  F   UNL     1       1.827   0.617   1.186  0.00  0.00    -0.229 F 
ATOM      2  O   UNL     1      -0.686   1.124   0.090  0.00  0.00    -0.326 OA
ATOM      3  C   UNL     1      -0.122  -1.252   0.152  0.00  0.00    +0.170 C 
ATOM      4  C   UNL     1       1.242  -0.937  -0.465  0.00  0.00    +0.177 C 
ATOM      5  C   UNL     1      -1.151  -0.186  -0.250  0.00  0.00    +0.176 C 
ATOM      6  C   UNL     1       1.644   0.499  -0.164  0.00  0.00    +0.246 C 
ATOM      7  C   UNL     1       0.537   1.465  -0.566  0.00  0.00    +0.268 C 
ENDROOT
BRANCH   3   8
ATOM      8  O   UNL     1      -0.565  -2.527  -0.304  0.00  0.00    -0.379 OA
ATOM      9  H   UNL     1       0.083  -3.203  -0.052  0.00  0.00    +0.211 HD
ENDBRANCH   3   8
BRANCH   4  10
ATOM     10  O   UNL     1       2.216  -1.829   0.066  0.00  0.00    -0.379 OA
ATOM     11  H   UNL     1       1.957  -2.744  -0.127  0.00  0.00    +0.211 HD
ENDBRANCH   4  10
BRANCH   7  12
ATOM     12  O   UNL     1       0.920   2.801  -0.254  0.00  0.00    -0.358 OA
ATOM     13  H   UNL     1       0.211   3.410  -0.513  0.00  0.00    +0.213 HD
ENDBRANCH   7  12
BRANCH   5  14
ATOM     14  C   UNL     1      -2.485  -0.397   0.458  0.00  0.00    +0.169 C 
BRANCH  14  15
ATOM     15  O   UNL     1      -3.378   0.623   0.050  0.00  0.00    -0.379 OA
ATOM     16  H   UNL     1      -4.232   0.500   0.494  0.00  0.00    +0.211 HD
ENDBRANCH  14  15
ENDBRANCH   5  14
TORSDOF 5
