REMARK  Name = 132881
REMARK  11 active torsions:
REMARK  status: ('A' for Active; 'I' for Inactive)
REMARK    1  A    between atoms: C_1  and  O_22
REMARK    2  A    between atoms: C_4  and  C_7
REMARK    3  A    between atoms: C_10  and  C_15
REMARK    4  A    between atoms: N_14  and  C_15
REMARK    5  A    between atoms: N_14  and  C_19
REMARK    6  A    between atoms: C_19  and  O_20
REMARK    7  A    between atoms: O_22  and  C_23
REMARK    8  A    between atoms: C_23  and  C_27
REMARK    9  A    between atoms: C_26  and  C_31
REMARK   10  A    between atoms: C_31  and  C_33
REMARK   11  A    between atoms: C_33  and  O_34
REMARK                            x       y       z     vdW  Elec       q    Type
REMARK                         _______ _______ _______ _____ _____    ______ ____
ROOT
ATOM      1  C   UNL     1       1.536   2.232  -0.365  0.00  0.00    +0.139 C 
ATOM      2  C   UNL     1       0.803   2.656   0.743  0.00  0.00    +0.037 C 
ATOM      3  C   UNL     1       0.944   1.404  -1.318  0.00  0.00    +0.037 C 
ATOM      4  C   UNL     1      -1.116   1.424  -0.056  0.00  0.00    +0.000 C 
ATOM      5  C   UNL     1      -0.523   2.252   0.898  0.00  0.00    +0.003 C 
ATOM      6  C   UNL     1      -0.382   1.000  -1.164  0.00  0.00    +0.003 C 
ENDROOT
BRANCH   4   7
ATOM      7  C   UNL     1      -2.491   1.007   0.105  0.00  0.00    +0.000 C 
ATOM      8  C   UNL     1      -3.033   0.862   1.383  0.00  0.00    +0.000 C 
ATOM      9  C   UNL     1      -3.277   0.750  -1.018  0.00  0.00    +0.000 C 
ATOM     10  C   UNL     1      -5.146   0.205   0.413  0.00  0.00    +0.031 C 
ATOM     11  C   UNL     1      -4.360   0.461   1.537  0.00  0.00    +0.003 C 
ATOM     12  C   UNL     1      -4.604   0.349  -0.864  0.00  0.00    +0.003 C 
BRANCH  10  14
ATOM     13  N   UNL     1      -7.244   0.214   1.700  0.00  0.00    -0.385 N 
ATOM     14  C   UNL     1      -6.529  -0.213   0.573  0.00  0.00    +0.129 C 
ATOM     15  H   UNL     1      -8.181  -0.060   1.822  0.00  0.00    +0.157 HD
ATOM     16  H   UNL     1      -6.808   0.790   2.370  0.00  0.00    +0.157 HD
BRANCH  14  17
ATOM     17  N   UNL     1      -7.051  -0.999  -0.358  0.00  0.00    -0.126 NA
BRANCH  17  19
ATOM     18  O   UNL     1      -9.296  -0.824   0.214  0.00  0.00    -0.224 OA
ATOM     19  C   UNL     1      -8.355  -1.425  -0.294  0.00  0.00    +0.427 C 
BRANCH  19  20
ATOM     20  O   UNL     1      -8.464  -2.632  -0.928  0.00  0.00    -0.429 OA
ATOM     21  C   UNL     1      -9.780  -3.194  -0.979  0.00  0.00    +0.257 C 
ENDBRANCH  19  20
ENDBRANCH  17  19
ENDBRANCH  14  17
ENDBRANCH  10  14
ENDBRANCH   4   7
BRANCH   1  22
ATOM     22  O   UNL     1       2.842   2.629  -0.516  0.00  0.00    -0.474 OA
BRANCH  22  23
ATOM     23  C   UNL     1       3.709   1.740  -1.198  0.00  0.00    +0.225 C 
BRANCH  23  27
ATOM     24  O   UNL     1       5.952  -0.296   1.979  0.00  0.00    -0.275 OA
ATOM     25  N   UNL     1       5.202   1.537   0.731  0.00  0.00    -0.302 N 
ATOM     26  C   UNL     1       6.092  -0.269  -0.461  0.00  0.00    +0.089 C 
ATOM     27  C   UNL     1       5.120   1.923  -0.656  0.00  0.00    +0.116 C 
ATOM     28  C   UNL     1       6.136   1.000  -1.320  0.00  0.00    +0.033 C 
ATOM     29  C   UNL     1       5.773   0.280   0.917  0.00  0.00    +0.223 C 
ATOM     30  H   UNL     1       4.887   2.104   1.472  0.00  0.00    +0.149 HD
BRANCH  26  31
ATOM     31  C   UNL     1       7.386  -1.060  -0.495  0.00  0.00    +0.119 C 
BRANCH  31  33
ATOM     32  O   UNL     1       6.157  -2.938   0.439  0.00  0.00    -0.250 OA
ATOM     33  C   UNL     1       7.207  -2.469   0.021  0.00  0.00    +0.318 C 
BRANCH  33  34
ATOM     34  O   UNL     1       8.402  -3.125  -0.058  0.00  0.00    -0.444 OA
ATOM     35  C   UNL     1       8.392  -4.482   0.399  0.00  0.00    +0.256 C 
ENDBRANCH  33  34
ENDBRANCH  31  33
ENDBRANCH  26  31
ENDBRANCH  23  27
ENDBRANCH  22  23
ENDBRANCH   1  22
TORSDOF 11
