REMARK  Name = 135
REMARK  3 active torsions:
REMARK  status: ('A' for Active; 'I' for Inactive)
REMARK    1  A    between atoms: C_1  and  C_10
REMARK    2  A    between atoms: C_4  and  O_7
REMARK    3  A    between atoms: C_10  and  O_11
REMARK                            x       y       z     vdW  Elec       q    Type
REMARK                         _______ _______ _______ _____ _____    ______ ____
ROOT
ATOM      1  C   UNL     1      -0.692   0.035   0.000  0.00  0.00    +0.076 C 
ATOM      2  C   UNL     1       0.023   1.233   0.000  0.00  0.00    +0.010 C 
ATOM      3  C   UNL     1      -0.012  -1.183   0.001  0.00  0.00    +0.010 C 
ATOM      4  C   UNL     1       2.098  -0.006   0.000  0.00  0.00    +0.134 C 
ATOM      5  C   UNL     1       1.418   1.212   0.000  0.00  0.00    +0.037 C 
ATOM      6  C   UNL     1       1.383  -1.203   0.001  0.00  0.00    +0.037 C 
ENDROOT
BRANCH   4   7
ATOM      7  O   UNL     1       3.459  -0.025  -0.001  0.00  0.00    -0.506 OA
ATOM      8  H   UNL     1       3.939   0.779  -0.001  0.00  0.00    +0.292 HD
ENDBRANCH   4   7
BRANCH   1  10
ATOM      9  O   UNL     1      -2.847   1.074   0.000  0.00  0.00    -0.245 OA
ATOM     10  C   UNL     1      -2.146   0.057   0.000  0.00  0.00    +0.338 C 
BRANCH  10  11
ATOM     11  O   UNL     1      -2.684  -1.194  -0.001  0.00  0.00    -0.477 OA
ATOM     12  H   UNL     1      -2.125  -1.945  -0.001  0.00  0.00    +0.295 HD
ENDBRANCH  10  11
ENDBRANCH   1  10
TORSDOF 3
