REMARK  Name = 9933475
REMARK  8 active torsions:
REMARK  status: ('A' for Active; 'I' for Inactive)
REMARK    1  A    between atoms: C_3  and  O_13
REMARK    2  A    between atoms: C_4  and  O_11
REMARK    3  A    between atoms: C_9  and  O_23
REMARK    4  A    between atoms: O_13  and  C_14
REMARK    5  A    between atoms: C_14  and  C_15
REMARK    6  A    between atoms: C_15  and  C_16
REMARK    7  A    between atoms: C_16  and  N_17
REMARK    8  A    between atoms: O_23  and  C_31
REMARK                            x       y       z     vdW  Elec       q    Type
REMARK                         _______ _______ _______ _____ _____    ______ ____
ROOT
ATOM      1  N   UNL     1       0.444  -1.282  -1.765  0.00  0.00    -0.248 NA
ATOM      2  N   UNL     1      -1.748  -1.062  -0.789  0.00  0.00    -0.214 NA
ATOM      3  C   UNL     1       2.610   1.399  -0.544  0.00  0.00    +0.173 C 
ATOM      4  C   UNL     1       1.756   2.095   0.297  0.00  0.00    +0.169 C 
ATOM      5  C   UNL     1       2.167   0.270  -1.232  0.00  0.00    +0.055 C 
ATOM      6  C   UNL     1      -0.001   0.517  -0.244  0.00  0.00    +0.141 C 
ATOM      7  C   UNL     1       0.860  -0.192  -1.097  0.00  0.00    +0.072 C 
ATOM      8  C   UNL     1       0.445   1.656   0.450  0.00  0.00    +0.029 C 
ATOM      9  C   UNL     1      -1.299   0.026  -0.135  0.00  0.00    +0.213 C 
ATOM     10  C   UNL     1      -0.837  -1.658  -1.575  0.00  0.00    +0.253 C 
ENDROOT
BRANCH   4  11
ATOM     11  O   UNL     1       2.180   3.199   0.972  0.00  0.00    -0.469 OA
ATOM     12  C   UNL     1       1.230   3.850   1.814  0.00  0.00    +0.253 C 
ENDBRANCH   4  11
BRANCH   3  13
ATOM     13  O   UNL     1       3.906   1.814  -0.712  0.00  0.00    -0.472 OA
BRANCH  13  14
ATOM     14  C   UNL     1       4.869   0.810  -0.999  0.00  0.00    +0.203 C 
BRANCH  14  15
ATOM     15  C   UNL     1       6.220   1.254  -0.455  0.00  0.00    +0.025 C 
BRANCH  15  16
ATOM     16  C   UNL     1       7.300   0.209  -0.718  0.00  0.00    -0.074 C 
BRANCH  16  17
ATOM     17  N   UNL     1       6.940  -1.057  -0.097  0.00  0.00    +0.387 N 
ATOM     18  C   UNL     1       7.929  -2.104  -0.349  0.00  0.00    -0.077 C 
ATOM     19  C   UNL     1       6.853  -0.959   1.360  0.00  0.00    -0.077 C 
ATOM     20  C   UNL     1       7.570  -3.167   0.678  0.00  0.00    -0.025 C 
ATOM     21  C   UNL     1       6.859  -2.416   1.800  0.00  0.00    -0.025 C 
ATOM     22  H   UNL     1       6.037  -1.287  -0.511  0.00  0.00    -0.080 HD
ENDBRANCH  16  17
ENDBRANCH  15  16
ENDBRANCH  14  15
ENDBRANCH  13  14
ENDBRANCH   3  13
BRANCH   9  23
ATOM     23  O   UNL     1      -2.212   0.650   0.675  0.00  0.00    -0.437 OA
BRANCH  23  31
ATOM     24  F   UNL     1      -4.152   1.479  -1.084  0.00  0.00    -0.201 F 
ATOM     25  N   UNL     1      -7.314  -1.357   0.727  0.00  0.00    -0.316 N 
ATOM     26  C   UNL     1      -5.736  -0.013  -0.097  0.00  0.00    +0.045 C 
ATOM     27  C   UNL     1      -5.997  -0.983   0.873  0.00  0.00    +0.050 C 
ATOM     28  C   UNL     1      -7.892  -0.660  -0.299  0.00  0.00    +0.026 C 
ATOM     29  C   UNL     1      -6.940   0.180  -0.830  0.00  0.00    +0.014 C 
ATOM     30  C   UNL     1      -4.444   0.545  -0.167  0.00  0.00    +0.176 C 
ATOM     31  C   UNL     1      -3.480   0.107   0.735  0.00  0.00    +0.174 C 
ATOM     32  C   UNL     1      -5.028  -1.424   1.781  0.00  0.00    +0.018 C 
ATOM     33  C   UNL     1      -3.754  -0.856   1.693  0.00  0.00    +0.041 C 
ATOM     34  C   UNL     1      -9.304  -0.871  -0.669  0.00  0.00    +0.047 C 
ATOM     35  H   UNL     1      -7.773  -2.030   1.280  0.00  0.00    +0.152 HD
ENDBRANCH  23  31
ENDBRANCH   9  23
TORSDOF 8
