REMARK  Name = 114705
REMARK  1 active torsions:
REMARK  status: ('A' for Active; 'I' for Inactive)
REMARK    1  A    between atoms: C_1  and  C_8
REMARK                            x       y       z     vdW  Elec       q    Type
REMARK                         _______ _______ _______ _____ _____    ______ ____
ROOT
ATOM      1  C   UNL     1       0.227   0.156   0.244  0.00  0.00    +0.007 C 
ATOM      2  C   UNL     1      -0.609   1.270   0.154  0.00  0.00    -0.002 C 
ATOM      3  C   UNL     1      -0.304  -1.126   0.110  0.00  0.00    -0.002 C 
ATOM      4  C   UNL     1      -1.975   1.101  -0.069  0.00  0.00    -0.000 C 
ATOM      5  C   UNL     1      -1.671  -1.296  -0.115  0.00  0.00    -0.000 C 
ATOM      6  C   UNL     1      -2.506  -0.182  -0.204  0.00  0.00    -0.000 C 
ENDROOT
BRANCH   1   8
ATOM      7  O   UNL     1       2.537  -0.736   0.079  0.00  0.00    -0.346 OA
ATOM      8  C   UNL     1       1.687   0.337   0.483  0.00  0.00    +0.167 C 
ATOM      9  C   UNL     1       2.614   0.477  -0.681  0.00  0.00    +0.177 C 
ENDBRANCH   1   8
TORSDOF 1
