REMARK  Name = 448302
REMARK  1 active torsions:
REMARK  status: ('A' for Active; 'I' for Inactive)
REMARK    1  A    between atoms: C_5  and  O_11
REMARK                            x       y       z     vdW  Elec       q    Type
REMARK                         _______ _______ _______ _____ _____    ______ ____
ROOT
ATOM      1  F   UNL     1      -2.517  -0.767   0.148  0.00  0.00    -0.203 F 
ATOM      2  O   UNL     1       2.808   0.190  -0.025  0.00  0.00    -0.252 OA
ATOM      3  N   UNL     1       0.703   1.037   0.322  0.00  0.00    -0.262 N 
ATOM      4  N   UNL     1       1.012  -1.227  -0.216  0.00  0.00    -0.266 N 
ATOM      5  C   UNL     1      -0.747   0.913   0.386  0.00  0.00    +0.242 C 
ATOM      6  C   UNL     1      -1.196  -0.482   0.108  0.00  0.00    +0.179 C 
ATOM      7  C   UNL     1       1.589   0.012   0.022  0.00  0.00    +0.306 C 
ATOM      8  C   UNL     1      -0.334  -1.462  -0.170  0.00  0.00    +0.095 C 
ATOM      9  H   UNL     1       1.088   1.924   0.508  0.00  0.00    +0.154 HD
ATOM     10  H   UNL     1       1.607  -1.981  -0.432  0.00  0.00    +0.157 HD
ENDROOT
BRANCH   5  11
ATOM     11  O   UNL     1      -1.319   1.786  -0.577  0.00  0.00    -0.362 OA
ATOM     12  H   UNL     1      -1.029   2.695  -0.401  0.00  0.00    +0.213 HD
ENDBRANCH   5  11
TORSDOF 1
