REMARK  Name = 153241
REMARK  8 active torsions:
REMARK  status: ('A' for Active; 'I' for Inactive)
REMARK    1  A    between atoms: N_2  and  C_9
REMARK    2  A    between atoms: N_3  and  C_24
REMARK    3  A    between atoms: C_7  and  C_13
REMARK    4  A    between atoms: C_13  and  N_15
REMARK    5  A    between atoms: C_16  and  O_18
REMARK    6  A    between atoms: O_18  and  C_20
REMARK    7  A    between atoms: C_25  and  C_32
REMARK    8  A    between atoms: C_26  and  O_35
REMARK                            x       y       z     vdW  Elec       q    Type
REMARK                         _______ _______ _______ _____ _____    ______ ____
ROOT
ATOM      1  O   UNL     1      -0.091  -1.007   0.634  0.00  0.00    -0.252 OA
ATOM      2  N   UNL     1      -0.830  -2.789  -0.696  0.00  0.00    -0.268 N 
ATOM      3  N   UNL     1       1.382  -2.133  -0.791  0.00  0.00    -0.268 N 
ATOM      4  C   UNL     1       0.136  -1.881  -0.196  0.00  0.00    +0.308 C 
ATOM      5  H   UNL     1      -0.503  -3.438  -1.360  0.00  0.00    +0.156 HD
ATOM      6  H   UNL     1       1.409  -2.871  -1.442  0.00  0.00    +0.156 HD
ENDROOT
BRANCH   2   9
ATOM      7  C   UNL     1      -4.093  -2.114   0.876  0.00  0.00    -0.001 C 
ATOM      8  C   UNL     1      -2.743  -2.010   0.559  0.00  0.00    +0.012 C 
ATOM      9  C   UNL     1      -2.184  -2.886  -0.371  0.00  0.00    +0.051 C 
ATOM     10  C   UNL     1      -4.891  -3.081   0.275  0.00  0.00    -0.003 C 
ATOM     11  C   UNL     1      -2.978  -3.859  -0.979  0.00  0.00    +0.015 C 
ATOM     12  C   UNL     1      -4.331  -3.956  -0.656  0.00  0.00    +0.001 C 
BRANCH   7  13
ATOM     13  C   UNL     1      -4.695  -1.173   1.878  0.00  0.00    +0.119 C 
BRANCH  13  15
ATOM     14  O   UNL     1      -3.290   1.320   1.380  0.00  0.00    -0.226 OA
ATOM     15  N   UNL     1      -5.210   0.024   1.254  0.00  0.00    -0.267 N 
ATOM     16  C   UNL     1      -4.463   1.167   1.059  0.00  0.00    +0.402 C 
ATOM     17  H   UNL     1      -6.147   0.024   0.952  0.00  0.00    +0.153 HD
BRANCH  16  18
ATOM     18  O   UNL     1      -5.227   2.126   0.446  0.00  0.00    -0.436 OA
BRANCH  18  20
ATOM     19  O   UNL     1      -5.390   3.957  -1.968  0.00  0.00    -0.350 OA
ATOM     20  C   UNL     1      -4.581   3.367   0.180  0.00  0.00    +0.202 C 
ATOM     21  C   UNL     1      -3.472   3.167  -0.823  0.00  0.00    +0.078 C 
ATOM     22  C   UNL     1      -5.538   4.269  -0.572  0.00  0.00    +0.186 C 
ATOM     23  C   UNL     1      -4.232   3.128  -2.134  0.00  0.00    +0.146 C 
ENDBRANCH  18  20
ENDBRANCH  16  18
ENDBRANCH  13  15
ENDBRANCH   7  13
ENDBRANCH   2   9
BRANCH   3  24
ATOM     24  C   UNL     1       2.605  -1.456  -0.571  0.00  0.00    +0.055 C 
ATOM     25  C   UNL     1       4.999  -0.130  -0.140  0.00  0.00    +0.070 C 
ATOM     26  C   UNL     1       3.851   0.261   0.549  0.00  0.00    +0.143 C 
ATOM     27  C   UNL     1       2.645  -0.406   0.332  0.00  0.00    +0.052 C 
ATOM     28  C   UNL     1       3.736  -1.857  -1.263  0.00  0.00    +0.015 C 
ATOM     29  C   UNL     1       4.941  -1.189  -1.046  0.00  0.00    +0.007 C 
BRANCH  25  32
ATOM     30  O   UNL     1       7.100   0.577  -0.992  0.00  0.00    -0.431 OA
ATOM     31  N   UNL     1       8.079   1.661   0.735  0.00  0.00    -0.203 NA
ATOM     32  C   UNL     1       6.257   0.548   0.070  0.00  0.00    +0.169 C 
ATOM     33  C   UNL     1       6.845   1.200   1.114  0.00  0.00    +0.140 C 
ATOM     34  C   UNL     1       8.174   1.264  -0.514  0.00  0.00    +0.285 C 
ENDBRANCH  25  32
BRANCH  26  35
ATOM     35  O   UNL     1       3.879   1.293   1.440  0.00  0.00    -0.471 OA
ATOM     36  C   UNL     1       3.609   2.596   0.929  0.00  0.00    +0.252 C 
ENDBRANCH  26  35
ENDBRANCH   3  24
TORSDOF 8
