REMARK  Name = 4369103
REMARK  5 active torsions:
REMARK  status: ('A' for Active; 'I' for Inactive)
REMARK    1  A    between atoms: N_5  and  C_20
REMARK    2  A    between atoms: C_6  and  O_18
REMARK    3  A    between atoms: C_11  and  S_12
REMARK    4  A    between atoms: S_12  and  N_15
REMARK    5  A    between atoms: C_20  and  C_22
REMARK                            x       y       z     vdW  Elec       q    Type
REMARK                         _______ _______ _______ _____ _____    ______ ____
ROOT
ATOM      1  S   UNL     1      -0.302  -1.716  -0.017  0.00  0.00    +0.069 S 
ATOM      2  S   UNL     1       2.614  -1.214  -0.363  0.00  0.00    -0.048 S 
ATOM      3  O   UNL     1      -0.132  -2.655   1.073  0.00  0.00    -0.152 OA
ATOM      4  O   UNL     1      -0.384  -2.139  -1.400  0.00  0.00    -0.152 OA
ATOM      5  N   UNL     1      -1.595  -0.621   0.341  0.00  0.00    -0.147 NA
ATOM      6  C   UNL     1      -0.171   1.339   1.017  0.00  0.00    +0.152 C 
ATOM      7  C   UNL     1      -1.303   0.373   1.437  0.00  0.00    +0.130 C 
ATOM      8  C   UNL     1       1.085   0.646   0.564  0.00  0.00    +0.032 C 
ATOM      9  C   UNL     1       1.089  -0.648   0.093  0.00  0.00    +0.151 C 
ATOM     10  C   UNL     1       2.405   1.190   0.534  0.00  0.00    +0.027 C 
ATOM     11  C   UNL     1       3.332   0.288   0.050  0.00  0.00    +0.152 C 
ENDROOT
BRANCH  11  12
ATOM     12  S   UNL     1       5.066   0.372  -0.217  0.00  0.00    +0.063 S 
ATOM     13  O   UNL     1       5.607   1.390   0.667  0.00  0.00    -0.153 OA
ATOM     14  O   UNL     1       5.594  -0.981  -0.185  0.00  0.00    -0.153 OA
BRANCH  12  15
ATOM     15  N   UNL     1       5.109   0.948  -1.823  0.00  0.00    -0.203 NA
ATOM     16  H   UNL     1       6.079   1.048  -2.123  0.00  0.00    +0.144 HD
ATOM     17  H   UNL     1       4.642   1.853  -1.872  0.00  0.00    +0.144 HD
ENDBRANCH  12  15
ENDBRANCH  11  12
BRANCH   6  18
ATOM     18  O   UNL     1      -0.684   2.194  -0.008  0.00  0.00    -0.379 OA
ATOM     19  H   UNL     1      -1.492   2.629   0.307  0.00  0.00    +0.211 HD
ENDBRANCH   6  18
BRANCH   5  20
ATOM     20  C   UNL     1      -2.942  -1.228   0.458  0.00  0.00    +0.129 C 
BRANCH  20  22
ATOM     21  S   UNL     1      -3.990   0.293  -1.593  0.00  0.00    -0.089 S 
ATOM     22  C   UNL     1      -4.023  -0.287   0.007  0.00  0.00    +0.025 C 
ATOM     23  C   UNL     1      -5.074   0.188   0.734  0.00  0.00    +0.004 C 
ATOM     24  C   UNL     1      -5.888   1.062  -0.042  0.00  0.00    +0.007 C 
ATOM     25  C   UNL     1      -5.413   1.207  -1.327  0.00  0.00    +0.035 C 
ENDBRANCH  20  22
ENDBRANCH   5  20
TORSDOF 5
