REMARK  Name = 444569
REMARK  5 active torsions:
REMARK  status: ('A' for Active; 'I' for Inactive)
REMARK    1  A    between atoms: CA_1  and  N_2
REMARK    2  A    between atoms: CA_1  and  CB_6
REMARK    3  A    between atoms: CA_1  and  C_13
REMARK    4  A    between atoms: CB_6  and  CG_7
REMARK    5  A    between atoms: C_13  and  O_14
REMARK                            x       y       z     vdW  Elec       q    Type
REMARK                         _______ _______ _______ _____ _____    ______ ____
ROOT
ATOM      1  CA  PHE A   1       1.942   0.471  -0.109  0.00  0.00    -0.036 C 
ENDROOT
BRANCH   1   2
ATOM      2  N   PHE A   1       1.929   1.395  -1.243  0.00  0.00    +0.383 N 
ATOM      3  H1  PHE A   1       0.992   1.784  -1.353  0.00  0.00    -0.089 HD
ATOM      4  H2  PHE A   1       2.191   0.894  -2.092  0.00  0.00    -0.089 HD
ATOM      5  H3  PHE A   1       2.593   2.149  -1.074  0.00  0.00    -0.089 HD
ENDBRANCH   1   2
BRANCH   1   6
ATOM      6  CB  PHE A   1       0.904  -0.651  -0.292  0.00  0.00    -0.019 C 
BRANCH   6   7
ATOM      7  CG  PHE A   1      -0.529  -0.141  -0.425  0.00  0.00    -0.002 C 
ATOM      8  CD1 PHE A   1      -1.515  -1.314  -0.523  0.00  0.00    -0.000 C 
ATOM      9  CD2 PHE A   1      -0.889   0.778   0.750  0.00  0.00    -0.000 C 
ATOM     10  CE1 PHE A   1      -2.961  -0.829  -0.603  0.00  0.00    -0.000 C 
ATOM     11  CE2 PHE A   1      -2.336   1.259   0.667  0.00  0.00    -0.000 C 
ATOM     12  CZ  PHE A   1      -3.312   0.091   0.561  0.00  0.00    -0.000 C 
ENDBRANCH   6   7
ENDBRANCH   1   6
BRANCH   1  13
ATOM     13  C   PHE A   1       3.354  -0.103   0.040  0.00  0.00    +0.115 C 
BRANCH  13  14
ATOM     14  O   PHE A   1       3.412  -0.954   1.178  0.00  0.00    -0.384 OA
ATOM     15  H   PHE A   1       4.308  -1.315   1.267  0.00  0.00    +0.210 HD
ENDBRANCH  13  14
ENDBRANCH   1  13
TORSDOF 5
