REMARK  Name = 17753965
REMARK  2 active torsions:
REMARK  status: ('A' for Active; 'I' for Inactive)
REMARK    1  A    between atoms: C_1  and  C_5
REMARK    2  A    between atoms: C_1  and  C_17
REMARK                            x       y       z     vdW  Elec       q    Type
REMARK                         _______ _______ _______ _____ _____    ______ ____
ROOT
ATOM      1  C   UNL     1       0.013  -0.226  -0.457  0.00  0.00    +0.038 C 
ENDROOT
BRANCH   1   5
ATOM      2  O   UNL     1      -3.191  -1.469  -1.081  0.00  0.00    -0.424 OA
ATOM      3  O   UNL     1      -1.554   1.018   1.727  0.00  0.00    -0.291 OA
ATOM      4  O   UNL     1      -1.332  -2.768  -1.160  0.00  0.00    -0.249 OA
ATOM      5  C   UNL     1      -1.205  -0.827   0.240  0.00  0.00    +0.162 C 
ATOM      6  C   UNL     1      -2.014   0.288   0.854  0.00  0.00    +0.186 C 
ATOM      7  C   UNL     1      -1.895  -1.772  -0.711  0.00  0.00    +0.328 C 
ATOM      8  C   UNL     1      -3.379   0.497   0.364  0.00  0.00    +0.070 C 
ATOM      9  C   UNL     1      -3.905  -0.371  -0.578  0.00  0.00    +0.151 C 
ATOM     10  C   UNL     1      -4.153   1.563   0.833  0.00  0.00    +0.006 C 
ATOM     11  C   UNL     1      -5.199  -0.195  -1.068  0.00  0.00    +0.038 C 
ATOM     12  C   UNL     1      -5.449   1.746   0.346  0.00  0.00    +0.000 C 
ATOM     13  C   UNL     1      -5.972   0.868  -0.604  0.00  0.00    +0.003 C 
ENDBRANCH   1   5
BRANCH   1  17
ATOM     14  O   UNL     1       3.056  -1.353   0.874  0.00  0.00    -0.424 OA
ATOM     15  O   UNL     1       1.625   2.248  -0.449  0.00  0.00    -0.291 OA
ATOM     16  O   UNL     1       1.033  -1.974   1.692  0.00  0.00    -0.249 OA
ATOM     17  C   UNL     1       1.107   0.132   0.548  0.00  0.00    +0.162 C 
ATOM     18  C   UNL     1       2.028   1.149  -0.076  0.00  0.00    +0.186 C 
ATOM     19  C   UNL     1       1.708  -1.142   1.089  0.00  0.00    +0.328 C 
ATOM     20  C   UNL     1       3.439   0.791  -0.242  0.00  0.00    +0.070 C 
ATOM     21  C   UNL     1       3.891  -0.432   0.225  0.00  0.00    +0.151 C 
ATOM     22  C   UNL     1       4.331   1.666  -0.870  0.00  0.00    +0.006 C 
ATOM     23  C   UNL     1       5.228  -0.804   0.076  0.00  0.00    +0.038 C 
ATOM     24  C   UNL     1       5.671   1.300  -1.022  0.00  0.00    +0.000 C 
ATOM     25  C   UNL     1       6.119   0.067  -0.550  0.00  0.00    +0.003 C 
ENDBRANCH   1  17
TORSDOF 2
