REMARK  Name = 5789
REMARK  4 active torsions:
REMARK  status: ('A' for Active; 'I' for Inactive)
REMARK    1  A    between atoms: N1_3  and  C1*_13
REMARK    2  A    between atoms: C3*_12  and  O3*_16
REMARK    3  A    between atoms: C4*_15  and  C5*_18
REMARK    4  A    between atoms: C5*_18  and  O5*_19
REMARK                            x       y       z     vdW  Elec       q    Type
REMARK                         _______ _______ _______ _____ _____    ______ ____
ROOT
ATOM      1  O2  T   A   1      -1.169   2.817  -0.379  0.00  0.00    -0.252 OA
ATOM      2  O4  T   A   1      -4.354  -0.444   0.228  0.00  0.00    -0.270 OA
ATOM      3  N1  T   A   1      -0.450   0.604  -0.185  0.00  0.00    -0.219 N 
ATOM      4  N3  T   A   1      -2.747   1.181  -0.075  0.00  0.00    -0.236 N 
ATOM      5  C6  T   A   1      -0.823  -0.722  -0.008  0.00  0.00    +0.071 C 
ATOM      6  C2  T   A   1      -1.427   1.621  -0.225  0.00  0.00    +0.315 C 
ATOM      7  C5  T   A   1      -2.087  -1.140   0.135  0.00  0.00    +0.047 C 
ATOM      8  C4  T   A   1      -3.174  -0.127   0.103  0.00  0.00    +0.250 C 
ATOM      9  C5M T   A   1      -2.467  -2.574   0.325  0.00  0.00    +0.037 C 
ATOM     10  H3  T   A   1      -3.447   1.872  -0.100  0.00  0.00    +0.159 HD
ENDROOT
BRANCH   3  13
ATOM     11  O4* T   A   1       1.602  -0.176  -0.995  0.00  0.00    -0.335 OA
ATOM     12  C3* T   A   1       3.035   0.591   0.731  0.00  0.00    +0.144 C 
ATOM     13  C1* T   A   1       0.944   0.909  -0.325  0.00  0.00    +0.202 C 
ATOM     14  C2* T   A   1       1.642   1.106   1.011  0.00  0.00    +0.083 C 
ATOM     15  C4* T   A   1       2.793  -0.533  -0.267  0.00  0.00    +0.173 C 
BRANCH  12  16
ATOM     16  O3* T   A   1       3.815   1.619   0.125  0.00  0.00    -0.382 OA
ATOM     17  H3* T   A   1       3.965   2.331   0.766  0.00  0.00    +0.210 HD
ENDBRANCH  12  16
BRANCH  15  18
ATOM     18  C5* T   A   1       2.546  -1.878   0.403  0.00  0.00    +0.169 C 
BRANCH  18  19
ATOM     19  O5* T   A   1       2.321  -2.855  -0.601  0.00  0.00    -0.379 OA
ATOM     20  H5* T   A   1       2.163  -3.717  -0.183  0.00  0.00    +0.211 HD
ENDBRANCH  18  19
ENDBRANCH  15  18
ENDBRANCH   3  13
TORSDOF 4
