REMARK  Name = 17429
REMARK  0 active torsions:
REMARK  status: ('A' for Active; 'I' for Inactive)
REMARK                            x       y       z     vdW  Elec       q    Type
REMARK                         _______ _______ _______ _____ _____    ______ ____
ROOT
ATOM      1  O   UNL     1       2.804   0.353  -0.272  0.00  0.00    -0.265 OA
ATOM      2  N   UNL     1       0.592  -0.245   0.207  0.00  0.00    -0.272 N 
ATOM      3  C   UNL     1      -2.224   0.296  -0.041  0.00  0.00    +0.004 C 
ATOM      4  C   UNL     1      -1.182   1.394  -0.258  0.00  0.00    +0.022 C 
ATOM      5  C   UNL     1      -1.647  -1.079  -0.379  0.00  0.00    +0.022 C 
ATOM      6  C   UNL     1       0.103   1.097   0.509  0.00  0.00    +0.094 C 
ATOM      7  C   UNL     1      -0.355  -1.342   0.389  0.00  0.00    +0.094 C 
ATOM      8  C   UNL     1       1.908  -0.475  -0.155  0.00  0.00    +0.303 C 
ENDROOT
TORSDOF 0
