REMARK  Name = 177236
REMARK  10 active torsions:
REMARK  status: ('A' for Active; 'I' for Inactive)
REMARK    1  A    between atoms: C_1  and  C_3
REMARK    2  A    between atoms: C_1  and  O_6
REMARK    3  A    between atoms: C_1  and  C_17
REMARK    4  A    between atoms: C_3  and  O_4
REMARK    5  A    between atoms: O_6  and  C_9
REMARK    6  A    between atoms: C_10  and  O_13
REMARK    7  A    between atoms: C_11  and  O_15
REMARK    8  A    between atoms: C_17  and  C_18
REMARK    9  A    between atoms: C_17  and  C_24
REMARK   10  A    between atoms: C_17  and  O_30
REMARK                            x       y       z     vdW  Elec       q    Type
REMARK                         _______ _______ _______ _____ _____    ______ ____
ROOT
ATOM      1  C   UNL     1      -0.159   0.747  -0.538  0.00  0.00    +0.311 C 
ENDROOT
BRANCH   1   3
ATOM      2  O   UNL     1      -0.081   2.934   0.512  0.00  0.00    -0.246 OA
ATOM      3  C   UNL     1      -0.071   2.270  -0.517  0.00  0.00    +0.359 C 
BRANCH   3   4
ATOM      4  O   UNL     1       0.048   2.824  -1.749  0.00  0.00    -0.478 OA
ATOM      5  H   UNL     1       0.050   2.278  -2.510  0.00  0.00    +0.295 HD
ENDBRANCH   3   4
ENDBRANCH   1   3
BRANCH   1   6
ATOM      6  O   UNL     1       0.528   0.221   0.588  0.00  0.00    -0.388 OA
BRANCH   6   9
ATOM      7  N   UNL     1       2.442  -0.940   1.179  0.00  0.00    -0.277 NA
ATOM      8  N   UNL     1       2.526   0.920  -0.350  0.00  0.00    -0.277 NA
ATOM      9  C   UNL     1       1.884   0.061   0.467  0.00  0.00    +0.316 C 
ATOM     10  C   UNL     1       3.777  -1.069   1.037  0.00  0.00    +0.277 C 
ATOM     11  C   UNL     1       3.859   0.735  -0.445  0.00  0.00    +0.277 C 
ATOM     12  C   UNL     1       4.545  -0.253   0.232  0.00  0.00    +0.199 C 
BRANCH  10  13
ATOM     13  O   UNL     1       4.385  -2.074   1.743  0.00  0.00    -0.450 OA
ATOM     14  C   UNL     1       3.544  -2.884   2.557  0.00  0.00    +0.255 C 
ENDBRANCH  10  13
BRANCH  11  15
ATOM     15  O   UNL     1       4.549   1.586  -1.266  0.00  0.00    -0.450 OA
ATOM     16  C   UNL     1       3.790   2.584  -1.938  0.00  0.00    +0.255 C 
ENDBRANCH  11  15
ENDBRANCH   6   9
ENDBRANCH   1   6
BRANCH   1  17
ATOM     17  C   UNL     1      -1.631   0.232  -0.606  0.00  0.00    +0.178 C 
BRANCH  17  18
ATOM     18  C   UNL     1      -2.405   0.673   0.649  0.00  0.00    +0.010 C 
ATOM     19  C   UNL     1      -3.380   1.628   0.508  0.00  0.00    -0.002 C 
ATOM     20  C   UNL     1      -2.083   0.092   1.849  0.00  0.00    -0.002 C 
ATOM     21  C   UNL     1      -4.082   2.028   1.646  0.00  0.00    -0.000 C 
ATOM     22  C   UNL     1      -2.784   0.492   2.986  0.00  0.00    -0.000 C 
ATOM     23  C   UNL     1      -3.784   1.460   2.885  0.00  0.00    -0.000 C 
ENDBRANCH  17  18
BRANCH  17  24
ATOM     24  C   UNL     1      -1.799  -1.274  -0.879  0.00  0.00    +0.010 C 
ATOM     25  C   UNL     1      -0.676  -2.062  -0.892  0.00  0.00    -0.002 C 
ATOM     26  C   UNL     1      -3.064  -1.758  -1.095  0.00  0.00    -0.002 C 
ATOM     27  C   UNL     1      -0.829  -3.426  -1.140  0.00  0.00    -0.000 C 
ATOM     28  C   UNL     1      -3.217  -3.122  -1.343  0.00  0.00    -0.000 C 
ATOM     29  C   UNL     1      -2.100  -3.956  -1.365  0.00  0.00    -0.000 C 
ENDBRANCH  17  24
BRANCH  17  30
ATOM     30  O   UNL     1      -2.210   0.859  -1.771  0.00  0.00    -0.344 OA
ATOM     31  C   UNL     1      -1.520   0.472  -2.941  0.00  0.00    +0.175 C 
ENDBRANCH  17  30
ENDBRANCH   1  17
TORSDOF 10
