REMARK  Name = 1609
REMARK  0 active torsions:
REMARK  status: ('A' for Active; 'I' for Inactive)
REMARK                            x       y       z     vdW  Elec       q    Type
REMARK                         _______ _______ _______ _____ _____    ______ ____
ROOT
ATOM      1 CL   UNL     1       1.674  -2.634   0.001  0.00  0.00    -0.078 Cl
ATOM      2 CL   UNL     1       3.712  -0.173   0.001  0.00  0.00    -0.042 Cl
ATOM      3  O   UNL     1       1.553   1.388  -0.001  0.00  0.00    -0.409 OA
ATOM      4  O   UNL     1      -0.117   2.913   0.000  0.00  0.00    -0.244 OA
ATOM      5  C   UNL     1      -0.313  -0.706   0.000  0.00  0.00    +0.021 A 
ATOM      6  C   UNL     1      -0.741   0.630   0.000  0.00  0.00    +0.077 A 
ATOM      7  C   UNL     1      -1.296  -1.710  -0.001  0.00  0.00    +0.001 C 
ATOM      8  C   UNL     1       1.131  -0.990   0.000  0.00  0.00    +0.104 A 
ATOM      9  C   UNL     1      -2.107   0.950   0.001  0.00  0.00    +0.006 C 
ATOM     10  C   UNL     1       0.237   1.741   0.000  0.00  0.00    +0.347 A 
ATOM     11  C   UNL     1      -2.657  -1.391   0.000  0.00  0.00    +0.000 C 
ATOM     12  C   UNL     1      -3.062  -0.062   0.001  0.00  0.00    +0.000 C 
ATOM     13  C   UNL     1       1.987   0.044   0.000  0.00  0.00    +0.217 A 
ENDROOT
TORSDOF 0
