177336
  -OEChem-10051720443D

 58 61  0     0  0  0  0  0  0999 V2000
   -1.9795    2.0566   -0.5349 O   0  0  0  0  0  0  0  0  0  0  0  0
   -0.9358   -2.0705   -1.0765 O   0  0  0  0  0  0  0  0  0  0  0  0
    4.7347    0.3933    0.1932 N   0  0  0  0  0  0  0  0  0  0  0  0
   -0.2321    0.1088   -1.3432 N   0  0  0  0  0  0  0  0  0  0  0  0
   -3.9597    1.0455    0.3274 N   0  0  0  0  0  0  0  0  0  0  0  0
    2.1311   -0.3944   -0.9003 C   0  0  0  0  0  0  0  0  0  0  0  0
    3.4556   -0.8125   -1.5476 C   0  0  0  0  0  0  0  0  0  0  0  0
    2.3306    0.8978   -0.1011 C   0  0  0  0  0  0  0  0  0  0  0  0
    4.5815   -0.8852   -0.5141 C   0  0  0  0  0  0  0  0  0  0  0  0
    3.4941    0.7690    0.8843 C   0  0  0  0  0  0  0  0  0  0  0  0
    1.0361   -0.2266   -1.9500 C   0  0  0  0  0  0  0  0  0  0  0  0
    5.8474    0.3242    1.1403 C   0  0  0  0  0  0  0  0  0  0  0  0
    7.1423   -0.0328    0.4125 C   0  0  0  0  0  0  0  0  0  0  0  0
   -2.3975   -0.3609   -0.3725 C   0  0  0  0  0  0  0  0  0  0  0  0
   -1.1688   -0.8530   -0.9309 C   0  0  0  0  0  0  0  0  0  0  0  0
   -2.6971    0.9749   -0.2133 C   0  0  0  0  0  0  0  0  0  0  0  0
   -4.6311    2.3014    0.6136 C   0  0  0  0  0  0  0  0  0  0  0  0
    8.3236   -0.0892    1.3819 C   0  0  0  0  0  0  0  0  0  0  0  0
   -3.4970   -1.1213    0.1153 C   0  0  0  0  0  0  0  0  0  0  0  0
   -4.4662   -0.2141    0.5548 C   0  0  0  0  0  0  0  0  0  0  0  0
   -3.9497    3.4491   -0.1181 C   0  0  0  0  0  0  0  0  0  0  0  0
   -2.4388    3.2986    0.0114 C   0  0  0  0  0  0  0  0  0  0  0  0
   -3.7563   -2.5026    0.2226 C   0  0  0  0  0  0  0  0  0  0  0  0
   -5.6864   -0.6358    1.1040 C   0  0  0  0  0  0  0  0  0  0  0  0
    9.6100   -0.4785    0.6711 C   0  0  0  0  0  0  0  0  0  0  0  0
   -4.9709   -2.9317    0.7678 C   0  0  0  0  0  0  0  0  0  0  0  0
   -5.9199   -2.0104    1.2020 C   0  0  0  0  0  0  0  0  0  0  0  0
    1.8278   -1.1840   -0.1986 H   0  0  0  0  0  0  0  0  0  0  0  0
    3.3415   -1.7904   -2.0308 H   0  0  0  0  0  0  0  0  0  0  0  0
    3.7290   -0.0984   -2.3359 H   0  0  0  0  0  0  0  0  0  0  0  0
    2.5237    1.7363   -0.7833 H   0  0  0  0  0  0  0  0  0  0  0  0
    1.4235    1.1481    0.4615 H   0  0  0  0  0  0  0  0  0  0  0  0
    4.3911   -1.7073    0.1879 H   0  0  0  0  0  0  0  0  0  0  0  0
    5.4663   -1.1426   -1.1012 H   0  0  0  0  0  0  0  0  0  0  0  0
    3.6259    1.7366    1.3837 H   0  0  0  0  0  0  0  0  0  0  0  0
    3.2394    0.0343    1.6597 H   0  0  0  0  0  0  0  0  0  0  0  0
    1.2819    0.5800   -2.6496 H   0  0  0  0  0  0  0  0  0  0  0  0
    0.9197   -1.1484   -2.5307 H   0  0  0  0  0  0  0  0  0  0  0  0
    5.6489   -0.4117    1.9305 H   0  0  0  0  0  0  0  0  0  0  0  0
    5.9752    1.2993    1.6267 H   0  0  0  0  0  0  0  0  0  0  0  0
    7.0949   -1.0239   -0.0476 H   0  0  0  0  0  0  0  0  0  0  0  0
    7.3473    0.6969   -0.3807 H   0  0  0  0  0  0  0  0  0  0  0  0
   -0.4319    1.0965   -1.2260 H   0  0  0  0  0  0  0  0  0  0  0  0
   -4.5818    2.4431    1.6990 H   0  0  0  0  0  0  0  0  0  0  0  0
   -5.6783    2.2168    0.3071 H   0  0  0  0  0  0  0  0  0  0  0  0
    8.4584    0.8879    1.8604 H   0  0  0  0  0  0  0  0  0  0  0  0
    8.1202   -0.8151    2.1779 H   0  0  0  0  0  0  0  0  0  0  0  0
   -4.2855    4.4120    0.2796 H   0  0  0  0  0  0  0  0  0  0  0  0
   -4.2239    3.4091   -1.1799 H   0  0  0  0  0  0  0  0  0  0  0  0
   -2.1211    3.3626    1.0594 H   0  0  0  0  0  0  0  0  0  0  0  0
   -1.9362    4.1034   -0.5349 H   0  0  0  0  0  0  0  0  0  0  0  0
   -3.0322   -3.2414   -0.1073 H   0  0  0  0  0  0  0  0  0  0  0  0
   -6.4312    0.0759    1.4447 H   0  0  0  0  0  0  0  0  0  0  0  0
   10.4419   -0.5057    1.3818 H   0  0  0  0  0  0  0  0  0  0  0  0
    9.5225   -1.4692    0.2137 H   0  0  0  0  0  0  0  0  0  0  0  0
    9.8578    0.2425   -0.1144 H   0  0  0  0  0  0  0  0  0  0  0  0
   -5.1741   -3.9959    0.8533 H   0  0  0  0  0  0  0  0  0  0  0  0
   -6.8575   -2.3638    1.6235 H   0  0  0  0  0  0  0  0  0  0  0  0
  1 16  1  0  0  0  0
  1 22  1  0  0  0  0
  2 15  2  0  0  0  0
  3  9  1  0  0  0  0
  3 10  1  0  0  0  0
  3 12  1  0  0  0  0
  4 11  1  0  0  0  0
  4 15  1  0  0  0  0
  4 43  1  0  0  0  0
  5 16  1  0  0  0  0
  5 17  1  0  0  0  0
  5 20  1  0  0  0  0
  6  7  1  0  0  0  0
  6  8  1  0  0  0  0
  6 11  1  0  0  0  0
  6 28  1  0  0  0  0
  7  9  1  0  0  0  0
  7 29  1  0  0  0  0
  7 30  1  0  0  0  0
  8 10  1  0  0  0  0
  8 31  1  0  0  0  0
  8 32  1  0  0  0  0
  9 33  1  0  0  0  0
  9 34  1  0  0  0  0
 10 35  1  0  0  0  0
 10 36  1  0  0  0  0
 11 37  1  0  0  0  0
 11 38  1  0  0  0  0
 12 13  1  0  0  0  0
 12 39  1  0  0  0  0
 12 40  1  0  0  0  0
 13 18  1  0  0  0  0
 13 41  1  0  0  0  0
 13 42  1  0  0  0  0
 14 15  1  0  0  0  0
 14 16  2  0  0  0  0
 14 19  1  0  0  0  0
 17 21  1  0  0  0  0
 17 44  1  0  0  0  0
 17 45  1  0  0  0  0
 18 25  1  0  0  0  0
 18 46  1  0  0  0  0
 18 47  1  0  0  0  0
 19 20  1  0  0  0  0
 19 23  2  0  0  0  0
 20 24  2  0  0  0  0
 21 22  1  0  0  0  0
 21 48  1  0  0  0  0
 21 49  1  0  0  0  0
 22 50  1  0  0  0  0
 22 51  1  0  0  0  0
 23 26  1  0  0  0  0
 23 52  1  0  0  0  0
 24 27  1  0  0  0  0
 24 53  1  0  0  0  0
 25 54  1  0  0  0  0
 25 55  1  0  0  0  0
 25 56  1  0  0  0  0
 26 27  2  0  0  0  0
 26 57  1  0  0  0  0
 27 58  1  0  0  0  0
M  END
> <DATABASE_ID>
DB04873

> <DATABASE_NAME>
drugbank

> <ORIGINAL_SOURCE>
PUBCHEM

> <ORIGINAL_SOURCE_URL>
https://pubchem.ncbi.nlm.nih.gov/rest/pug/compound/inchikey/KVCSJPATKXABRQ-UHFFFAOYSA-N/SDF?record_type=3d

> <SMILES>
CCCCN1CCC(CNC(=O)C2=C3OCCCN3C3=CC=CC=C23)CC1

> <INCHI_IDENTIFIER>
InChI=1S/C22H31N3O2/c1-2-3-11-24-13-9-17(10-14-24)16-23-21(26)20-18-7-4-5-8-19(18)25-12-6-15-27-22(20)25/h4-5,7-8,17H,2-3,6,9-16H2,1H3,(H,23,26)

> <INCHI_KEY>
KVCSJPATKXABRQ-UHFFFAOYSA-N

> <FORMULA>
C22H31N3O2

> <MOLECULAR_WEIGHT>
369.5004

> <EXACT_MASS>
369.241627251

> <JCHEM_ACCEPTOR_COUNT>
3

> <JCHEM_AVERAGE_POLARIZABILITY>
44.35926933351812

> <JCHEM_BIOAVAILABILITY>
1

> <JCHEM_DONOR_COUNT>
1

> <JCHEM_FORMAL_CHARGE>
0

> <JCHEM_GHOSE_FILTER>
1

> <JCHEM_IUPAC>
N-[(1-butylpiperidin-4-yl)methyl]-2H,3H,4H-[1,3]oxazino[3,2-a]indole-10-carboxamide

> <ALOGPS_LOGP>
3.54

> <JCHEM_LOGP>
3.001360663666667

> <ALOGPS_LOGS>
-4.11

> <JCHEM_MDDR_LIKE_RULE>
1

> <JCHEM_NUMBER_OF_RINGS>
4

> <JCHEM_PHYSIOLOGICAL_CHARGE>
1

> <JCHEM_PKA_STRONGEST_ACIDIC>
14.300042401905536

> <JCHEM_PKA_STRONGEST_BASIC>
9.803288004870137

> <JCHEM_POLAR_SURFACE_AREA>
46.5

> <JCHEM_REFRACTIVITY>
108.7719

> <JCHEM_ROTATABLE_BOND_COUNT>
6

> <JCHEM_RULE_OF_FIVE>
1

> <ALOGPS_SOLUBILITY>
2.87e-02 g/l

> <JCHEM_TRADITIONAL_IUPAC>
piboserod

> <JCHEM_VEBER_RULE>
0

> <DRUGBANK_ID>
DB04873

> <DRUG_GROUPS>
investigational

> <GENERIC_NAME>
Piboserod

$$$$
