REMARK  Name = 794323
REMARK  5 active torsions:
REMARK  status: ('A' for Active; 'I' for Inactive)
REMARK    1  A    between atoms: C_4  and  C_11
REMARK    2  A    between atoms: C_5  and  C_20
REMARK    3  A    between atoms: C_14  and  O_17
REMARK    4  A    between atoms: C_20  and  O_21
REMARK    5  A    between atoms: O_21  and  C_22
REMARK                            x       y       z     vdW  Elec       q    Type
REMARK                         _______ _______ _______ _____ _____    ______ ____
ROOT
ATOM      1  S   UNL     1      -3.825  -2.638  -0.213  0.00  0.00    -0.019 S 
ATOM      2  N   UNL     1      -1.784  -1.390   0.953  0.00  0.00    -0.310 N 
ATOM      3  N   UNL     1      -2.872  -0.211  -0.755  0.00  0.00    -0.299 N 
ATOM      4  C   UNL     1      -0.753  -0.365   1.117  0.00  0.00    +0.123 C 
ATOM      5  C   UNL     1      -1.080   0.874   0.313  0.00  0.00    +0.085 C 
ATOM      6  C   UNL     1      -2.078   0.907  -0.590  0.00  0.00    +0.031 C 
ATOM      7  C   UNL     1      -2.773  -1.355   0.000  0.00  0.00    +0.135 C 
ATOM      8  C   UNL     1      -2.452   2.058  -1.481  0.00  0.00    +0.047 C 
ATOM      9  H   UNL     1      -1.768  -2.158   1.568  0.00  0.00    +0.149 HD
ATOM     10  H   UNL     1      -3.556  -0.187  -1.463  0.00  0.00    +0.154 HD
ENDROOT
BRANCH   4  11
ATOM     11  C   UNL     1       0.572  -0.940   0.730  0.00  0.00    +0.003 C 
ATOM     12  C   UNL     1       0.801  -1.329  -0.588  0.00  0.00    +0.034 C 
ATOM     13  C   UNL     1       1.571  -1.085   1.689  0.00  0.00    -0.002 C 
ATOM     14  C   UNL     1       2.037  -1.865  -0.949  0.00  0.00    +0.133 C 
ATOM     15  C   UNL     1       2.808  -1.621   1.328  0.00  0.00    +0.003 C 
ATOM     16  C   UNL     1       3.041  -2.010   0.009  0.00  0.00    +0.037 C 
BRANCH  14  17
ATOM     17  O   UNL     1       2.265  -2.244  -2.236  0.00  0.00    -0.506 OA
ATOM     18  H   UNL     1       1.591  -2.147  -2.879  0.00  0.00    +0.292 HD
ENDBRANCH  14  17
ENDBRANCH   4  11
BRANCH   5  20
ATOM     19  O   UNL     1      -0.543   2.876   1.464  0.00  0.00    -0.245 OA
ATOM     20  C   UNL     1      -0.262   2.064   0.602  0.00  0.00    +0.340 C 
BRANCH  20  21
ATOM     21  O   UNL     1       0.801   2.066  -0.238  0.00  0.00    -0.446 OA
BRANCH  21  22
ATOM     22  C   UNL     1       1.698   3.170  -0.078  0.00  0.00    +0.209 C 
ATOM     23  C   UNL     1       2.827   3.036  -1.078  0.00  0.00    +0.051 C 
ENDBRANCH  21  22
ENDBRANCH  20  21
ENDBRANCH   5  20
TORSDOF 5
