REMARK  Name = 46878457
REMARK  5 active torsions:
REMARK  status: ('A' for Active; 'I' for Inactive)
REMARK    1  A    between atoms: CA_1  and  N_2
REMARK    2  A    between atoms: CA_1  and  C_8
REMARK    3  A    between atoms: CA_1  and  C_9
REMARK    4  A    between atoms: C_9  and  C_12
REMARK    5  A    between atoms: C_9  and  O_15
REMARK                            x       y       z     vdW  Elec       q    Type
REMARK                         _______ _______ _______ _____ _____    ______ ____
ROOT
ATOM      1  CA  UNL     1      -0.544  -0.487   0.235  0.00  0.00    +0.077 C 
ENDROOT
BRANCH   1   2
ATOM      2  N   UNL     1      -0.280  -1.454  -0.881  0.00  0.00    +0.391 N 
ATOM      3  H1  UNL     1       0.689  -1.768  -0.837  0.00  0.00    -0.088 HD
ATOM      4  H2  UNL     1      -0.449  -0.995  -1.776  0.00  0.00    -0.088 HD
ATOM      5  H3  UNL     1      -0.902  -2.257  -0.789  0.00  0.00    -0.088 HD
ENDBRANCH   1   2
BRANCH   1   8
ATOM      6  O   UNL     1      -2.821  -0.733  -0.351  0.00  0.00    -0.248 OA
ATOM      7  OXT UNL     1      -2.200   1.146   0.784  0.00  0.00    -0.248 OA
ATOM      8  C   UNL     1      -1.996   0.031   0.230  0.00  0.00    +0.348 C 
ENDBRANCH   1   8
BRANCH   1   9
ATOM      9  C   UNL     1       0.538   0.601   0.181  0.00  0.00    +0.177 C 
BRANCH   9  12
ATOM     10  O   UNL     1       2.749   0.189  -0.726  0.00  0.00    -0.273 OA
ATOM     11  N   UNL     1       2.231  -0.703   1.327  0.00  0.00    -0.327 N 
ATOM     12  C   UNL     1       1.951   0.029   0.194  0.00  0.00    +0.245 C 
ATOM     13  H   UNL     1       3.117  -1.118   1.439  0.00  0.00    +0.145 HD
ATOM     14  H   UNL     1       1.546  -0.811   2.026  0.00  0.00    +0.145 HD
ENDBRANCH   9  12
BRANCH   9  15
ATOM     15  O   UNL     1       0.371   1.381  -0.994  0.00  0.00    -0.377 OA
ATOM     16  H   UNL     1      -0.526   1.751  -1.012  0.00  0.00    +0.211 HD
ENDBRANCH   9  15
ENDBRANCH   1   9
TORSDOF 5
