REMARK  Name = 445892
REMARK  3 active torsions:
REMARK  status: ('A' for Active; 'I' for Inactive)
REMARK    1  A    between atoms: C_1  and  C_9
REMARK    2  A    between atoms: C_4  and  O_7
REMARK    3  A    between atoms: C_9  and  N_11
REMARK                            x       y       z     vdW  Elec       q    Type
REMARK                         _______ _______ _______ _____ _____    ______ ____
ROOT
ATOM      1  C   UNL     1       0.021   0.328   0.329  0.00  0.00    -0.039 C 
ATOM      2  C   UNL     1       0.727  -0.833   0.075  0.00  0.00    +0.030 C 
ATOM      3  C   UNL     1       0.637   1.566   0.348  0.00  0.00    -0.006 C 
ATOM      4  C   UNL     1       2.098  -0.755  -0.167  0.00  0.00    +0.133 C 
ATOM      5  C   UNL     1       2.009   1.645   0.105  0.00  0.00    +0.003 C 
ATOM      6  C   UNL     1       2.739   0.484  -0.153  0.00  0.00    +0.037 C 
ENDROOT
BRANCH   4   7
ATOM      7  O   UNL     1       2.811  -1.886  -0.418  0.00  0.00    -0.506 OA
ATOM      8  H   UNL     1       2.380  -2.719  -0.428  0.00  0.00    +0.292 HD
ENDBRANCH   4   7
BRANCH   1   9
ATOM      9  C   UNL     1      -1.470   0.243   0.593  0.00  0.00    -0.035 C 
ATOM     10  C   UNL     1      -1.780  -0.595   1.835  0.00  0.00    -0.018 C 
BRANCH   9  11
ATOM     11  N   UNL     1      -2.188  -0.305  -0.557  0.00  0.00    +0.388 N 
ATOM     12  C   UNL     1      -1.988   0.539  -1.734  0.00  0.00    -0.100 C 
ATOM     13  C   UNL     1      -3.614  -0.431  -0.255  0.00  0.00    -0.100 C 
ATOM     14  H   UNL     1      -1.817  -1.233  -0.758  0.00  0.00    -0.079 HD
ENDBRANCH   9  11
ENDBRANCH   1   9
TORSDOF 3
