REMARK  Name = 448926
REMARK  3 active torsions:
REMARK  status: ('A' for Active; 'I' for Inactive)
REMARK    1  A    between atoms: N_2  and  C_5
REMARK    2  A    between atoms: C_3  and  O_11
REMARK    3  A    between atoms: O_11  and  N_12
REMARK                            x       y       z     vdW  Elec       q    Type
REMARK                         _______ _______ _______ _____ _____    ______ ____
ROOT
ATOM      1  O   UNL     1       1.899  -1.282   0.001  0.00  0.00    -0.224 OA
ATOM      2  N   UNL     1       0.737   0.751   0.001  0.00  0.00    -0.249 N 
ATOM      3  C   UNL     1       1.872  -0.057   0.001  0.00  0.00    +0.423 C 
ATOM      4  H   UNL     1       0.904   1.722   0.002  0.00  0.00    +0.158 HD
ENDROOT
BRANCH   2   5
ATOM      5  C   UNL     1      -0.605   0.370   0.001  0.00  0.00    +0.053 C 
ATOM      6  C   UNL     1      -1.607   1.341   0.000  0.00  0.00    +0.015 C 
ATOM      7  C   UNL     1      -0.946  -0.983   0.000  0.00  0.00    +0.015 C 
ATOM      8  C   UNL     1      -2.948   0.960  -0.001  0.00  0.00    +0.001 C 
ATOM      9  C   UNL     1      -2.288  -1.364  -0.001  0.00  0.00    +0.001 C 
ATOM     10  C   UNL     1      -3.289  -0.392  -0.001  0.00  0.00    +0.000 C 
ENDBRANCH   2   5
BRANCH   3  11
ATOM     11  O   UNL     1       2.989   0.740  -0.001  0.00  0.00    -0.357 OA
BRANCH  11  12
ATOM     12  N   UNL     1       4.187  -0.085  -0.001  0.00  0.00    -0.164 NA
ATOM     13  H   UNL     1       5.012   0.514  -0.003  0.00  0.00    +0.163 HD
ATOM     14  H   UNL     1       4.193  -0.674  -0.834  0.00  0.00    +0.163 HD
ENDBRANCH  11  12
ENDBRANCH   3  11
TORSDOF 3
