REMARK  Name = 3734162
REMARK  2 active torsions:
REMARK  status: ('A' for Active; 'I' for Inactive)
REMARK    1  A    between atoms: C_1  and  N_7
REMARK    2  A    between atoms: C_2  and  C_13
REMARK                            x       y       z     vdW  Elec       q    Type
REMARK                         _______ _______ _______ _____ _____    ______ ____
ROOT
ATOM      1  C   UNL     1      -0.391  -0.986   0.000  0.00  0.00    +0.032 C 
ATOM      2  C   UNL     1       0.262   0.247  -0.001  0.00  0.00    +0.091 C 
ATOM      3  C   UNL     1      -1.785  -1.037   0.000  0.00  0.00    +0.013 C 
ATOM      4  C   UNL     1      -0.480   1.429  -0.001  0.00  0.00    +0.008 C 
ATOM      5  C   UNL     1      -2.526   0.144   0.001  0.00  0.00    +0.001 C 
ATOM      6  C   UNL     1      -1.874   1.377   0.000  0.00  0.00    +0.000 C 
ENDROOT
BRANCH   1   7
ATOM      7  N   UNL     1       0.359  -2.226   0.000  0.00  0.00    -0.415 NA
ATOM      8  H   UNL     1       1.343  -2.206  -0.001  0.00  0.00    +0.121 HD
ATOM      9  H   UNL     1      -0.117  -3.088   0.000  0.00  0.00    +0.121 HD
ATOM     10  H   UNL     1       0.558  -2.948   0.638  0.00  0.00    +0.121 HD
ENDBRANCH   1   7
BRANCH   2  13
ATOM     11  O   UNL     1       2.412  -0.766   0.000  0.00  0.00    -0.241 OA
ATOM     12  O   UNL     1       2.288   1.489   0.001  0.00  0.00    -0.241 OA
ATOM     13  C   UNL     1       1.734   0.328   0.000  0.00  0.00    +0.389 C 
ENDBRANCH   2  13
TORSDOF 2
