REMARK  Name = 4369524
REMARK  2 active torsions:
REMARK  status: ('A' for Active; 'I' for Inactive)
REMARK    1  A    between atoms: C_10  and  C_16
REMARK    2  A    between atoms: C_18  and  C_22
REMARK                            x       y       z     vdW  Elec       q    Type
REMARK                         _______ _______ _______ _____ _____    ______ ____
ROOT
ATOM      1  S   UNL     1      -6.016  -0.636   0.601  0.00  0.00    +0.006 S 
ATOM      2  O   UNL     1      -4.042   0.944   0.112  0.00  0.00    -0.461 OA
ATOM      3  N   UNL     1      -3.442  -1.322   0.320  0.00  0.00    -0.278 N 
ATOM      4  C   UNL     1      -2.671   1.373  -0.147  0.00  0.00    +0.155 C 
ATOM      5  C   UNL     1      -1.662   0.242  -0.141  0.00  0.00    +0.027 C 
ATOM      6  C   UNL     1      -2.088  -1.066   0.093  0.00  0.00    +0.050 C 
ATOM      7  C   UNL     1      -0.294   0.466  -0.366  0.00  0.00    +0.002 C 
ATOM      8  C   UNL     1      -2.354   2.397   0.951  0.00  0.00    +0.048 C 
ATOM      9  C   UNL     1      -2.714   2.060  -1.519  0.00  0.00    +0.048 C 
ATOM     10  C   UNL     1       0.616  -0.593  -0.356  0.00  0.00    +0.014 C 
ATOM     11  C   UNL     1      -1.181  -2.131   0.103  0.00  0.00    +0.015 C 
ATOM     12  C   UNL     1       0.172  -1.891  -0.122  0.00  0.00    +0.002 C 
ATOM     13  C   UNL     1      -4.401  -0.344   0.330  0.00  0.00    +0.233 C 
ATOM     14  H   UNL     1      -3.722  -2.252   0.481  0.00  0.00    +0.156 HD
ENDROOT
BRANCH  10  16
ATOM     15  N   UNL     1       2.911  -0.062   0.415  0.00  0.00    -0.277 N 
ATOM     16  C   UNL     1       2.018  -0.341  -0.589  0.00  0.00    +0.052 C 
ATOM     17  C   UNL     1       2.712  -0.328  -1.780  0.00  0.00    +0.017 C 
ATOM     18  C   UNL     1       4.160   0.127  -0.117  0.00  0.00    +0.121 C 
ATOM     19  C   UNL     1       4.065  -0.032  -1.482  0.00  0.00    +0.027 C 
ATOM     20  C   UNL     1       2.586   0.019   1.825  0.00  0.00    +0.118 C 
BRANCH  18  22
ATOM     21  N   UNL     1       6.295   0.684   1.240  0.00  0.00    -0.190 NA
ATOM     22  C   UNL     1       5.332   0.433   0.628  0.00  0.00    +0.116 C 
ENDBRANCH  18  22
ENDBRANCH  10  16
TORSDOF 2
