REMARK  Name = 980
REMARK  2 active torsions:
REMARK  status: ('A' for Active; 'I' for Inactive)
REMARK    1  A    between atoms: C_1  and  N_9
REMARK    2  A    between atoms: C_4  and  O_10
REMARK                            x       y       z     vdW  Elec       q    Type
REMARK                         _______ _______ _______ _____ _____    ______ ____
ROOT
ATOM      1  C   UNL     1      -0.704   0.001  -0.001  0.00  0.00    +0.143 C 
ATOM      2  C   UNL     1      -0.007   1.208  -0.001  0.00  0.00    +0.027 C 
ATOM      3  C   UNL     1      -0.007  -1.208   0.000  0.00  0.00    +0.027 C 
ATOM      4  C   UNL     1       2.085   0.000   0.000  0.00  0.00    +0.134 C 
ATOM      5  C   UNL     1       1.388   1.208   0.000  0.00  0.00    +0.038 C 
ATOM      6  C   UNL     1       1.387  -1.208   0.000  0.00  0.00    +0.038 C 
ENDROOT
BRANCH   1   9
ATOM      7  O   UNL     1      -2.733   1.097   0.001  0.00  0.00    -0.126 OA
ATOM      8  O   UNL     1      -2.732  -1.098   0.000  0.00  0.00    -0.126 OA
ATOM      9  N   UNL     1      -2.124   0.000   0.000  0.00  0.00    +0.058 N 
ENDBRANCH   1   9
BRANCH   4  10
ATOM     10  O   UNL     1       3.446   0.000   0.000  0.00  0.00    -0.506 OA
ATOM     11  H   UNL     1       3.915   0.811   0.000  0.00  0.00    +0.292 HD
ENDBRANCH   4  10
TORSDOF 2
