REMARK  Name = 446221
REMARK  0 active torsions:
REMARK  status: ('A' for Active; 'I' for Inactive)
REMARK                            x       y       z     vdW  Elec       q    Type
REMARK                         _______ _______ _______ _____ _____    ______ ____
ROOT
ATOM      1  O   UNL     1       1.648   1.971   0.000  0.00  0.00    -0.221 OA
ATOM      2  N   UNL     1      -1.265   1.328   0.000  0.00  0.00    -0.302 N 
ATOM      3  N   UNL     1       0.178  -1.841   0.000  0.00  0.00    -0.310 N 
ATOM      4  N   UNL     1       2.052  -0.302   0.000  0.00  0.00    -0.179 NA
ATOM      5  C   UNL     1      -0.672  -0.798   0.000  0.00  0.00    +0.072 C 
ATOM      6  C   UNL     1      -0.182   0.488   0.000  0.00  0.00    +0.146 C 
ATOM      7  C   UNL     1      -2.076  -0.758   0.000  0.00  0.00    +0.032 C 
ATOM      8  C   UNL     1      -2.420   0.579   0.000  0.00  0.00    +0.064 C 
ATOM      9  C   UNL     1       1.225   0.821   0.000  0.00  0.00    +0.167 C 
ATOM     10  C   UNL     1       1.512  -1.487   0.000  0.00  0.00    +0.229 C 
ATOM     11  H   UNL     1      -1.223   2.311   0.001  0.00  0.00    +0.153 HD
ATOM     12  H   UNL     1      -0.126  -2.778   0.000  0.00  0.00    +0.149 HD
ENDROOT
TORSDOF 0
