REMARK  Name = 5164
REMARK  3 active torsions:
REMARK  status: ('A' for Active; 'I' for Inactive)
REMARK    1  A    between atoms: N_1  and  C_16
REMARK    2  A    between atoms: C_3  and  C_9
REMARK    3  A    between atoms: C_5  and  C_24
REMARK                            x       y       z     vdW  Elec       q    Type
REMARK                         _______ _______ _______ _____ _____    ______ ____
ROOT
ATOM      1  N   UNL     1       1.372   1.137  -0.085  0.00  0.00    -0.244 NA
ATOM      2  N   UNL     1      -0.263   2.613  -0.352  0.00  0.00    -0.255 NA
ATOM      3  C   UNL     1       0.210   0.431   0.041  0.00  0.00    +0.153 C 
ATOM      4  C   UNL     1       1.040   2.441  -0.319  0.00  0.00    +0.201 C 
ATOM      5  C   UNL     1      -0.786   1.364  -0.128  0.00  0.00    +0.077 C 
ENDROOT
BRANCH   3   9
ATOM      6  N   UNL     1       0.140  -1.756  -0.812  0.00  0.00    -0.340 NA
ATOM      7  N   UNL     1       0.061  -3.692   0.621  0.00  0.00    -0.170 NA
ATOM      8  N   UNL     1       0.070  -3.921  -1.714  0.00  0.00    -0.293 N 
ATOM      9  C   UNL     1       0.158  -0.990   0.295  0.00  0.00    +0.143 C 
ATOM     10  C   UNL     1       0.130  -1.485   1.580  0.00  0.00    +0.052 C 
ATOM     11  C   UNL     1       0.082  -2.860   1.683  0.00  0.00    +0.114 C 
ATOM     12  C   UNL     1       0.091  -3.082  -0.579  0.00  0.00    +0.141 C 
ATOM     13  H   UNL     1       0.091  -3.529  -2.617  0.00  0.00    +0.155 HD
ATOM     14  H   UNL     1       0.035  -4.899  -1.603  0.00  0.00    +0.155 HD
ENDBRANCH   3   9
BRANCH   1  16
ATOM     15  N   UNL     1       5.650   0.884  -0.035  0.00  0.00    +0.384 N 
ATOM     16  C   UNL     1       2.740   0.618   0.010  0.00  0.00    +0.056 C 
ATOM     17  C   UNL     1       3.525   1.222   1.185  0.00  0.00    -0.007 C 
ATOM     18  C   UNL     1       3.527   0.776  -1.301  0.00  0.00    -0.007 C 
ATOM     19  C   UNL     1       4.949   0.670   1.232  0.00  0.00    -0.080 C 
ATOM     20  C   UNL     1       4.951   0.242  -1.150  0.00  0.00    -0.080 C 
ATOM     21  H   UNL     1       6.589   0.493   0.036  0.00  0.00    -0.085 HD
ATOM     22  H   UNL     1       5.686   1.887  -0.215  0.00  0.00    -0.085 HD
ENDBRANCH   1  16
BRANCH   5  24
ATOM     23  F   UNL     1      -6.253   0.338   0.051  0.00  0.00    -0.204 F 
ATOM     24  C   UNL     1      -2.193   1.099  -0.082  0.00  0.00    +0.015 C 
ATOM     25  C   UNL     1      -2.882   1.183   1.130  0.00  0.00    +0.004 C 
ATOM     26  C   UNL     1      -2.880   0.757  -1.248  0.00  0.00    +0.004 C 
ATOM     27  C   UNL     1      -4.253   0.926   1.174  0.00  0.00    +0.030 C 
ATOM     28  C   UNL     1      -4.250   0.500  -1.204  0.00  0.00    +0.030 C 
ATOM     29  C   UNL     1      -4.937   0.585   0.008  0.00  0.00    +0.140 C 
ENDBRANCH   5  24
TORSDOF 3
