REMARK  Name = 5289247
REMARK  1 active torsions:
REMARK  status: ('A' for Active; 'I' for Inactive)
REMARK    1  A    between atoms: C_3  and  C_15
REMARK                            x       y       z     vdW  Elec       q    Type
REMARK                         _______ _______ _______ _____ _____    ______ ____
ROOT
ATOM      1  N   UNL     1       3.167  -0.504   1.582  0.00  0.00    -0.241 NA
ATOM      2  N   UNL     1       4.151  -0.216  -1.000  0.00  0.00    -0.241 NA
ATOM      3  C   UNL     1       0.239   0.851  -0.131  0.00  0.00    +0.002 C 
ATOM      4  C   UNL     1       2.386  -0.019   0.601  0.00  0.00    +0.099 C 
ATOM      5  C   UNL     1       1.069   0.346   0.869  0.00  0.00    +0.021 C 
ATOM      6  C   UNL     1       2.884   0.127  -0.707  0.00  0.00    +0.099 C 
ATOM      7  C   UNL     1       0.730   0.995  -1.420  0.00  0.00    +0.002 C 
ATOM      8  C   UNL     1       2.047   0.632  -1.698  0.00  0.00    +0.021 C 
ATOM      9  C   UNL     1       4.431  -0.842   1.268  0.00  0.00    +0.119 C 
ATOM     10  C   UNL     1       4.916  -0.700  -0.005  0.00  0.00    +0.119 C 
ENDROOT
BRANCH   3  15
ATOM     11  S   UNL     1      -2.214  -1.222  -0.411  0.00  0.00    -0.025 S 
ATOM     12  O   UNL     1      -3.882   1.999   0.801  0.00  0.00    -0.269 OA
ATOM     13  O   UNL     1      -4.568  -2.412  -0.442  0.00  0.00    -0.262 OA
ATOM     14  N   UNL     1      -4.461  -0.180   0.223  0.00  0.00    -0.243 N 
ATOM     15  C   UNL     1      -1.133   1.224   0.176  0.00  0.00    +0.011 C 
ATOM     16  C   UNL     1      -2.217   0.426   0.088  0.00  0.00    +0.087 C 
ATOM     17  C   UNL     1      -3.590   0.876   0.419  0.00  0.00    +0.258 C 
ATOM     18  C   UNL     1      -3.954  -1.381  -0.214  0.00  0.00    +0.283 C 
ATOM     19  H   UNL     1      -5.425  -0.073   0.394  0.00  0.00    +0.159 HD
ENDBRANCH   3  15
TORSDOF 1
