REMARK  Name = 9614919
REMARK  4 active torsions:
REMARK  status: ('A' for Active; 'I' for Inactive)
REMARK    1  A    between atoms: C_4  and  C_20
REMARK    2  A    between atoms: C_5  and  C_13
REMARK    3  A    between atoms: N_19  and  C_20
REMARK    4  A    between atoms: N_19  and  O_21
REMARK                            x       y       z     vdW  Elec       q    Type
REMARK                         _______ _______ _______ _____ _____    ______ ____
ROOT
ATOM      1  N   UNL     1       2.940  -1.038  -0.991  0.00  0.00    +0.388 N 
ATOM      2  C   UNL     1       2.742   0.295  -0.389  0.00  0.00    -0.056 C 
ATOM      3  C   UNL     1       2.705  -1.947   0.147  0.00  0.00    -0.058 C 
ATOM      4  C   UNL     1       1.209   0.478  -0.267  0.00  0.00    +0.005 C 
ATOM      5  C   UNL     1       0.558  -0.606   0.631  0.00  0.00    +0.020 C 
ATOM      6  C   UNL     1       1.179  -2.001   0.362  0.00  0.00    -0.016 C 
ATOM      7  C   UNL     1       3.453   0.202   0.970  0.00  0.00    -0.023 C 
ATOM      8  C   UNL     1       3.424  -1.285   1.325  0.00  0.00    -0.023 C 
ATOM      9  C   UNL     1       4.266  -1.202  -1.582  0.00  0.00    -0.100 C 
ATOM     10  H   UNL     1       2.316  -1.216  -1.777  0.00  0.00    -0.080 HD
ENDROOT
BRANCH   5  13
ATOM     11 CL   UNL     1      -3.622  -1.361  -2.358  0.00  0.00    -0.081 Cl
ATOM     12 CL   UNL     1      -5.460  -0.742   0.233  0.00  0.00    -0.081 Cl
ATOM     13  C   UNL     1      -0.959  -0.643   0.514  0.00  0.00    -0.022 C 
ATOM     14  C   UNL     1      -1.550  -0.946  -0.708  0.00  0.00    +0.008 C 
ATOM     15  C   UNL     1      -1.744  -0.375   1.631  0.00  0.00    -0.003 C 
ATOM     16  C   UNL     1      -2.941  -0.982  -0.815  0.00  0.00    +0.068 C 
ATOM     17  C   UNL     1      -3.135  -0.411   1.525  0.00  0.00    +0.012 C 
ATOM     18  C   UNL     1      -3.733  -0.714   0.302  0.00  0.00    +0.068 C 
ENDBRANCH   5  13
BRANCH   4  19
ATOM     19  C   UNL     1       0.908   1.858   0.246  0.00  0.00    +0.120 C 
BRANCH  19  20
ATOM     20  N   UNL     1       0.250   2.703  -0.474  0.00  0.00    -0.084 NA
BRANCH  20  21
ATOM     21  O   UNL     1       0.118   3.897   0.248  0.00  0.00    -0.263 OA
ATOM     22  C   UNL     1      -0.607   4.819  -0.551  0.00  0.00    +0.202 C 
ENDBRANCH  20  21
ENDBRANCH  19  20
ENDBRANCH   4  19
TORSDOF 4
