REMARK  Name = 5327150
REMARK  11 active torsions:
REMARK  status: ('A' for Active; 'I' for Inactive)
REMARK    1  A    between atoms: N_1  and  C_22
REMARK    2  A    between atoms: C_3  and  C_8
REMARK    3  A    between atoms: C_8  and  C_9
REMARK    4  A    between atoms: C_9  and  O_10
REMARK    5  A    between atoms: O_10  and  P_11
REMARK    6  A    between atoms: P_11  and  O_13
REMARK    7  A    between atoms: P_11  and  O_15
REMARK    8  A    between atoms: O_15  and  P_16
REMARK    9  A    between atoms: P_16  and  O_18
REMARK   10  A    between atoms: P_16  and  O_20
REMARK   11  A    between atoms: C_22  and  C_26
REMARK                            x       y       z     vdW  Elec       q    Type
REMARK                         _______ _______ _______ _____ _____    ______ ____
ROOT
ATOM      1  N   UNL     1      -1.283   2.170   0.310  0.00  0.00    -0.301 N 
ATOM      2  C   UNL     1      -0.220   2.218  -0.505  0.00  0.00    +0.092 C 
ATOM      3  C   UNL     1       1.001   2.612  -0.003  0.00  0.00    -0.024 C 
ATOM      4  C   UNL     1       1.125   2.954   1.331  0.00  0.00    -0.006 C 
ATOM      5  C   UNL     1      -1.206   2.493   1.608  0.00  0.00    +0.062 C 
ATOM      6  C   UNL     1      -0.394   1.842  -1.939  0.00  0.00    +0.026 C 
ATOM      7  C   UNL     1       0.004   2.895   2.155  0.00  0.00    +0.015 C 
ENDROOT
BRANCH   3   8
ATOM      8  C   UNL     1       2.220   2.678  -0.890  0.00  0.00    +0.056 C 
BRANCH   8   9
ATOM      9  C   UNL     1       2.991   1.363  -0.915  0.00  0.00    +0.158 C 
BRANCH   9  10
ATOM     10  O   UNL     1       2.144   0.319  -1.364  0.00  0.00    -0.273 OA
BRANCH  10  11
ATOM     11  P   UNL     1       2.715  -1.190  -1.485  0.00  0.00    +0.484 P 
ATOM     12  O   UNL     1       1.718  -2.202  -1.971  0.00  0.00    -0.227 OA
BRANCH  11  13
ATOM     13  O   UNL     1       4.031  -1.051  -2.414  0.00  0.00    -0.302 OA
ATOM     14  H   UNL     1       4.624  -0.382  -2.037  0.00  0.00    +0.222 HD
ENDBRANCH  11  13
BRANCH  11  15
ATOM     15  O   UNL     1       3.326  -1.512  -0.023  0.00  0.00    -0.186 OA
BRANCH  15  16
ATOM     16  P   UNL     1       2.606  -1.675   1.415  0.00  0.00    +0.481 P 
ATOM     17  O   UNL     1       1.857  -0.462   1.881  0.00  0.00    -0.227 OA
BRANCH  16  18
ATOM     18  O   UNL     1       1.715  -3.012   1.237  0.00  0.00    -0.302 OA
ATOM     19  H   UNL     1       2.281  -3.739   0.935  0.00  0.00    +0.222 HD
ENDBRANCH  16  18
BRANCH  16  20
ATOM     20  O   UNL     1       3.814  -2.151   2.377  0.00  0.00    -0.302 OA
ATOM     21  H   UNL     1       4.239  -2.937   1.999  0.00  0.00    +0.222 HD
ENDBRANCH  16  20
ENDBRANCH  15  16
ENDBRANCH  11  15
ENDBRANCH  10  11
ENDBRANCH   9  10
ENDBRANCH   8   9
ENDBRANCH   3   8
BRANCH   1  22
ATOM     22  C   UNL     1      -2.585   1.753  -0.211  0.00  0.00    +0.123 C 
BRANCH  22  26
ATOM     23  N   UNL     1      -4.072  -1.716  -0.400  0.00  0.00    -0.340 NA
ATOM     24  N   UNL     1      -1.879  -1.848   0.590  0.00  0.00    -0.186 NA
ATOM     25  N   UNL     1      -4.955   0.379  -1.075  0.00  0.00    -0.332 N 
ATOM     26  C   UNL     1      -2.769   0.265  -0.090  0.00  0.00    +0.062 C 
ATOM     27  C   UNL     1      -3.904  -0.382  -0.506  0.00  0.00    +0.187 C 
ATOM     28  C   UNL     1      -1.778  -0.509   0.454  0.00  0.00    +0.111 C 
ATOM     29  C   UNL     1      -3.036  -2.378   0.149  0.00  0.00    +0.066 C 
ATOM     30  C   UNL     1      -3.186  -3.856   0.283  0.00  0.00    +0.129 C 
ATOM     31  H   UNL     1      -5.777  -0.068  -1.379  0.00  0.00    +0.145 HD
ATOM     32  H   UNL     1      -4.862   1.355  -1.166  0.00  0.00    +0.145 HD
ENDBRANCH  22  26
ENDBRANCH   1  22
TORSDOF 11
