REMARK  Name = 1673
REMARK  0 active torsions:
REMARK  status: ('A' for Active; 'I' for Inactive)
REMARK                            x       y       z     vdW  Elec       q    Type
REMARK                         _______ _______ _______ _____ _____    ______ ____
ROOT
ATOM      1  N   UNL     1      -1.507   0.485   0.022  0.00  0.00    -0.270 N 
ATOM      2  N   UNL     1      -0.819  -1.887   0.001  0.00  0.00    -0.228 NA
ATOM      3  N   UNL     1       0.331   2.032  -0.005  0.00  0.00    -0.233 NA
ATOM      4  N   UNL     1       1.447  -1.521  -0.002  0.00  0.00    -0.239 NA
ATOM      5  C   UNL     1      -0.654  -0.596   0.009  0.00  0.00    +0.151 C 
ATOM      6  C   UNL     1       0.793  -0.321   0.004  0.00  0.00    +0.140 C 
ATOM      7  C   UNL     1       1.233   0.957   0.000  0.00  0.00    +0.143 C 
ATOM      8  C   UNL     1      -0.941   1.749   0.003  0.00  0.00    +0.223 C 
ATOM      9  C   UNL     1      -2.949   0.304  -0.021  0.00  0.00    +0.115 C 
ATOM     10  C   UNL     1       0.474  -2.386  -0.005  0.00  0.00    +0.252 C 
ATOM     11  N   UNL     1       2.591   1.185  -0.006  0.00  0.00    -0.342 N 
ATOM     12  H   UNL     1       2.935   2.108  -0.009  0.00  0.00    +0.144 HD
ATOM     13  H   UNL     1       3.218   0.426  -0.007  0.00  0.00    +0.144 HD
ENDROOT
TORSDOF 0
