REMARK  Name = 119055
REMARK  4 active torsions:
REMARK  status: ('A' for Active; 'I' for Inactive)
REMARK    1  A    between atoms: C_7  and  C_17
REMARK    2  A    between atoms: C_17  and  O_18
REMARK    3  A    between atoms: C_17  and  C_20
REMARK    4  A    between atoms: C_20  and  O_22
REMARK                            x       y       z     vdW  Elec       q    Type
REMARK                         _______ _______ _______ _____ _____    ______ ____
ROOT
ATOM      1  O   UNL     1       1.028  -2.494  -0.320  0.00  0.00    -0.207 OA
ATOM      2  N   UNL     1       0.479   2.165   0.031  0.00  0.00    -0.271 NA
ATOM      3  N   UNL     1      -0.664  -0.347  -0.316  0.00  0.00    -0.395 NA
ATOM      4  N   UNL     1       2.641   1.098   0.177  0.00  0.00    -0.279 N 
ATOM      5  N   UNL     1       2.919  -1.236   0.002  0.00  0.00    -0.301 NA
ATOM      6  N   UNL     1       4.753   0.200   0.331  0.00  0.00    -0.320 N 
ATOM      7  C   UNL     1      -1.431   0.702  -0.312  0.00  0.00    +0.132 C 
ATOM      8  C   UNL     1      -0.950   2.130  -0.140  0.00  0.00    +0.128 C 
ATOM      9  C   UNL     1       1.276   1.044   0.020  0.00  0.00    +0.197 C 
ATOM     10  C   UNL     1       0.687  -0.159  -0.151  0.00  0.00    +0.235 C 
ATOM     11  C   UNL     1       1.553  -1.395  -0.164  0.00  0.00    +0.236 C 
ATOM     12  C   UNL     1       3.413  -0.037   0.162  0.00  0.00    +0.245 C 
ATOM     13  H   UNL     1       0.910   3.041   0.163  0.00  0.00    +0.125 HD
ATOM     14  H   UNL     1       3.076   1.972   0.302  0.00  0.00    +0.152 HD
ATOM     15  H   UNL     1       5.078   1.122   0.448  0.00  0.00    +0.146 HD
ATOM     16  H   UNL     1       5.389  -0.551   0.335  0.00  0.00    +0.146 HD
ENDROOT
BRANCH   7  17
ATOM     17  C   UNL     1      -2.914   0.502  -0.493  0.00  0.00    +0.186 C 
BRANCH  17  18
ATOM     18  O   UNL     1      -3.080  -0.062  -1.782  0.00  0.00    -0.376 OA
ATOM     19  H   UNL     1      -2.706   0.536  -2.447  0.00  0.00    +0.211 HD
ENDBRANCH  17  18
BRANCH  17  20
ATOM     20  C   UNL     1      -3.501  -0.434   0.557  0.00  0.00    +0.144 C 
ATOM     21  C   UNL     1      -3.277   0.061   1.980  0.00  0.00    +0.035 C 
BRANCH  20  22
ATOM     22  O   UNL     1      -2.935  -1.737   0.418  0.00  0.00    -0.382 OA
ATOM     23  H   UNL     1      -3.076  -2.056  -0.487  0.00  0.00    +0.210 HD
ENDBRANCH  20  22
ENDBRANCH  17  20
ENDBRANCH   7  17
TORSDOF 4
