REMARK  Name = 8405
REMARK  0 active torsions:
REMARK  status: ('A' for Active; 'I' for Inactive)
REMARK                            x       y       z     vdW  Elec       q    Type
REMARK                         _______ _______ _______ _____ _____    ______ ____
ROOT
ATOM      1  N   UNL     1       2.438  -0.689   0.000  0.00  0.00    -0.242 NA
ATOM      2  C   UNL     1      -0.003   0.714   0.000  0.00  0.00    +0.003 C 
ATOM      3  C   UNL     1       0.006  -0.697   0.000  0.00  0.00    +0.019 C 
ATOM      4  C   UNL     1      -1.235   1.389   0.000  0.00  0.00    +0.000 C 
ATOM      5  C   UNL     1      -1.208  -1.403   0.000  0.00  0.00    +0.002 C 
ATOM      6  C   UNL     1       1.217   1.399   0.000  0.00  0.00    +0.021 C 
ATOM      7  C   UNL     1       1.249  -1.333   0.000  0.00  0.00    +0.099 C 
ATOM      8  C   UNL     1      -2.435   0.676   0.000  0.00  0.00    +0.000 C 
ATOM      9  C   UNL     1      -2.422  -0.717   0.000  0.00  0.00    +0.000 C 
ATOM     10  C   UNL     1       2.391   0.660   0.000  0.00  0.00    +0.099 C 
ENDROOT
TORSDOF 0
