REMARK  Name = 456214
REMARK  6 active torsions:
REMARK  status: ('A' for Active; 'I' for Inactive)
REMARK    1  A    between atoms: N_1  and  CA_24
REMARK    2  A    between atoms: N_2  and  C_12
REMARK    3  A    between atoms: N_15  and  C_18
REMARK    4  A    between atoms: CA_24  and  CB_25
REMARK    5  A    between atoms: CA_24  and  C_28
REMARK    6  A    between atoms: C_28  and  O_29
REMARK                            x       y       z     vdW  Elec       q    Type
REMARK                         _______ _______ _______ _____ _____    ______ ____
ROOT
ATOM      1  N   UNL     1      -0.330  -2.445   0.136  0.00  0.00    -0.258 N 
ATOM      2  N   UNL     1      -3.827   0.769   0.027  0.00  0.00    -0.262 N 
ATOM      3  N   UNL     1      -2.187  -1.022   0.086  0.00  0.00    -0.311 NA
ATOM      4  N   UNL     1       0.089  -0.141   0.062  0.00  0.00    -0.311 NA
ATOM      5  N   UNL     1      -2.465   2.533  -0.027  0.00  0.00    -0.240 NA
ATOM      6  C   UNL     1      -2.557   0.266   0.044  0.00  0.00    +0.220 C 
ATOM      7  C   ACE A   0      -0.828  -1.158   0.092  0.00  0.00    +0.202 C 
ATOM      8  C   UNL     1      -1.727   1.376   0.011  0.00  0.00    +0.168 C 
ATOM      9  C   UNL     1      -0.357   1.137   0.021  0.00  0.00    +0.219 C 
ATOM     10  C   UNL     1      -3.719   2.133  -0.017  0.00  0.00    +0.222 C 
ATOM     11  H   UNL     1      -0.970  -3.193   0.161  0.00  0.00    +0.160 HD
ATOM     12  N   UNL     1       0.558   2.204  -0.010  0.00  0.00    -0.286 N 
ATOM     13  H   UNL     1       0.130   3.090  -0.038  0.00  0.00    +0.155 HD
ENDROOT
BRANCH  12  15
ATOM     14 CL   UNL     1       5.007   0.079   1.412  0.00  0.00    -0.082 Cl
ATOM     15  C   UNL     1       1.969   2.257  -0.010  0.00  0.00    +0.051 C 
ATOM     16  C   UNL     1       2.704   1.258   0.627  0.00  0.00    +0.026 C 
ATOM     17  C   UNL     1       2.625   3.310  -0.647  0.00  0.00    +0.015 C 
ATOM     18  C   UNL     1       4.098   1.312   0.628  0.00  0.00    +0.059 C 
ATOM     19  C   UNL     1       4.019   3.364  -0.646  0.00  0.00    +0.002 C 
ATOM     20  C   UNL     1       4.755   2.365  -0.009  0.00  0.00    +0.011 C 
ENDBRANCH  12  15
BRANCH   2  21
ATOM     21  C   UNL     1      -5.056   0.013   0.047  0.00  0.00    +0.077 C 
ATOM     22  C   UNL     1      -5.875   0.218  -1.228  0.00  0.00    +0.022 C 
ATOM     23  C   UNL     1      -5.883   0.300   1.302  0.00  0.00    +0.022 C 
ENDBRANCH   2  21
BRANCH   1  24
ATOM     24  CA  UNL     1       1.089  -2.753   0.146  0.00  0.00    +0.109 C 
BRANCH  24  25
ATOM     25  CB  UNL     1       1.681  -2.635  -1.278  0.00  0.00    +0.021 C 
ATOM     26  CG1 UNL     1       3.191  -2.897  -1.279  0.00  0.00    +0.002 C 
ATOM     27  CG2 UNL     1       0.996  -3.536  -2.311  0.00  0.00    +0.002 C 
ENDBRANCH  24  25
BRANCH  24  28
ATOM     28  C   UNL     1       1.295  -4.141   0.758  0.00  0.00    +0.157 C 
BRANCH  28  29
ATOM     29  O   UNL     1       0.731  -4.166   2.065  0.00  0.00    -0.380 OA
ATOM     30  H   UNL     1       0.860  -5.044   2.457  0.00  0.00    +0.211 HD
ENDBRANCH  28  29
ENDBRANCH  24  28
ENDBRANCH   1  24
TORSDOF 6
