REMARK  Name = 5459816
REMARK  4 active torsions:
REMARK  status: ('A' for Active; 'I' for Inactive)
REMARK    1  A    between atoms: C_1  and  C_5
REMARK    2  A    between atoms: C_1  and  C_9
REMARK    3  A    between atoms: C_2  and  C_8
REMARK    4  A    between atoms: C_9  and  C_12
REMARK                            x       y       z     vdW  Elec       q    Type
REMARK                         _______ _______ _______ _____ _____    ______ ____
ROOT
ATOM      1  C   UNL     1       0.059  -0.098   0.620  0.00  0.00    +0.075 C 
ATOM      2  C   UNL     1      -1.033  -0.864   0.768  0.00  0.00    +0.089 C 
ENDROOT
BRANCH   1   5
ATOM      3  O   UNL     1      -0.518   2.164   0.227  0.00  0.00    -0.241 OA
ATOM      4  O   UNL     1       0.136   0.872  -1.545  0.00  0.00    -0.241 OA
ATOM      5  C   UNL     1      -0.120   1.099  -0.327  0.00  0.00    +0.385 C 
ENDBRANCH   1   5
BRANCH   2   8
ATOM      6  O   UNL     1      -3.139   0.215   0.651  0.00  0.00    -0.241 OA
ATOM      7  O   UNL     1      -2.462  -1.115  -1.083  0.00  0.00    -0.241 OA
ATOM      8  C   UNL     1      -2.348  -0.565   0.050  0.00  0.00    +0.388 C 
ENDBRANCH   2   8
BRANCH   1   9
ATOM      9  C   UNL     1       1.420  -0.320   1.212  0.00  0.00    +0.147 C 
BRANCH   9  12
ATOM     10  O   UNL     1       2.234  -1.392  -0.726  0.00  0.00    -0.245 OA
ATOM     11  O   UNL     1       3.339   0.443   0.074  0.00  0.00    -0.245 OA
ATOM     12  C   UNL     1       2.433  -0.438   0.079  0.00  0.00    +0.369 C 
ENDBRANCH   9  12
ENDBRANCH   1   9
TORSDOF 4
