REMARK  Name = 439846
REMARK  3 active torsions:
REMARK  status: ('A' for Active; 'I' for Inactive)
REMARK    1  A    between atoms: C_1  and  O_3
REMARK    2  A    between atoms: C_1  and  C_5
REMARK    3  A    between atoms: C_5  and  O_6
REMARK                            x       y       z     vdW  Elec       q    Type
REMARK                         _______ _______ _______ _____ _____    ______ ____
ROOT
ATOM      1  C   UNL     1      -0.451   0.017   0.339  0.00  0.00    +0.140 C 
ATOM      2  C   UNL     1      -1.750  -0.683  -0.027  0.00  0.00    +0.034 C 
ENDROOT
BRANCH   1   3
ATOM      3  O   UNL     1      -0.491   1.354  -0.157  0.00  0.00    -0.382 OA
ATOM      4  H   UNL     1       0.334   1.809   0.072  0.00  0.00    +0.210 HD
ENDBRANCH   1   3
BRANCH   1   5
ATOM      5  C   UNL     1       0.753  -0.684  -0.277  0.00  0.00    +0.166 C 
BRANCH   5   6
ATOM      6  O   UNL     1       1.939  -0.004   0.122  0.00  0.00    -0.379 OA
ATOM      7  H   UNL     1       2.711  -0.445  -0.266  0.00  0.00    +0.211 HD
ENDBRANCH   5   6
ENDBRANCH   1   5
TORSDOF 3
