REMARK  Name = 11390
REMARK  2 active torsions:
REMARK  status: ('A' for Active; 'I' for Inactive)
REMARK    1  A    between atoms: C_3  and  S_11
REMARK    2  A    between atoms: C_4  and  S_15
REMARK                            x       y       z     vdW  Elec       q    Type
REMARK                         _______ _______ _______ _____ _____    ______ ____
ROOT
ATOM      1  C   UNL     1       0.240   0.665   0.048  0.00  0.00    +0.001 C 
ATOM      2  C   UNL     1      -0.240  -0.666   0.048  0.00  0.00    +0.001 C 
ATOM      3  C   UNL     1       2.525  -0.171   0.048  0.00  0.00    +0.112 C 
ATOM      4  C   UNL     1      -2.525   0.172   0.049  0.00  0.00    +0.112 C 
ATOM      5  C   UNL     1       1.626   0.895   0.048  0.00  0.00    +0.019 C 
ATOM      6  C   UNL     1      -1.626  -0.896   0.048  0.00  0.00    +0.019 C 
ATOM      7  C   UNL     1       0.679  -1.728   0.048  0.00  0.00    +0.001 C 
ATOM      8  C   UNL     1      -0.679   1.728   0.048  0.00  0.00    +0.001 C 
ATOM      9  C   UNL     1       2.052  -1.480   0.048  0.00  0.00    +0.019 C 
ATOM     10  C   UNL     1      -2.052   1.481   0.048  0.00  0.00    +0.019 C 
ENDROOT
BRANCH   3  11
ATOM     11  S   UNL     1       4.244   0.136   0.048  0.00  0.00    +0.042 S 
ATOM     12  O   UNL     1       4.666   0.211  -1.529  0.00  0.00    -0.065 OA
ATOM     13  O   UNL     1       4.464   1.460   0.610  0.00  0.00    -0.065 OA
ATOM     14  O   UNL     1       4.883  -1.034   0.632  0.00  0.00    -0.065 OA
ENDBRANCH   3  11
BRANCH   4  15
ATOM     15  S   UNL     1      -4.244  -0.135   0.048  0.00  0.00    +0.042 S 
ATOM     16  O   UNL     1      -4.665  -0.211  -1.530  0.00  0.00    -0.065 OA
ATOM     17  O   UNL     1      -4.464  -1.460   0.611  0.00  0.00    -0.065 OA
ATOM     18  O   UNL     1      -4.883   1.034   0.630  0.00  0.00    -0.065 OA
ENDBRANCH   4  15
TORSDOF 2
