REMARK  Name = 11646
REMARK  0 active torsions:
REMARK  status: ('A' for Active; 'I' for Inactive)
REMARK                            x       y       z     vdW  Elec       q    Type
REMARK                         _______ _______ _______ _____ _____    ______ ____
ROOT
ATOM      1  N   UNL     1       0.083   0.000   0.000  0.00  0.00    -0.370 NA
ATOM      2  C   UNL     1      -1.340   0.000   0.000  0.00  0.00    +0.129 C 
ATOM      3  C   UNL     1       1.257   0.000   0.000  0.00  0.00    +0.242 C 
ENDROOT
TORSDOF 0
