REMARK  Name = 4369143
REMARK  5 active torsions:
REMARK  status: ('A' for Active; 'I' for Inactive)
REMARK    1  A    between atoms: C_7  and  C_18
REMARK    2  A    between atoms: CA_8  and  C_26
REMARK    3  A    between atoms: C_18  and  C_19
REMARK    4  A    between atoms: C_19  and  C_20
REMARK    5  A    between atoms: C_26  and  O_27
REMARK                            x       y       z     vdW  Elec       q    Type
REMARK                         _______ _______ _______ _____ _____    ______ ____
ROOT
ATOM      1  O   UNL     1       3.622   0.845   2.149  0.00  0.00    -0.207 OA
ATOM      2  N   UNL     1       0.915  -0.186  -1.557  0.00  0.00    -0.274 NA
ATOM      3  N   UNL     1       1.557   1.559   0.509  0.00  0.00    -0.395 NA
ATOM      4  N   UNL     1       2.690  -1.638  -0.803  0.00  0.00    -0.279 N 
ATOM      5  N   UNL     1       4.048  -1.126   1.054  0.00  0.00    -0.301 NA
ATOM      6  N   UNL     1       4.349  -3.104  -0.183  0.00  0.00    -0.320 N 
ATOM      7  C   UNL     1       0.108   1.020  -1.482  0.00  0.00    +0.089 C 
ATOM      8  CA  UNL     1       0.581   1.875  -0.290  0.00  0.00    +0.129 C 
ATOM      9  C   UNL     1       0.287   1.789  -2.793  0.00  0.00    +0.023 C 
ATOM     10  C   UNL     1       1.943  -0.488  -0.695  0.00  0.00    +0.197 C 
ATOM     11  C   UNL     1       2.227   0.382   0.294  0.00  0.00    +0.235 C 
ATOM     12  C   UNL     1       3.354   0.058   1.244  0.00  0.00    +0.236 C 
ATOM     13  C   UNL     1       3.712  -1.917   0.070  0.00  0.00    +0.245 C 
ATOM     14  H   UNL     1       0.712  -0.830  -2.273  0.00  0.00    +0.125 HD
ATOM     15  H   UNL     1       2.487  -2.276  -1.524  0.00  0.00    +0.152 HD
ATOM     16  H   UNL     1       4.059  -3.668  -0.937  0.00  0.00    +0.146 HD
ATOM     17  H   UNL     1       5.096  -3.393   0.389  0.00  0.00    +0.146 HD
ENDROOT
BRANCH   7  18
ATOM     18  C   UNL     1      -1.351   0.600  -1.292  0.00  0.00    +0.026 C 
BRANCH  18  19
ATOM     19  C   UNL     1      -1.534  -0.185   0.005  0.00  0.00    +0.028 C 
BRANCH  19  20
ATOM     20  C   UNL     1      -2.962  -0.592   0.218  0.00  0.00    -0.022 C 
ATOM     21  C   UNL     1      -3.823   0.253   0.911  0.00  0.00    -0.004 C 
ATOM     22  C   UNL     1      -3.413  -1.810  -0.279  0.00  0.00    -0.004 C 
ATOM     23  C   UNL     1      -5.151  -0.125   1.109  0.00  0.00    -0.000 C 
ATOM     24  C   UNL     1      -4.741  -2.188  -0.081  0.00  0.00    -0.000 C 
ATOM     25  C   UNL     1      -5.610  -1.345   0.613  0.00  0.00    -0.000 C 
ENDBRANCH  19  20
ENDBRANCH  18  19
ENDBRANCH   7  18
BRANCH   8  26
ATOM     26  C   UNL     1      -0.129   3.183  -0.009  0.00  0.00    +0.193 C 
BRANCH  26  27
ATOM     27  O   UNL     1      -0.679   3.142   1.289  0.00  0.00    -0.375 OA
ATOM     28  H   UNL     1      -1.136   3.977   1.474  0.00  0.00    +0.211 HD
ENDBRANCH  26  27
ENDBRANCH   8  26
TORSDOF 5
