REMARK  Name = 97577
REMARK  6 active torsions:
REMARK  status: ('A' for Active; 'I' for Inactive)
REMARK    1  A    between atoms: C2*_2  and  O2*_16
REMARK    2  A    between atoms: C3*_3  and  O3*_18
REMARK    3  A    between atoms: C1*_4  and  N_7
REMARK    4  A    between atoms: C4*_5  and  C5*_20
REMARK    5  A    between atoms: C_12  and  N_13
REMARK    6  A    between atoms: C5*_20  and  O5*_21
REMARK                            x       y       z     vdW  Elec       q    Type
REMARK                         _______ _______ _______ _____ _____    ______ ____
ROOT
ATOM      1  O4* UNL     1      -1.416  -0.540   1.039  0.00  0.00    -0.333 OA
ATOM      2  C2* UNL     1      -1.351   0.962  -0.792  0.00  0.00    +0.187 C 
ATOM      3  C3* UNL     1      -2.792   0.584  -0.525  0.00  0.00    +0.171 C 
ATOM      4  C1* UNL     1      -0.672   0.573   0.512  0.00  0.00    +0.228 C 
ATOM      5  C4* UNL     1      -2.642  -0.692   0.291  0.00  0.00    +0.175 C 
ENDROOT
BRANCH   4   7
ATOM      6  O   UNL     1       1.534   2.349   0.708  0.00  0.00    -0.269 OA
ATOM      7  N   UNL     1       0.702   0.206   0.279  0.00  0.00    -0.229 N 
ATOM      8  C   UNL     1       1.719   1.172   0.405  0.00  0.00    +0.256 C 
ATOM      9  C   UNL     1       1.020  -1.104  -0.072  0.00  0.00    +0.071 C 
ATOM     10  C   UNL     1       3.116   0.707   0.146  0.00  0.00    +0.072 C 
ATOM     11  C   UNL     1       2.277  -1.502  -0.300  0.00  0.00    +0.030 C 
ATOM     12  C   UNL     1       3.381  -0.568  -0.189  0.00  0.00    +0.047 C 
BRANCH  12  13
ATOM     13  N   UNL     1       4.642  -1.036  -0.434  0.00  0.00    -0.357 N 
ATOM     14  H   UNL     1       5.414  -0.428  -0.368  0.00  0.00    +0.142 HD
ATOM     15  H   UNL     1       4.778  -1.980  -0.677  0.00  0.00    +0.142 HD
ENDBRANCH  12  13
ENDBRANCH   4   7
BRANCH   2  16
ATOM     16  O2* UNL     1      -1.205   2.335  -1.092  0.00  0.00    -0.378 OA
ATOM     17  H2* UNL     1      -1.653   2.533  -1.929  0.00  0.00    +0.211 HD
ENDBRANCH   2  16
BRANCH   3  18
ATOM     18  O3* UNL     1      -3.416   1.565   0.304  0.00  0.00    -0.379 OA
ATOM     19  H3* UNL     1      -3.523   2.389  -0.195  0.00  0.00    +0.211 HD
ENDBRANCH   3  18
BRANCH   5  20
ATOM     20  C5* UNL     1      -2.522  -1.945  -0.567  0.00  0.00    +0.169 C 
BRANCH  20  21
ATOM     21  O5* UNL     1      -2.376  -3.066   0.286  0.00  0.00    -0.379 OA
ATOM     22  H5* UNL     1      -2.299  -3.872  -0.249  0.00  0.00    +0.211 HD
ENDBRANCH  20  21
ENDBRANCH   5  20
TORSDOF 6
