REMARK  Name = 6918537
REMARK  5 active torsions:
REMARK  status: ('A' for Active; 'I' for Inactive)
REMARK    1  A    between atoms: N_1  and  C_4
REMARK    2  A    between atoms: N_1  and  C_16
REMARK    3  A    between atoms: C_5  and  O_14
REMARK    4  A    between atoms: C_16  and  C_19
REMARK    5  A    between atoms: C_20  and  C_25
REMARK                            x       y       z     vdW  Elec       q    Type
REMARK                         _______ _______ _______ _____ _____    ______ ____
ROOT
ATOM      1  N   UNL     1      -0.354  -1.200  -0.194  0.00  0.00    +0.392 N 
ATOM      2  H   UNL     1      -0.251  -1.808  -1.006  0.00  0.00    -0.084 HD
ATOM      3  H   UNL     1      -0.207  -1.728   0.666  0.00  0.00    -0.084 HD
ENDROOT
BRANCH   1   4
ATOM      4  C   UNL     1      -1.706  -0.644  -0.178  0.00  0.00    -0.043 C 
ATOM      5  C   UNL     1      -3.301   0.861   1.072  0.00  0.00    +0.086 C 
ATOM      6  C   UNL     1      -3.395   0.751  -1.443  0.00  0.00    +0.000 C 
ATOM      7  C   UNL     1      -4.168  -1.214  -0.062  0.00  0.00    +0.000 C 
ATOM      8  C   UNL     1      -1.874   0.282   1.044  0.00  0.00    +0.007 C 
ATOM      9  C   UNL     1      -1.969   0.170  -1.466  0.00  0.00    -0.019 C 
ATOM     10  C   UNL     1      -2.739  -1.789  -0.087  0.00  0.00    -0.019 C 
ATOM     11  C   UNL     1      -3.548   1.664  -0.216  0.00  0.00    +0.027 C 
ATOM     12  C   UNL     1      -4.319  -0.289   1.156  0.00  0.00    +0.027 C 
ATOM     13  C   UNL     1      -4.410  -0.401  -1.346  0.00  0.00    +0.000 C 
BRANCH   5  14
ATOM     14  O   UNL     1      -3.452   1.724   2.191  0.00  0.00    -0.387 OA
ATOM     15  H   UNL     1      -2.807   2.447   2.131  0.00  0.00    +0.210 HD
ENDBRANCH   5  14
ENDBRANCH   1   4
BRANCH   1  16
ATOM     16  C   UNL     1       0.639  -0.139  -0.265  0.00  0.00    +0.006 C 
BRANCH  16  19
ATOM     17  O   UNL     1       2.172  -1.960  -0.227  0.00  0.00    -0.277 OA
ATOM     18  N   UNL     1       3.067   0.172  -0.334  0.00  0.00    -0.270 N 
ATOM     19  C   UNL     1       2.023  -0.738  -0.275  0.00  0.00    +0.205 C 
ATOM     20  C   UNL     1       4.466  -0.242  -0.457  0.00  0.00    +0.167 C 
ATOM     21  C   UNL     1       2.938   1.626  -0.392  0.00  0.00    +0.094 C 
ATOM     22  C   UNL     1       5.184   1.027  -0.920  0.00  0.00    +0.037 C 
ATOM     23  C   UNL     1       4.363   2.148  -0.289  0.00  0.00    +0.024 C 
BRANCH  20  25
ATOM     24  N   UNL     1       5.396  -1.093   1.853  0.00  0.00    -0.194 NA
ATOM     25  C   UNL     1       4.986  -0.718   0.835  0.00  0.00    +0.093 C 
ENDBRANCH  20  25
ENDBRANCH  16  19
ENDBRANCH   1  16
TORSDOF 5
