REMARK  Name = 6038
REMARK  0 active torsions:
REMARK  status: ('A' for Active; 'I' for Inactive)
REMARK                            x       y       z     vdW  Elec       q    Type
REMARK                         _______ _______ _______ _____ _____    ______ ____
ROOT
ATOM      1  O   UNL     1      -3.337  -0.755   0.000  0.00  0.00    -0.270 OA
ATOM      2  N   UNL     1      -1.063  -1.119   0.000  0.00  0.00    -0.280 N 
ATOM      3  C   UNL     1       0.248  -0.611   0.000  0.00  0.00    +0.050 C 
ATOM      4  C   UNL     1       0.449   0.774   0.000  0.00  0.00    +0.014 C 
ATOM      5  C   UNL     1      -0.715   1.657   0.000  0.00  0.00    +0.006 C 
ATOM      6  C   UNL     1       1.335  -1.488   0.000  0.00  0.00    +0.015 C 
ATOM      7  C   UNL     1       1.752   1.280   0.000  0.00  0.00    +0.001 C 
ATOM      8  C   UNL     1      -2.188  -0.318   0.000  0.00  0.00    +0.250 C 
ATOM      9  C   UNL     1      -1.954   1.152   0.000  0.00  0.00    +0.058 C 
ATOM     10  C   UNL     1       2.632  -0.976   0.000  0.00  0.00    +0.001 C 
ATOM     11  C   UNL     1       2.840   0.404   0.000  0.00  0.00    +0.000 C 
ATOM     12  H   UNL     1      -1.186  -2.096  -0.001  0.00  0.00    +0.155 HD
ENDROOT
TORSDOF 0
