REMARK  Name = 170018
REMARK  9 active torsions:
REMARK  status: ('A' for Active; 'I' for Inactive)
REMARK    1  A    between atoms: C_1  and  N_2
REMARK    2  A    between atoms: C_1  and  C_7
REMARK    3  A    between atoms: C_1  and  C_10
REMARK    4  A    between atoms: C_7  and  O_8
REMARK    5  A    between atoms: C_10  and  S_11
REMARK    6  A    between atoms: S_11  and  S_12
REMARK    7  A    between atoms: S_12  and  C_13
REMARK    8  A    between atoms: C_13  and  C_14
REMARK    9  A    between atoms: C_14  and  O_15
REMARK                            x       y       z     vdW  Elec       q    Type
REMARK                         _______ _______ _______ _____ _____    ______ ____
ROOT
ATOM      1  C   UNK     1       1.673  -0.662  -0.332  0.00  0.00    +0.047 C 
ENDROOT
BRANCH   1   2
ATOM      2  N   UNK     1       2.652  -1.742  -0.479  0.00  0.00    +0.389 N 
ATOM      3  H   UNK     1       2.167  -2.613  -0.693  0.00  0.00    -0.088 HD
ATOM      4  H   UNK     1       3.175  -1.847   0.391  0.00  0.00    -0.088 HD
ATOM      5  H   UNK     1       3.296  -1.516  -1.237  0.00  0.00    -0.088 HD
ENDBRANCH   1   2
BRANCH   1   7
ATOM      6  O   UNK     1       3.100   0.761   1.004  0.00  0.00    -0.253 OA
ATOM      7  C   UNK     1       2.439   0.609  -0.016  0.00  0.00    +0.294 C 
BRANCH   7   8
ATOM      8  O   UNK     1       2.297   1.581  -0.952  0.00  0.00    -0.482 OA
ATOM      9  H   UNK     1       1.782   1.421  -1.719  0.00  0.00    +0.295 HD
ENDBRANCH   7   8
ENDBRANCH   1   7
BRANCH   1  10
ATOM     10  C   UNK     1       0.663  -1.017   0.760  0.00  0.00    +0.058 C 
BRANCH  10  11
ATOM     11  S   UNK     1      -0.564   0.306   1.009  0.00  0.00    -0.084 S 
BRANCH  11  12
ATOM     12  S   UNK     1      -1.429   0.412  -0.852  0.00  0.00    -0.080 S 
BRANCH  12  13
ATOM     13  C   UNK     1      -2.785  -0.775  -0.697  0.00  0.00    +0.100 C 
BRANCH  13  14
ATOM     14  C   UNK     1      -3.746  -0.377   0.412  0.00  0.00    +0.150 C 
BRANCH  14  15
ATOM     15  O   UNK     1      -4.301   0.903   0.142  0.00  0.00    -0.381 OA
ATOM     16  H   UNK     1      -4.912   1.148   0.854  0.00  0.00    +0.210 HD
ENDBRANCH  14  15
ENDBRANCH  13  14
ENDBRANCH  12  13
ENDBRANCH  11  12
ENDBRANCH  10  11
ENDBRANCH   1  10
TORSDOF 9
