REMARK  Name = 1698
REMARK  11 active torsions:
REMARK  status: ('A' for Active; 'I' for Inactive)
REMARK    1  A    between atoms: C_1  and  C_3
REMARK    2  A    between atoms: C_1  and  C_10
REMARK    3  A    between atoms: C_3  and  C_4
REMARK    4  A    between atoms: C_4  and  C_5
REMARK    5  A    between atoms: C_5  and  C_7
REMARK    6  A    between atoms: C_7  and  O_8
REMARK    7  A    between atoms: C_10  and  C_12
REMARK    8  A    between atoms: C_12  and  C_13
REMARK    9  A    between atoms: C_13  and  C_14
REMARK   10  A    between atoms: C_14  and  C_16
REMARK   11  A    between atoms: C_16  and  O_17
REMARK                            x       y       z     vdW  Elec       q    Type
REMARK                         _______ _______ _______ _____ _____    ______ ____
ROOT
ATOM      1  C   UNL     1      -0.638   0.560  -0.005  0.00  0.00    +0.072 C 
ENDROOT
BRANCH   1   3
ATOM      2  O   UNL     1      -1.817  -1.525   0.092  0.00  0.00    -0.296 OA
ATOM      3  C   UNL     1      -1.889  -0.295   0.054  0.00  0.00    +0.152 C 
BRANCH   3   4
ATOM      4  C   UNL     1      -3.231   0.410   0.116  0.00  0.00    +0.076 C 
BRANCH   4   5
ATOM      5  C   UNL     1      -4.387  -0.576   0.004  0.00  0.00    +0.117 C 
BRANCH   5   7
ATOM      6  O   UNL     1      -5.956   1.287   0.141  0.00  0.00    -0.250 OA
ATOM      7  C   UNL     1      -5.746   0.091   0.000  0.00  0.00    +0.314 C 
BRANCH   7   8
ATOM      8  O   UNL     1      -6.740  -0.816  -0.191  0.00  0.00    -0.480 OA
ATOM      9  H   UNL     1      -6.533  -1.724  -0.295  0.00  0.00    +0.295 HD
ENDBRANCH   7   8
ENDBRANCH   5   7
ENDBRANCH   4   5
ENDBRANCH   3   4
ENDBRANCH   1   3
BRANCH   1  10
ATOM     10  C   UNL     1       0.619  -0.298  -0.074  0.00  0.00    +0.072 C 
BRANCH  10  12
ATOM     11  O   UNL     1       1.921   1.738  -0.109  0.00  0.00    -0.296 OA
ATOM     12  C   UNL     1       1.911   0.508  -0.081  0.00  0.00    +0.152 C 
BRANCH  12  13
ATOM     13  C   UNL     1       3.193  -0.314  -0.054  0.00  0.00    +0.076 C 
BRANCH  13  14
ATOM     14  C   UNL     1       4.460   0.535  -0.053  0.00  0.00    +0.117 C 
BRANCH  14  16
ATOM     15  O   UNL     1       5.777  -1.518   0.030  0.00  0.00    -0.250 OA
ATOM     16  C   UNL     1       5.717  -0.298   0.031  0.00  0.00    +0.314 C 
BRANCH  16  17
ATOM     17  O   UNL     1       6.806   0.510   0.099  0.00  0.00    -0.480 OA
ATOM     18  H   UNL     1       6.700   1.441   0.097  0.00  0.00    +0.295 HD
ENDBRANCH  16  17
ENDBRANCH  14  16
ENDBRANCH  13  14
ENDBRANCH  12  13
ENDBRANCH  10  12
ENDBRANCH   1  10
TORSDOF 11
