REMARK  Name = 451597
REMARK  8 active torsions:
REMARK  status: ('A' for Active; 'I' for Inactive)
REMARK    1  A    between atoms: C_2  and  N_18
REMARK    2  A    between atoms: C_3  and  O_22
REMARK    3  A    between atoms: C_4  and  N_6
REMARK    4  A    between atoms: C_5  and  C_24
REMARK    5  A    between atoms: C_24  and  O_25
REMARK    6  A    between atoms: O_25  and  P_26
REMARK    7  A    between atoms: P_26  and  O_28
REMARK    8  A    between atoms: P_26  and  O_30
REMARK                            x       y       z     vdW  Elec       q    Type
REMARK                         _______ _______ _______ _____ _____    ______ ____
ROOT
ATOM      1  O   UNL     1       1.480  -0.497   0.727  0.00  0.00    -0.338 OA
ATOM      2  C   UNL     1       1.850  -1.843  -1.168  0.00  0.00    -0.004 C 
ATOM      3  C   UNL     1       0.593  -2.369  -0.488  0.00  0.00    +0.140 C 
ATOM      4  C   UNL     1       0.285  -1.284   0.547  0.00  0.00    +0.220 C 
ATOM      5  C   UNL     1       2.544  -1.107  -0.027  0.00  0.00    +0.130 C 
ENDROOT
BRANCH   4   6
ATOM      6  N   UNL     1      -0.823  -0.406   0.164  0.00  0.00    -0.247 N 
ATOM      7  N   UNL     1      -1.895   1.304  -0.780  0.00  0.00    -0.242 NA
ATOM      8  N   UNL     1      -2.688  -1.521   1.249  0.00  0.00    -0.228 NA
ATOM      9  N   UNL     1      -4.899   1.658  -0.471  0.00  0.00    -0.289 N 
ATOM     10  N   UNL     1      -4.785  -0.339   0.843  0.00  0.00    -0.228 NA
ATOM     11  C   UNL     1      -2.138  -0.552   0.502  0.00  0.00    +0.152 C 
ATOM     12  C   UNL     1      -0.727   0.722  -0.606  0.00  0.00    +0.223 C 
ATOM     13  C   UNL     1      -2.786   0.518  -0.094  0.00  0.00    +0.140 C 
ATOM     14  C   UNL     1      -4.161   0.606   0.098  0.00  0.00    +0.149 C 
ATOM     15  C   UNL     1      -4.021  -1.329   1.365  0.00  0.00    +0.253 C 
ATOM     16  C   UNL     1      -4.287   2.956  -0.691  0.00  0.00    +0.114 C 
ATOM     17  C   UNL     1      -6.284   1.462  -0.862  0.00  0.00    +0.114 C 
ENDBRANCH   4   6
BRANCH   2  18
ATOM     18  N   UNL     1       2.672  -2.865  -1.790  0.00  0.00    +0.385 N 
ATOM     19  H   UNL     1       2.146  -3.314  -2.541  0.00  0.00    -0.089 HD
ATOM     20  H   UNL     1       2.932  -3.563  -1.094  0.00  0.00    -0.089 HD
ATOM     21  H   UNL     1       3.514  -2.437  -2.174  0.00  0.00    -0.089 HD
ENDBRANCH   2  18
BRANCH   3  22
ATOM     22  O   UNL     1       0.834  -3.600   0.192  0.00  0.00    -0.382 OA
ATOM     23  H   UNL     1       1.030  -4.295  -0.456  0.00  0.00    +0.210 HD
ENDBRANCH   3  22
BRANCH   5  24
ATOM     24  C   UNL     1       3.526  -0.041  -0.480  0.00  0.00    +0.181 C 
BRANCH  24  25
ATOM     25  O   UNL     1       4.094   0.574   0.665  0.00  0.00    -0.271 OA
BRANCH  25  26
ATOM     26  P   UNL     1       5.181   1.753   0.447  0.00  0.00    +0.473 P 
ATOM     27  O   UNL     1       5.731   2.350   1.710  0.00  0.00    -0.227 OA
BRANCH  26  28
ATOM     28  O   UNL     1       4.428   2.792  -0.537  0.00  0.00    -0.303 OA
ATOM     29  H   UNL     1       4.108   2.320  -1.322  0.00  0.00    +0.222 HD
ENDBRANCH  26  28
BRANCH  26  30
ATOM     30  O   UNL     1       6.279   1.058  -0.515  0.00  0.00    -0.303 OA
ATOM     31  H   UNL     1       5.839   0.701  -1.302  0.00  0.00    +0.222 HD
ENDBRANCH  26  30
ENDBRANCH  25  26
ENDBRANCH  24  25
ENDBRANCH   5  24
TORSDOF 8
