REMARK  Name = 3052778
REMARK  4 active torsions:
REMARK  status: ('A' for Active; 'I' for Inactive)
REMARK    1  A    between atoms: N_2  and  C_7
REMARK    2  A    between atoms: C_3  and  C_16
REMARK    3  A    between atoms: C_17  and  O_25
REMARK    4  A    between atoms: C_21  and  N_22
REMARK                            x       y       z     vdW  Elec       q    Type
REMARK                         _______ _______ _______ _____ _____    ______ ____
ROOT
ATOM      1  O   UNL     1      -0.301  -1.462  -1.415  0.00  0.00    -0.270 OA
ATOM      2  N   UNL     1       0.728   0.408  -0.510  0.00  0.00    -0.303 N 
ATOM      3  C   UNL     1      -0.361  -0.381  -0.835  0.00  0.00    +0.249 C 
ATOM      4  H   UNL     1       0.574   1.261  -0.044  0.00  0.00    +0.150 HD
ENDROOT
BRANCH   2   7
ATOM      5  N   UNL     1       4.048   1.013   1.133  0.00  0.00    +0.387 N 
ATOM      6  C   UNL     1       2.672  -0.846   0.304  0.00  0.00    -0.003 C 
ATOM      7  C   UNL     1       2.087   0.022  -0.833  0.00  0.00    +0.068 C 
ATOM      8  C   UNL     1       3.028   0.031   1.509  0.00  0.00    -0.076 C 
ATOM      9  C   UNL     1       3.922  -1.636  -0.121  0.00  0.00    -0.003 C 
ATOM     10  C   UNL     1       2.927   1.269  -1.139  0.00  0.00    -0.003 C 
ATOM     11  C   UNL     1       3.522   1.928   0.112  0.00  0.00    -0.076 C 
ATOM     12  C   UNL     1       5.167  -0.768  -0.303  0.00  0.00    -0.023 C 
ATOM     13  C   UNL     1       5.295   0.335   0.753  0.00  0.00    -0.077 C 
ATOM     14  H   UNL     1       4.284   1.598   1.934  0.00  0.00    -0.080 HD
ENDBRANCH   2   7
BRANCH   3  16
ATOM     15 CL   UNL     1      -5.278  -1.208   0.599  0.00  0.00    -0.078 Cl
ATOM     16  C   UNL     1      -1.690   0.168  -0.460  0.00  0.00    +0.088 C 
ATOM     17  C   UNL     1      -2.727  -0.688  -0.147  0.00  0.00    +0.155 C 
ATOM     18  C   UNL     1      -1.839   1.541  -0.434  0.00  0.00    +0.009 C 
ATOM     19  C   UNL     1      -3.964  -0.149   0.205  0.00  0.00    +0.104 C 
ATOM     20  C   UNL     1      -3.076   2.079  -0.082  0.00  0.00    +0.015 C 
ATOM     21  C   UNL     1      -4.139   1.234   0.238  0.00  0.00    +0.055 C 
BRANCH  21  22
ATOM     22  N   UNL     1      -5.379   1.813   0.590  0.00  0.00    -0.356 N 
ATOM     23  H   UNL     1      -6.144   1.237   0.820  0.00  0.00    +0.142 HD
ATOM     24  H   UNL     1      -5.478   2.793   0.605  0.00  0.00    +0.142 HD
ENDBRANCH  21  22
BRANCH  17  25
ATOM     25  O   UNL     1      -2.543  -2.040  -0.183  0.00  0.00    -0.470 OA
ATOM     26  C   UNL     1      -2.102  -2.663   1.020  0.00  0.00    +0.253 C 
ENDBRANCH  17  25
ENDBRANCH   3  16
TORSDOF 4
