REMARK  Name = 5326566
REMARK  0 active torsions:
REMARK  status: ('A' for Active; 'I' for Inactive)
REMARK                            x       y       z     vdW  Elec       q    Type
REMARK                         _______ _______ _______ _____ _____    ______ ____
ROOT
ATOM      1  O   UNL     1      -2.533   2.591   0.000  0.00  0.00    -0.264 OA
ATOM      2  O   UNL     1      -4.822  -1.422   0.002  0.00  0.00    -0.247 OA
ATOM      3  N   UNL     1      -0.147   1.320   0.000  0.00  0.00    -0.395 NA
ATOM      4  N   UNL     1      -0.150  -1.462  -0.001  0.00  0.00    -0.383 NA
ATOM      5  N   UNL     1      -2.526  -1.450  -0.001  0.00  0.00    -0.280 N 
ATOM      6  N   UNL     1      -3.695   0.587   0.000  0.00  0.00    -0.272 N 
ATOM      7  C   UNL     1       1.008   0.634   0.000  0.00  0.00    +0.139 C 
ATOM      8  C   UNL     1       1.006  -0.774  -0.001  0.00  0.00    +0.140 C 
ATOM      9  C   UNL     1       3.436  -0.763   0.000  0.00  0.00    -0.044 C 
ATOM     10  C   UNL     1       3.437   0.624   0.000  0.00  0.00    -0.044 C 
ATOM     11  C   UNL     1       2.224   1.311   0.000  0.00  0.00    +0.083 C 
ATOM     12  C   UNL     1       2.223  -1.451  -0.001  0.00  0.00    +0.083 C 
ATOM     13  C   UNL     1      -1.288   0.606   0.000  0.00  0.00    +0.233 A 
ATOM     14  C   UNL     1      -1.302  -0.766  -0.001  0.00  0.00    +0.229 A 
ATOM     15  C   UNL     1      -2.544   1.365   0.000  0.00  0.00    +0.295 A 
ATOM     16  C   UNL     1       4.713  -1.537   0.002  0.00  0.00    +0.026 C 
ATOM     17  C   UNL     1       4.714   1.396   0.001  0.00  0.00    +0.026 C 
ATOM     18  C   UNL     1      -3.754  -0.808   0.000  0.00  0.00    +0.329 A 
ATOM     19  H   UNL     1      -2.512  -2.435  -0.001  0.00  0.00    +0.173 HD
ATOM     20  H   UNL     1      -4.555   1.067   0.000  0.00  0.00    +0.174 HD
ENDROOT
TORSDOF 0
