REMARK  Name = 115244
REMARK  1 active torsions:
REMARK  status: ('A' for Active; 'I' for Inactive)
REMARK    1  A    between atoms: C_2  and  C_10
REMARK                            x       y       z     vdW  Elec       q    Type
REMARK                         _______ _______ _______ _____ _____    ______ ____
ROOT
ATOM      1  N   UNL     1      -0.918  -0.631   0.035  0.00  0.00    +0.396 N 
ATOM      2  C   UNL     1       0.274  -0.022  -0.721  0.00  0.00    +0.051 C 
ATOM      3  C   UNL     1      -1.341   0.477   0.993  0.00  0.00    -0.072 C 
ATOM      4  C   UNL     1      -0.099   1.449  -0.877  0.00  0.00    -0.011 C 
ATOM      5  C   UNL     1      -1.102   1.767   0.228  0.00  0.00    -0.024 C 
ATOM      6  C   UNL     1      -2.051  -0.967  -0.936  0.00  0.00    -0.095 C 
ATOM      7  C   UNL     1      -0.546  -1.899   0.786  0.00  0.00    -0.095 C 
ENDROOT
BRANCH   2  10
ATOM      8  O   UNL     1       1.632   0.517   1.124  0.00  0.00    -0.248 OA
ATOM      9  O   UNL     1       2.537  -0.641  -0.629  0.00  0.00    -0.248 OA
ATOM     10  C   UNL     1       1.613  -0.051  -0.003  0.00  0.00    +0.346 C 
ENDBRANCH   2  10
TORSDOF 1
