REMARK  Name = 34474
REMARK  1 active torsions:
REMARK  status: ('A' for Active; 'I' for Inactive)
REMARK    1  A    between atoms: C_5  and  C_12
REMARK                            x       y       z     vdW  Elec       q    Type
REMARK                         _______ _______ _______ _____ _____    ______ ____
ROOT
ATOM      1 BR   UNL     1      -0.804   3.120  -0.002  0.00  0.00    -0.046 Br
ATOM      2 BR   UNL     1       1.797  -2.987   0.001  0.00  0.00    -0.046 Br
ATOM      3  O   UNL     1      -1.064  -2.089   0.002  0.00  0.00    -0.286 OA
ATOM      4  O   UNL     1       2.057   2.222   0.001  0.00  0.00    -0.286 OA
ATOM      5  C   UNL     1      -0.942   0.271   0.000  0.00  0.00    +0.026 C 
ATOM      6  C   UNL     1      -0.151   1.356   0.000  0.00  0.00    +0.072 C 
ATOM      7  C   UNL     1      -0.340  -1.095   0.001  0.00  0.00    +0.198 C 
ATOM      8  C   UNL     1       1.935  -0.138   0.000  0.00  0.00    +0.027 C 
ATOM      9  C   UNL     1       1.144  -1.223   0.001  0.00  0.00    +0.072 C 
ATOM     10  C   UNL     1       1.333   1.228   0.001  0.00  0.00    +0.198 C 
ATOM     11  C   UNL     1       3.442  -0.144  -0.001  0.00  0.00    +0.035 C 
ENDROOT
BRANCH   5  12
ATOM     12  C   UNL     1      -2.449   0.278  -0.001  0.00  0.00    +0.026 C 
ATOM     13  C   UNL     1      -2.971  -0.403  -1.259  0.00  0.00    +0.005 C 
ATOM     14  C   UNL     1      -2.986  -0.396   1.255  0.00  0.00    +0.005 C 
ENDBRANCH   5  12
TORSDOF 1
