REMARK  Name = 62474
REMARK  1 active torsions:
REMARK  status: ('A' for Active; 'I' for Inactive)
REMARK    1  A    between atoms: S_1  and  C_5
REMARK                            x       y       z     vdW  Elec       q    Type
REMARK                         _______ _______ _______ _____ _____    ______ ____
ROOT
ATOM      1  S   UNL     1      -0.464   0.123   0.036  0.00  0.00    +0.043 S 
ATOM      2  O   UNL     1      -1.455  -1.102  -0.387  0.00  0.00    -0.065 OA
ATOM      3  O   UNL     1      -0.575   1.155  -0.981  0.00  0.00    -0.065 OA
ATOM      4  O   UNL     1      -0.712   0.435   1.433  0.00  0.00    -0.065 OA
ENDROOT
BRANCH   1   5
ATOM      5  C   UNL     1       1.050  -0.675  -0.115  0.00  0.00    +0.130 C 
ATOM      6  C   UNL     1       2.154   0.063   0.014  0.00  0.00    +0.022 C 
ENDBRANCH   1   5
TORSDOF 1
