REMARK  Name = 446916
REMARK  6 active torsions:
REMARK  status: ('A' for Active; 'I' for Inactive)
REMARK    1  A    between atoms: C_4  and  C_17
REMARK    2  A    between atoms: CA_7  and  C_14
REMARK    3  A    between atoms: C_14  and  O_15
REMARK    4  A    between atoms: C_17  and  C_18
REMARK    5  A    between atoms: C_18  and  C_20
REMARK    6  A    between atoms: C_20  and  O_21
REMARK                            x       y       z     vdW  Elec       q    Type
REMARK                         _______ _______ _______ _____ _____    ______ ____
ROOT
ATOM      1 CL   UNL     1      -0.377  -2.809  -0.678  0.00  0.00    -0.082 Cl
ATOM      2 CL   UNL     1      -5.372  -1.044   0.400  0.00  0.00    -0.082 Cl
ATOM      3  N   UNL     1      -1.121   1.965   0.169  0.00  0.00    -0.348 N 
ATOM      4  C   UNL     1       0.330   0.354  -0.311  0.00  0.00    +0.003 A 
ATOM      5  C   UNL     1      -0.962  -0.231  -0.191  0.00  0.00    +0.024 A 
ATOM      6  C   UNL     1      -1.853   0.801   0.110  0.00  0.00    +0.058 A 
ATOM      7  CA  UNL     1       0.200   1.705  -0.084  0.00  0.00    +0.129 A 
ATOM      8  C   UNL     1      -1.459  -1.544  -0.310  0.00  0.00    +0.060 C 
ATOM      9  C   UNL     1      -3.223   0.585   0.299  0.00  0.00    +0.028 C 
ATOM     10  C   UNL     1      -2.827  -1.775  -0.124  0.00  0.00    +0.023 C 
ATOM     11  C   UNL     1      -3.693  -0.726   0.176  0.00  0.00    +0.060 C 
ATOM     12  H   UNL     1      -1.492   2.855   0.364  0.00  0.00    +0.166 HD
ENDROOT
BRANCH   7  14
ATOM     13  OXT UNL     1       2.428   2.546  -0.316  0.00  0.00    -0.243 OA
ATOM     14  C   UNL     1       1.210   2.717  -0.093  0.00  0.00    +0.354 C 
BRANCH  14  15
ATOM     15  O   UNL     1       0.727   3.972   0.174  0.00  0.00    -0.476 OA
ATOM     16  H   UNL     1      -0.187   4.096   0.341  0.00  0.00    +0.295 HD
ENDBRANCH  14  15
ENDBRANCH   7  14
BRANCH   4  17
ATOM     17  C   UNL     1       1.605  -0.330  -0.621  0.00  0.00    +0.040 C 
BRANCH  17  18
ATOM     18  C   UNL     1       2.376  -0.833   0.615  0.00  0.00    +0.114 C 
BRANCH  18  20
ATOM     19  O   UNL     1       4.097  -1.729  -0.861  0.00  0.00    -0.250 OA
ATOM     20  C   UNL     1       3.655  -1.564   0.267  0.00  0.00    +0.314 C 
BRANCH  20  21
ATOM     21  O   UNL     1       4.261  -2.060   1.379  0.00  0.00    -0.480 OA
ATOM     22  H   UNL     1       3.885  -1.908   2.224  0.00  0.00    +0.295 HD
ENDBRANCH  20  21
ENDBRANCH  18  20
ENDBRANCH  17  18
ENDBRANCH   4  17
TORSDOF 6
