REMARK  Name = 77918
REMARK  2 active torsions:
REMARK  status: ('A' for Active; 'I' for Inactive)
REMARK    1  A    between atoms: C_1  and  C_2
REMARK    2  A    between atoms: C_1  and  N_8
REMARK                            x       y       z     vdW  Elec       q    Type
REMARK                         _______ _______ _______ _____ _____    ______ ____
ROOT
ATOM      1  C   UNL     1       0.384  -0.061  -1.394  0.00  0.00    +0.124 C 
ENDROOT
BRANCH   1   2
ATOM      2  C   UNL     1      -0.901  -0.025  -0.638  0.00  0.00    -0.002 C 
ATOM      3  C   UNL     1      -1.490   1.200  -0.321  0.00  0.00    -0.003 C 
ATOM      4  C   UNL     1      -1.515  -1.215  -0.248  0.00  0.00    -0.003 C 
ATOM      5  C   UNL     1      -2.692   1.233   0.387  0.00  0.00    -0.000 C 
ATOM      6  C   UNL     1      -2.717  -1.181   0.459  0.00  0.00    -0.000 C 
ATOM      7  C   UNL     1      -3.305   0.043   0.776  0.00  0.00    -0.000 C 
ENDBRANCH   1   2
BRANCH   1   8
ATOM      8  N   UNL     1       1.545  -0.046  -0.498  0.00  0.00    -0.264 N 
ATOM      9  N   UNL     1       3.183   0.749   0.735  0.00  0.00    -0.225 NA
ATOM     10  C   UNL     1       2.155  -1.139   0.014  0.00  0.00    +0.088 C 
ATOM     11  C   UNL     1       2.178   1.064  -0.052  0.00  0.00    +0.168 C 
ATOM     12  C   UNL     1       3.174  -0.623   0.780  0.00  0.00    +0.117 C 
ENDBRANCH   1   8
TORSDOF 2
