1698
  -OEChem-10051720373D

 30 29  0     0  0  0  0  0  0999 V2000
   -1.8168   -1.5246    0.0924 O   0  0  0  0  0  0  0  0  0  0  0  0
    1.9206    1.7378   -0.1088 O   0  0  0  0  0  0  0  0  0  0  0  0
   -6.7403   -0.8162   -0.1913 O   0  0  0  0  0  0  0  0  0  0  0  0
    6.8062    0.5105    0.0992 O   0  0  0  0  0  0  0  0  0  0  0  0
   -5.9558    1.2872    0.1409 O   0  0  0  0  0  0  0  0  0  0  0  0
    5.7771   -1.5179    0.0298 O   0  0  0  0  0  0  0  0  0  0  0  0
   -0.6377    0.5604   -0.0049 C   0  0  0  0  0  0  0  0  0  0  0  0
    0.6188   -0.2983   -0.0741 C   0  0  0  0  0  0  0  0  0  0  0  0
   -1.8887   -0.2952    0.0536 C   0  0  0  0  0  0  0  0  0  0  0  0
    1.9108    0.5085   -0.0809 C   0  0  0  0  0  0  0  0  0  0  0  0
   -3.2306    0.4100    0.1161 C   0  0  0  0  0  0  0  0  0  0  0  0
    3.1926   -0.3144   -0.0538 C   0  0  0  0  0  0  0  0  0  0  0  0
   -4.3874   -0.5764    0.0041 C   0  0  0  0  0  0  0  0  0  0  0  0
    4.4601    0.5355   -0.0530 C   0  0  0  0  0  0  0  0  0  0  0  0
   -5.7458    0.0909   -0.0004 C   0  0  0  0  0  0  0  0  0  0  0  0
    5.7169   -0.2977    0.0310 C   0  0  0  0  0  0  0  0  0  0  0  0
   -0.6158    1.1953    0.8876 H   0  0  0  0  0  0  0  0  0  0  0  0
   -0.7028    1.2068   -0.8869 H   0  0  0  0  0  0  0  0  0  0  0  0
    0.6045   -0.9131   -0.9817 H   0  0  0  0  0  0  0  0  0  0  0  0
    0.6566   -0.9711    0.7910 H   0  0  0  0  0  0  0  0  0  0  0  0
   -3.2868    0.9606    1.0614 H   0  0  0  0  0  0  0  0  0  0  0  0
   -3.2754    1.1336   -0.7055 H   0  0  0  0  0  0  0  0  0  0  0  0
    3.1682   -0.9433    0.8437 H   0  0  0  0  0  0  0  0  0  0  0  0
    3.1889   -0.9742   -0.9291 H   0  0  0  0  0  0  0  0  0  0  0  0
   -4.3628   -1.2780    0.8460 H   0  0  0  0  0  0  0  0  0  0  0  0
   -4.2934   -1.1493   -0.9262 H   0  0  0  0  0  0  0  0  0  0  0  0
    4.5051    1.1346   -0.9696 H   0  0  0  0  0  0  0  0  0  0  0  0
    4.4443    1.2162    0.8062 H   0  0  0  0  0  0  0  0  0  0  0  0
   -7.6249   -0.3922   -0.1983 H   0  0  0  0  0  0  0  0  0  0  0  0
    7.6402   -0.0035    0.1498 H   0  0  0  0  0  0  0  0  0  0  0  0
  1  9  2  0  0  0  0
  2 10  2  0  0  0  0
  3 15  1  0  0  0  0
  3 29  1  0  0  0  0
  4 16  1  0  0  0  0
  4 30  1  0  0  0  0
  5 15  2  0  0  0  0
  6 16  2  0  0  0  0
  7  8  1  0  0  0  0
  7  9  1  0  0  0  0
  7 17  1  0  0  0  0
  7 18  1  0  0  0  0
  8 10  1  0  0  0  0
  8 19  1  0  0  0  0
  8 20  1  0  0  0  0
  9 11  1  0  0  0  0
 10 12  1  0  0  0  0
 11 13  1  0  0  0  0
 11 21  1  0  0  0  0
 11 22  1  0  0  0  0
 12 14  1  0  0  0  0
 12 23  1  0  0  0  0
 12 24  1  0  0  0  0
 13 15  1  0  0  0  0
 13 25  1  0  0  0  0
 13 26  1  0  0  0  0
 14 16  1  0  0  0  0
 14 27  1  0  0  0  0
 14 28  1  0  0  0  0
M  END
> <DATABASE_ID>
DB04560

> <DATABASE_NAME>
drugbank

> <ORIGINAL_SOURCE>
PUBCHEM

> <ORIGINAL_SOURCE_URL>
https://pubchem.ncbi.nlm.nih.gov/rest/pug/compound/inchikey/DUAWJQCMZICMIK-UHFFFAOYSA-N/SDF?record_type=3d

> <SMILES>
OC(=O)CCC(=O)CCC(=O)CCC(O)=O

> <INCHI_IDENTIFIER>
InChI=1S/C10H14O6/c11-7(3-5-9(13)14)1-2-8(12)4-6-10(15)16/h1-6H2,(H,13,14)(H,15,16)

> <INCHI_KEY>
DUAWJQCMZICMIK-UHFFFAOYSA-N

> <FORMULA>
C10H14O6

> <MOLECULAR_WEIGHT>
230.2146

> <EXACT_MASS>
230.07903818

> <JCHEM_ACCEPTOR_COUNT>
6

> <JCHEM_AVERAGE_POLARIZABILITY>
22.296378511652424

> <JCHEM_BIOAVAILABILITY>
1

> <JCHEM_DONOR_COUNT>
2

> <JCHEM_FORMAL_CHARGE>
0

> <JCHEM_GHOSE_FILTER>
1

> <JCHEM_IUPAC>
4,7-dioxodecanedioic acid

> <ALOGPS_LOGP>
-0.27

> <JCHEM_LOGP>
-0.08950642800000014

> <ALOGPS_LOGS>
-1.89

> <JCHEM_MDDR_LIKE_RULE>
0

> <JCHEM_NUMBER_OF_RINGS>
0

> <JCHEM_PHYSIOLOGICAL_CHARGE>
-2

> <JCHEM_PKA>
4.568672259905845

> <JCHEM_PKA_STRONGEST_ACIDIC>
3.9666122685798446

> <JCHEM_PKA_STRONGEST_BASIC>
-7.0634881132532525

> <JCHEM_POLAR_SURFACE_AREA>
108.73999999999998

> <JCHEM_REFRACTIVITY>
52.42580000000001

> <JCHEM_ROTATABLE_BOND_COUNT>
9

> <JCHEM_RULE_OF_FIVE>
1

> <ALOGPS_SOLUBILITY>
2.94e+00 g/l

> <JCHEM_TRADITIONAL_IUPAC>
4,7-dioxosebacic acid

> <JCHEM_VEBER_RULE>
0

> <DRUGBANK_ID>
DB04560

> <SECONDARY_ACCESSION_NUMBERS>
EXPT01272

> <DRUG_GROUPS>
experimental

> <GENERIC_NAME>
4,7-Dioxosebacic Acid

$$$$
