REMARK  Name = 447634
REMARK  8 active torsions:
REMARK  status: ('A' for Active; 'I' for Inactive)
REMARK    1  A    between atoms: C_2  and  O_6
REMARK    2  A    between atoms: C_3  and  C_12
REMARK    3  A    between atoms: C_4  and  O_8
REMARK    4  A    between atoms: C_5  and  O_10
REMARK    5  A    between atoms: C_12  and  O_13
REMARK    6  A    between atoms: O_13  and  P_14
REMARK    7  A    between atoms: P_14  and  O_16
REMARK    8  A    between atoms: P_14  and  O_18
REMARK                            x       y       z     vdW  Elec       q    Type
REMARK                         _______ _______ _______ _____ _____    ______ ____
ROOT
ATOM      1  O   UNL     1      -0.980  -1.020  -0.609  0.00  0.00    -0.326 OA
ATOM      2  C   UNL     1      -1.784   0.839   0.605  0.00  0.00    +0.172 C 
ATOM      3  C   UNL     1      -0.665   0.350  -0.300  0.00  0.00    +0.177 C 
ATOM      4  C   UNL     1      -2.973   0.069   0.067  0.00  0.00    +0.196 C 
ATOM      5  C   UNL     1      -2.342  -1.286  -0.220  0.00  0.00    +0.262 C 
ENDROOT
BRANCH   2   6
ATOM      6  O   UNL     1      -1.945   2.240   0.536  0.00  0.00    -0.379 OA
ATOM      7  H   UNL     1      -1.155   2.675   0.893  0.00  0.00    +0.211 HD
ENDBRANCH   2   6
BRANCH   4   8
ATOM      8  O   UNL     1      -3.417   0.653  -1.154  0.00  0.00    -0.378 OA
ATOM      9  H   UNL     1      -3.819   1.517  -0.972  0.00  0.00    +0.211 HD
ENDBRANCH   4   8
BRANCH   5  10
ATOM     10  O   UNL     1      -2.378  -2.075   0.963  0.00  0.00    -0.358 OA
ATOM     11  H   UNL     1      -1.977  -2.941   0.786  0.00  0.00    +0.213 HD
ENDBRANCH   5  10
BRANCH   3  12
ATOM     12  C   UNL     1       0.708   0.427   0.344  0.00  0.00    +0.186 C 
BRANCH  12  13
ATOM     13  O   UNL     1       1.673  -0.061  -0.574  0.00  0.00    -0.271 OA
BRANCH  13  14
ATOM     14  P   UNL     1       3.226  -0.083  -0.120  0.00  0.00    +0.473 P 
ATOM     15  O   UNL     1       4.180  -0.613  -1.151  0.00  0.00    -0.227 OA
BRANCH  14  16
ATOM     16  O   UNL     1       3.206  -0.887   1.282  0.00  0.00    -0.303 OA
ATOM     17  H   UNL     1       2.564  -0.475   1.882  0.00  0.00    +0.222 HD
ENDBRANCH  14  16
BRANCH  14  18
ATOM     18  O   UNL     1       3.491   1.447   0.332  0.00  0.00    -0.303 OA
ATOM     19  H   UNL     1       2.833   1.706   0.996  0.00  0.00    +0.222 HD
ENDBRANCH  14  18
ENDBRANCH  13  14
ENDBRANCH  12  13
ENDBRANCH   3  12
TORSDOF 8
