REMARK  Name = 70766
REMARK  1 active torsions:
REMARK  status: ('A' for Active; 'I' for Inactive)
REMARK    1  A    between atoms: C_4  and  N_11
REMARK                            x       y       z     vdW  Elec       q    Type
REMARK                         _______ _______ _______ _____ _____    ______ ____
ROOT
ATOM      1  N   UNL     1       2.705  -0.334   0.000  0.00  0.00    -0.242 NA
ATOM      2  C   UNL     1       0.008   0.473   0.000  0.00  0.00    +0.016 C 
ATOM      3  C   UNL     1       0.339  -0.898   0.000  0.00  0.00    +0.020 C 
ATOM      4  C   UNL     1      -1.346   0.849   0.000  0.00  0.00    +0.042 C 
ATOM      5  C   UNL     1      -0.681  -1.863   0.000  0.00  0.00    +0.002 C 
ATOM      6  C   UNL     1       1.039   1.419   0.000  0.00  0.00    +0.022 C 
ATOM      7  C   UNL     1      -2.352  -0.119   0.000  0.00  0.00    +0.014 C 
ATOM      8  C   UNL     1      -2.020  -1.472   0.000  0.00  0.00    +0.001 C 
ATOM      9  C   UNL     1       1.694  -1.233   0.000  0.00  0.00    +0.099 C 
ATOM     10  C   UNL     1       2.350   0.968   0.000  0.00  0.00    +0.099 C 
ENDROOT
BRANCH   4  11
ATOM     11  N   UNL     1      -1.736   2.210   0.000  0.00  0.00    -0.357 N 
ATOM     12  H   UNL     1      -1.052   2.918   0.000  0.00  0.00    +0.142 HD
ATOM     13  H   UNL     1      -2.692   2.448   0.000  0.00  0.00    +0.142 HD
ENDBRANCH   4  11
TORSDOF 1
