REMARK  Name = 7006709
REMARK  5 active torsions:
REMARK  status: ('A' for Active; 'I' for Inactive)
REMARK    1  A    between atoms: C_1  and  C_13
REMARK    2  A    between atoms: C_2  and  C_7
REMARK    3  A    between atoms: C_13  and  CA_14
REMARK    4  A    between atoms: CA_14  and  N_15
REMARK    5  A    between atoms: CA_14  and  C_21
REMARK                            x       y       z     vdW  Elec       q    Type
REMARK                         _______ _______ _______ _____ _____    ______ ____
ROOT
ATOM      1  C   UNL     1      -1.490  -0.932  -0.140  0.00  0.00    -0.024 C 
ATOM      2  C   UNL     1       1.216  -0.345  -0.049  0.00  0.00    -0.000 C 
ATOM      3  C   UNL     1      -0.934  -0.140  -1.131  0.00  0.00    -0.004 C 
ATOM      4  C   UNL     1      -0.721  -1.437   0.896  0.00  0.00    -0.004 C 
ATOM      5  C   UNL     1       0.428   0.155  -1.085  0.00  0.00    -0.000 C 
ATOM      6  C   UNL     1       0.641  -1.141   0.942  0.00  0.00    -0.000 C 
ENDROOT
BRANCH   2   7
ATOM      7  C   UNL     1       2.629  -0.038  -0.001  0.00  0.00    -0.000 C 
ATOM      8  C   UNL     1       3.547  -0.877  -0.632  0.00  0.00    -0.000 C 
ATOM      9  C   UNL     1       3.073   1.097   0.678  0.00  0.00    -0.000 C 
ATOM     10  C   UNL     1       4.910  -0.582  -0.583  0.00  0.00    +0.000 C 
ATOM     11  C   UNL     1       4.435   1.393   0.726  0.00  0.00    +0.000 C 
ATOM     12  C   UNL     1       5.354   0.553   0.095  0.00  0.00    +0.000 C 
ENDBRANCH   2   7
BRANCH   1  13
ATOM     13  C   UNL     1      -2.965  -1.253  -0.190  0.00  0.00    +0.016 C 
BRANCH  13  14
ATOM     14  CA  UNL     1      -3.819  -0.223   0.559  0.00  0.00    +0.045 C 
BRANCH  14  15
ATOM     15  N   UNL     1      -5.226  -0.735   0.557  0.00  0.00    +0.389 N 
ATOM     16  H1  UNL     1      -5.251  -1.663   0.980  0.00  0.00    -0.088 HD
ATOM     17  H2  UNL     1      -5.567  -0.790  -0.403  0.00  0.00    -0.088 HD
ATOM     18  H3  UNL     1      -5.819  -0.102   1.093  0.00  0.00    -0.088 HD
ENDBRANCH  14  15
BRANCH  14  21
ATOM     19  O   UNL     1      -4.034   1.234  -1.288  0.00  0.00    -0.248 OA
ATOM     20  OXT UNL     1      -3.331   2.096   0.710  0.00  0.00    -0.248 OA
ATOM     21  C   UNL     1      -3.713   1.176  -0.067  0.00  0.00    +0.345 C 
ENDBRANCH  14  21
ENDBRANCH  13  14
ENDBRANCH   1  13
TORSDOF 5
