REMARK  Name = 91867
REMARK  2 active torsions:
REMARK  status: ('A' for Active; 'I' for Inactive)
REMARK    1  A    between atoms: C_3  and  C_9
REMARK    2  A    between atoms: C_9  and  O_10
REMARK                            x       y       z     vdW  Elec       q    Type
REMARK                         _______ _______ _______ _____ _____    ______ ____
ROOT
ATOM      1  F   UNL     1       1.038  -2.063  -0.117  0.00  0.00    -0.204 F 
ATOM      2  F   UNL     1      -3.222  -0.037   0.259  0.00  0.00    -0.204 F 
ATOM      3  C   UNL     1       0.860   0.300  -0.261  0.00  0.00    +0.035 C 
ATOM      4  C   UNL     1       0.279  -0.958  -0.102  0.00  0.00    +0.141 C 
ATOM      5  C   UNL     1       0.062   1.444  -0.245  0.00  0.00    +0.003 C 
ATOM      6  C   UNL     1      -1.100  -1.072   0.073  0.00  0.00    +0.059 C 
ATOM      7  C   UNL     1      -1.317   1.330  -0.069  0.00  0.00    +0.030 C 
ATOM      8  C   UNL     1      -1.898   0.072   0.090  0.00  0.00    +0.142 C 
ENDROOT
BRANCH   3   9
ATOM      9  C   UNL     1       2.335   0.426  -0.449  0.00  0.00    +0.166 C 
BRANCH   9  10
ATOM     10  O   UNL     1       2.962   0.559   0.821  0.00  0.00    -0.377 OA
ATOM     11  H   UNL     1       3.921   0.640   0.700  0.00  0.00    +0.211 HD
ENDBRANCH   9  10
ENDBRANCH   3   9
TORSDOF 2
