REMARK  Name = 445994
REMARK  6 active torsions:
REMARK  status: ('A' for Active; 'I' for Inactive)
REMARK    1  A    between atoms: C_2  and  O_9
REMARK    2  A    between atoms: C_3  and  O_7
REMARK    3  A    between atoms: C_4  and  O_11
REMARK    4  A    between atoms: C_5  and  C_16
REMARK    5  A    between atoms: C_6  and  O_13
REMARK    6  A    between atoms: C_16  and  O_17
REMARK                            x       y       z     vdW  Elec       q    Type
REMARK                         _______ _______ _______ _____ _____    ______ ____
ROOT
ATOM      1  O   UNL     1      -0.235  -1.649  -0.266  0.00  0.00    -0.317 OA
ATOM      2  C   UNL     1       1.236   0.818   0.021  0.00  0.00    +0.172 C 
ATOM      3  C   UNL     1      -0.284   0.799  -0.158  0.00  0.00    +0.183 C 
ATOM      4  C   UNL     1       1.853  -0.459  -0.547  0.00  0.00    +0.196 C 
ATOM      5  C   UNL     1      -0.884  -0.521   0.317  0.00  0.00    +0.245 C 
ATOM      6  C   UNL     1       1.163  -1.700   0.020  0.00  0.00    +0.263 C 
ENDROOT
BRANCH   3   7
ATOM      7  O   UNL     1      -0.857   1.860   0.605  0.00  0.00    -0.348 OA
ATOM      8  C   UNL     1      -0.337   3.120   0.209  0.00  0.00    +0.174 C 
ENDBRANCH   3   7
BRANCH   2   9
ATOM      9  O   UNL     1       1.748   1.951  -0.683  0.00  0.00    -0.379 OA
ATOM     10  H   UNL     1       1.355   2.761  -0.321  0.00  0.00    +0.211 HD
ENDBRANCH   2   9
BRANCH   4  11
ATOM     11  O   UNL     1       3.242  -0.520  -0.239  0.00  0.00    -0.378 OA
ATOM     12  H   UNL     1       3.687   0.265  -0.596  0.00  0.00    +0.211 HD
ENDBRANCH   4  11
BRANCH   6  13
ATOM     13  O   UNL     1       1.422  -1.814   1.418  0.00  0.00    -0.358 OA
ATOM     14  H   UNL     1       0.979  -2.604   1.765  0.00  0.00    +0.213 HD
ENDBRANCH   6  13
BRANCH   5  16
ATOM     15  O   UNL     1      -2.696  -1.532  -0.915  0.00  0.00    -0.247 OA
ATOM     16  C   UNL     1      -2.294  -0.663  -0.156  0.00  0.00    +0.344 C 
BRANCH  16  17
ATOM     17  O   UNL     1      -3.076   0.310   0.372  0.00  0.00    -0.478 OA
ATOM     18  H   UNL     1      -2.705   0.948   0.950  0.00  0.00    +0.295 HD
ENDBRANCH  16  17
ENDBRANCH   5  16
TORSDOF 6
