REMARK  Name = 439553
REMARK  7 active torsions:
REMARK  status: ('A' for Active; 'I' for Inactive)
REMARK    1  A    between atoms: C_2  and  O_6
REMARK    2  A    between atoms: C_3  and  O_8
REMARK    3  A    between atoms: C_3  and  C_12
REMARK    4  A    between atoms: C_4  and  O_10
REMARK    5  A    between atoms: C_5  and  C_15
REMARK    6  A    between atoms: C_12  and  O_13
REMARK    7  A    between atoms: C_15  and  O_16
REMARK                            x       y       z     vdW  Elec       q    Type
REMARK                         _______ _______ _______ _____ _____    ______ ____
ROOT
ATOM      1  O   UNL     1      -0.095   0.986   0.333  0.00  0.00    -0.328 OA
ATOM      2  C   UNL     1       0.559  -1.265   0.296  0.00  0.00    +0.194 C 
ATOM      3  C   UNL     1       1.012   0.149  -0.053  0.00  0.00    +0.239 C 
ATOM      4  C   UNL     1      -0.899  -1.215  -0.105  0.00  0.00    +0.172 C 
ATOM      5  C   UNL     1      -1.291   0.182   0.363  0.00  0.00    +0.176 C 
ENDROOT
BRANCH   2   6
ATOM      6  O   UNL     1       1.261  -2.268  -0.411  0.00  0.00    -0.378 OA
ATOM      7  H   UNL     1       2.190  -2.272  -0.130  0.00  0.00    +0.211 HD
ENDBRANCH   2   6
BRANCH   3   8
ATOM      8  O   UNL     1       1.228   0.249  -1.461  0.00  0.00    -0.360 OA
ATOM      9  H   UNL     1       0.425  -0.023  -1.932  0.00  0.00    +0.213 HD
ENDBRANCH   3   8
BRANCH   4  10
ATOM     10  O   UNL     1      -1.644  -2.218   0.561  0.00  0.00    -0.379 OA
ATOM     11  H   UNL     1      -1.370  -3.091   0.240  0.00  0.00    +0.211 HD
ENDBRANCH   4  10
BRANCH   3  12
ATOM     12  C   UNL     1       2.268   0.575   0.692  0.00  0.00    +0.196 C 
BRANCH  12  13
ATOM     13  O   UNL     1       2.610   1.891   0.293  0.00  0.00    -0.378 OA
ATOM     14  H   UNL     1       3.411   2.173   0.763  0.00  0.00    +0.211 HD
ENDBRANCH  12  13
ENDBRANCH   3  12
BRANCH   5  15
ATOM     15  C   UNL     1      -2.352   0.825  -0.514  0.00  0.00    +0.169 C 
BRANCH  15  16
ATOM     16  O   UNL     1      -2.657   2.109   0.004  0.00  0.00    -0.379 OA
ATOM     17  H   UNL     1      -3.334   2.528  -0.549  0.00  0.00    +0.211 HD
ENDBRANCH  15  16
ENDBRANCH   5  15
TORSDOF 7
