REMARK  Name = 444567
REMARK  2 active torsions:
REMARK  status: ('A' for Active; 'I' for Inactive)
REMARK    1  A    between atoms: C_1  and  C_3
REMARK    2  A    between atoms: C_1  and  N_10
REMARK                            x       y       z     vdW  Elec       q    Type
REMARK                         _______ _______ _______ _____ _____    ______ ____
ROOT
ATOM      1  C   UNL     1       0.889   0.339   0.693  0.00  0.00    +0.098 C 
ATOM      2  C   UNL     1       1.092   1.704   1.367  0.00  0.00    +0.026 C 
ENDROOT
BRANCH   1   3
ATOM      3  C   UNL     1      -0.533   0.061   0.342  0.00  0.00    -0.004 C 
ATOM      4  C   UNL     1      -1.004  -1.252   0.325  0.00  0.00    -0.003 C 
ATOM      5  C   UNL     1      -1.393   1.114   0.031  0.00  0.00    -0.003 C 
ATOM      6  C   UNL     1      -2.334  -1.512  -0.004  0.00  0.00    -0.000 C 
ATOM      7  C   UNL     1      -2.724   0.854  -0.297  0.00  0.00    -0.000 C 
ATOM      8  C   UNL     1      -3.194  -0.459  -0.315  0.00  0.00    -0.000 C 
ENDBRANCH   1   3
BRANCH   1  10
ATOM      9  O   UNL     1       3.111  -1.498   0.386  0.00  0.00    -0.265 OA
ATOM     10  N   UNL     1       1.768   0.227  -0.459  0.00  0.00    -0.268 N 
ATOM     11  C   UNL     1       1.521   1.119  -1.579  0.00  0.00    +0.116 C 
ATOM     12  C   UNL     1       2.801  -0.696  -0.488  0.00  0.00    +0.303 C 
ENDBRANCH   1  10
TORSDOF 2
