REMARK  Name = 5494414
REMARK  8 active torsions:
REMARK  status: ('A' for Active; 'I' for Inactive)
REMARK    1  A    between atoms: N_1  and  C_12
REMARK    2  A    between atoms: N_2  and  CA_26
REMARK    3  A    between atoms: N_15  and  C_17
REMARK    4  A    between atoms: C_17  and  C_18
REMARK    5  A    between atoms: C_19  and  O_24
REMARK    6  A    between atoms: CA_26  and  C_27
REMARK    7  A    between atoms: CA_26  and  C_29
REMARK    8  A    between atoms: C_29  and  O_30
REMARK                            x       y       z     vdW  Elec       q    Type
REMARK                         _______ _______ _______ _____ _____    ______ ____
ROOT
ATOM      1  N   UNL     1       1.946   2.695  -0.187  0.00  0.00    -0.262 N 
ATOM      2  N   UNL     1       2.196  -2.039   0.114  0.00  0.00    -0.258 N 
ATOM      3  N   UNL     1       2.282   0.294  -0.043  0.00  0.00    -0.311 NA
ATOM      4  N   UNL     1      -0.280   2.777  -0.083  0.00  0.00    -0.240 NA
ATOM      5  N   UNL     1       0.155  -0.890   0.139  0.00  0.00    -0.311 NA
ATOM      6  C   UNL     1       1.524   1.400  -0.080  0.00  0.00    +0.220 C 
ATOM      7  C   UNL     1       0.142   1.472  -0.018  0.00  0.00    +0.167 C 
ATOM      8  C   UNL     1      -0.546   0.269   0.096  0.00  0.00    +0.215 C 
ATOM      9  C   UNL     1       1.521  -0.834   0.069  0.00  0.00    +0.202 C 
ATOM     10  C   UNL     1       0.826   3.484  -0.184  0.00  0.00    +0.222 C 
ATOM     11  H   UNL     1       1.668  -2.866   0.196  0.00  0.00    +0.160 HD
ATOM     12  N   UNL     1      -1.950   0.248   0.165  0.00  0.00    -0.302 N 
ATOM     13  H   UNL     1      -2.435   1.104   0.131  0.00  0.00    +0.150 HD
ENDROOT
BRANCH   1  14
ATOM     14  C   UNL     1       3.310   3.155  -0.283  0.00  0.00    +0.077 C 
ATOM     15  C   UNL     1       4.119   2.814   0.970  0.00  0.00    +0.022 C 
ATOM     16  C   UNL     1       3.996   2.650  -1.553  0.00  0.00    +0.022 C 
ENDBRANCH   1  14
BRANCH  12  17
ATOM     17  C   UNL     1      -2.709  -0.962   0.281  0.00  0.00    +0.119 C 
BRANCH  17  18
ATOM     18  C   UNL     1      -4.182  -0.661   0.296  0.00  0.00    +0.031 C 
ATOM     19  C   UNL     1      -4.901  -0.617  -0.892  0.00  0.00    +0.131 C 
ATOM     20  C   UNL     1      -4.808  -0.429   1.514  0.00  0.00    +0.000 C 
ATOM     21  C   UNL     1      -6.267  -0.337  -0.862  0.00  0.00    +0.036 C 
ATOM     22  C   UNL     1      -6.174  -0.149   1.545  0.00  0.00    -0.000 C 
ATOM     23  C   UNL     1      -6.904  -0.103   0.357  0.00  0.00    +0.003 C 
BRANCH  19  24
ATOM     24  O   UNL     1      -4.295  -0.843  -2.092  0.00  0.00    -0.506 OA
ATOM     25  H   UNL     1      -3.378  -1.032  -2.125  0.00  0.00    +0.292 HD
ENDBRANCH  19  24
ENDBRANCH  17  18
ENDBRANCH  12  17
BRANCH   2  26
ATOM     26  CA  UNL     1       3.641  -2.150   0.048  0.00  0.00    +0.109 C 
BRANCH  26  27
ATOM     27  C   UNL     1       4.035  -3.571  -0.374  0.00  0.00    +0.023 C 
ATOM     28  C   UNL     1       3.456  -3.965  -1.728  0.00  0.00    +0.002 C 
ENDBRANCH  26  27
BRANCH  26  29
ATOM     29  C   UNL     1       4.224  -1.809   1.419  0.00  0.00    +0.157 C 
BRANCH  29  30
ATOM     30  O   UNL     1       5.643  -1.897   1.364  0.00  0.00    -0.380 OA
ATOM     31  H   UNL     1       6.015  -1.680   2.234  0.00  0.00    +0.211 HD
ENDBRANCH  29  30
ENDBRANCH  26  29
ENDBRANCH   2  26
TORSDOF 8
