REMARK  Name = 2468
REMARK  6 active torsions:
REMARK  status: ('A' for Active; 'I' for Inactive)
REMARK    1  A    between atoms: N_1  and  C_3
REMARK    2  A    between atoms: N_1  and  C_14
REMARK    3  A    between atoms: C_3  and  N_6
REMARK    4  A    between atoms: N_6  and  C_9
REMARK    5  A    between atoms: C_14  and  C_15
REMARK    6  A    between atoms: C_15  and  C_16
REMARK                            x       y       z     vdW  Elec       q    Type
REMARK                         _______ _______ _______ _____ _____    ______ ____
ROOT
ATOM      1  N   UNL     1       1.171  -2.108   0.527  0.00  0.00    -0.368 N 
ATOM      2  C   UNL     1       0.838  -0.983  -0.195  0.00  0.00    +0.220 C 
ATOM      3  H   UNL     1       0.464  -2.658   0.936  0.00  0.00    +0.159 HD
ATOM      4  H   UNL     1       2.116  -2.362   0.635  0.00  0.00    +0.159 HD
ENDROOT
BRANCH   2   5
ATOM      5  N   UNL     1      -0.350  -0.510  -0.404  0.00  0.00    -0.238 NA
BRANCH   5   6
ATOM      6  C   UNL     1      -1.472  -1.243   0.166  0.00  0.00    +0.129 C 
BRANCH   6   7
ATOM      7  C   UNL     1      -2.783  -0.572  -0.228  0.00  0.00    +0.026 C 
BRANCH   7   8
ATOM      8  C   UNL     1      -2.886   0.862   0.294  0.00  0.00    +0.002 C 
ATOM      9  C   UNL     1      -4.196   1.513  -0.124  0.00  0.00    +0.000 C 
ENDBRANCH   7   8
ENDBRANCH   6   7
ENDBRANCH   5   6
ENDBRANCH   2   5
BRANCH   2  10
ATOM     10  N   UNL     1       1.858  -0.237  -0.752  0.00  0.00    -0.180 NA
BRANCH  10  13
ATOM     11  N   UNL     1       3.399   1.498  -0.520  0.00  0.00    -0.370 N 
ATOM     12  N   UNL     1       2.038   1.065   1.261  0.00  0.00    -0.370 N 
ATOM     13  C   UNL     1       2.384   0.715  -0.025  0.00  0.00    +0.196 C 
ATOM     14  H   UNL     1       3.737   1.346  -1.433  0.00  0.00    +0.159 HD
ATOM     15  H   UNL     1       3.788   2.210   0.037  0.00  0.00    +0.159 HD
ATOM     16  H   UNL     1       1.321   0.578   1.728  0.00  0.00    +0.159 HD
ATOM     17  H   UNL     1       2.507   1.803   1.714  0.00  0.00    +0.159 HD
ENDBRANCH  10  13
ENDBRANCH   2  10
TORSDOF 6
