REMARK  Name = 5761
REMARK  3 active torsions:
REMARK  status: ('A' for Active; 'I' for Inactive)
REMARK    1  A    between atoms: C_6  and  C_22
REMARK    2  A    between atoms: N_21  and  C_23
REMARK    3  A    between atoms: N_21  and  C_25
REMARK                            x       y       z     vdW  Elec       q    Type
REMARK                         _______ _______ _______ _____ _____    ______ ____
ROOT
ATOM      1  N   UNL     1       0.473  -2.242   0.475  0.00  0.00    +0.390 N 
ATOM      2  N   UNL     1      -5.198  -0.244   0.200  0.00  0.00    -0.312 N 
ATOM      3  C   UNL     1      -0.739  -1.385   0.591  0.00  0.00    -0.031 C 
ATOM      4  C   UNL     1      -0.607   0.020  -0.067  0.00  0.00    -0.045 C 
ATOM      5  C   UNL     1      -2.050  -2.170   0.226  0.00  0.00    +0.011 C 
ATOM      6  C   UNL     1       1.861  -0.287  -0.246  0.00  0.00    +0.078 C 
ATOM      7  C   UNL     1       1.681  -1.447   0.741  0.00  0.00    -0.063 C 
ATOM      8  C   UNL     1      -3.221  -1.255   0.219  0.00  0.00    -0.008 C 
ATOM      9  C   UNL     1      -1.836   0.842  -0.184  0.00  0.00    -0.005 C 
ATOM     10  C   UNL     1      -3.028   0.126  -0.001  0.00  0.00    +0.010 C 
ATOM     11  C   UNL     1       0.591   0.482  -0.472  0.00  0.00    -0.026 C 
ATOM     12  C   UNL     1      -4.267   0.747  -0.026  0.00  0.00    +0.048 C 
ATOM     13  C   UNL     1       0.588  -2.974  -0.786  0.00  0.00    -0.100 C 
ATOM     14  C   UNL     1      -4.574  -1.463   0.345  0.00  0.00    +0.058 C 
ATOM     15  C   UNL     1      -1.950   2.220  -0.408  0.00  0.00    -0.000 C 
ATOM     16  C   UNL     1      -4.395   2.118  -0.248  0.00  0.00    +0.015 C 
ATOM     17  C   UNL     1      -3.208   2.840  -0.441  0.00  0.00    +0.001 C 
ATOM     18  H   UNL     1       0.371  -2.967   1.185  0.00  0.00    -0.079 HD
ATOM     19  H   UNL     1      -6.171  -0.100   0.250  0.00  0.00    +0.152 HD
ENDROOT
BRANCH   6  22
ATOM     20  O   UNL     1       2.480   1.609   1.017  0.00  0.00    -0.275 OA
ATOM     21  N   UNL     1       4.198   0.470  -0.057  0.00  0.00    -0.279 N 
ATOM     22  C   UNL     1       2.865   0.684   0.297  0.00  0.00    +0.227 C 
BRANCH  21  23
ATOM     23  C   UNL     1       5.276   1.338   0.401  0.00  0.00    +0.093 C 
ATOM     24  C   UNL     1       5.854   0.846   1.717  0.00  0.00    +0.023 C 
ENDBRANCH  21  23
BRANCH  21  25
ATOM     25  C   UNL     1       4.610  -0.639  -0.914  0.00  0.00    +0.093 C 
ATOM     26  C   UNL     1       4.592  -0.238  -2.379  0.00  0.00    +0.023 C 
ENDBRANCH  21  25
ENDBRANCH   6  22
TORSDOF 3
