REMARK  Name = 447957
REMARK  3 active torsions:
REMARK  status: ('A' for Active; 'I' for Inactive)
REMARK    1  A    between atoms: C_3  and  C_9
REMARK    2  A    between atoms: C_6  and  N_14
REMARK    3  A    between atoms: N_15  and  O_18
REMARK                            x       y       z     vdW  Elec       q    Type
REMARK                         _______ _______ _______ _____ _____    ______ ____
ROOT
ATOM      1  N   UNL     1       0.616   0.058  -0.261  0.00  0.00    -0.337 NA
ATOM      2  N   UNL     1       2.012   1.994   0.066  0.00  0.00    -0.166 NA
ATOM      3  C   UNL     1      -0.452   0.821   0.048  0.00  0.00    +0.140 C 
ATOM      4  C   UNL     1      -0.369   2.160   0.373  0.00  0.00    +0.051 C 
ATOM      5  C   UNL     1       0.901   2.699   0.366  0.00  0.00    +0.114 C 
ATOM      6  C   UNL     1       1.800   0.698  -0.233  0.00  0.00    +0.182 C 
ENDROOT
BRANCH   3   9
ATOM      7  S   UNL     1      -3.145   0.995  -0.380  0.00  0.00    -0.074 S 
ATOM      8  N   UNL     1      -3.364  -1.526   0.147  0.00  0.00    -0.407 NA
ATOM      9  C   UNL     1      -1.715   0.133   0.018  0.00  0.00    +0.155 C 
ATOM     10  C   UNL     1      -2.030  -1.189   0.265  0.00  0.00    +0.104 C 
ATOM     11  C   UNL     1      -4.045  -0.453  -0.189  0.00  0.00    +0.135 C 
ATOM     12  C   UNL     1      -1.078  -2.256   0.639  0.00  0.00    +0.063 C 
ATOM     13  C   UNL     1      -5.508  -0.425  -0.407  0.00  0.00    +0.074 C 
ENDBRANCH   3   9
BRANCH   6  14
ATOM     14  N   UNL     1       2.928  -0.062  -0.549  0.00  0.00    -0.145 NA
ATOM     15  N   UNL     1       4.628  -1.454   0.426  0.00  0.00    -0.247 N 
ATOM     16  C   UNL     1       3.520  -0.656   0.443  0.00  0.00    +0.208 C 
ATOM     17  H   UNL     1       4.929  -1.943   1.226  0.00  0.00    +0.196 HD
BRANCH  15  18
ATOM     18  O   UNL     1       5.302  -1.537  -0.772  0.00  0.00    -0.288 OA
ATOM     19  H   UNL     1       6.067  -2.125  -0.673  0.00  0.00    +0.244 HD
ENDBRANCH  15  18
ENDBRANCH   6  14
TORSDOF 3
