REMARK  Name = 95054
REMARK  5 active torsions:
REMARK  status: ('A' for Active; 'I' for Inactive)
REMARK    1  A    between atoms: C_7  and  C_16
REMARK    2  A    between atoms: C_16  and  N_17
REMARK    3  A    between atoms: N_17  and  C_19
REMARK    4  A    between atoms: C_22  and  C_26
REMARK    5  A    between atoms: C_26  and  O_27
REMARK                            x       y       z     vdW  Elec       q    Type
REMARK                         _______ _______ _______ _____ _____    ______ ____
ROOT
ATOM      1  O   UNL     1       3.559  -2.567   0.560  0.00  0.00    -0.206 OA
ATOM      2  N   UNL     1       1.920  -0.458   0.585  0.00  0.00    -0.391 NA
ATOM      3  N   UNL     1       5.118   0.976  -0.442  0.00  0.00    -0.259 N 
ATOM      4  N   UNL     1       2.990   2.041  -0.116  0.00  0.00    -0.246 NA
ATOM      5  N   UNL     1       5.405  -1.364  -0.098  0.00  0.00    -0.300 NA
ATOM      6  N   UNL     1       7.177   0.017  -0.770  0.00  0.00    -0.320 N 
ATOM      7  C   UNL     1       1.169   0.658   0.570  0.00  0.00    +0.132 C 
ATOM      8  C   UNL     1       3.213  -0.290   0.242  0.00  0.00    +0.255 C 
ATOM      9  C   UNL     1       3.761   0.933  -0.107  0.00  0.00    +0.173 C 
ATOM     10  C   UNL     1       1.693   1.884   0.226  0.00  0.00    +0.183 C 
ATOM     11  C   UNL     1       4.072  -1.496   0.248  0.00  0.00    +0.240 C 
ATOM     12  C   UNL     1       5.865  -0.181  -0.418  0.00  0.00    +0.249 C 
ATOM     13  H   UNL     1       5.538   1.830  -0.695  0.00  0.00    +0.157 HD
ATOM     14  H   UNL     1       7.492   0.919  -1.006  0.00  0.00    +0.146 HD
ATOM     15  H   UNL     1       7.802  -0.743  -0.788  0.00  0.00    +0.146 HD
ENDROOT
BRANCH   7  16
ATOM     16  C   UNL     1      -0.267   0.527   0.941  0.00  0.00    +0.145 C 
BRANCH  16  17
ATOM     17  N   UNL     1      -1.083   0.252  -0.224  0.00  0.00    -0.327 N 
ATOM     18  H   UNL     1      -0.632   0.148  -1.093  0.00  0.00    +0.147 HD
BRANCH  17  19
ATOM     19  C   UNL     1      -2.460   0.129  -0.182  0.00  0.00    +0.045 C 
ATOM     20  C   UNL     1      -3.163   0.267   1.031  0.00  0.00    +0.015 C 
ATOM     21  C   UNL     1      -3.199  -0.141  -1.350  0.00  0.00    +0.015 C 
ATOM     22  C   UNL     1      -5.264  -0.127  -0.096  0.00  0.00    +0.076 C 
ATOM     23  C   UNL     1      -4.552   0.141   1.073  0.00  0.00    +0.008 C 
ATOM     24  C   UNL     1      -4.587  -0.268  -1.308  0.00  0.00    +0.008 C 
BRANCH  22  26
ATOM     25  O   UNL     1      -7.409  -0.156   0.963  0.00  0.00    -0.245 OA
ATOM     26  C   UNL     1      -6.711  -0.260  -0.051  0.00  0.00    +0.338 C 
BRANCH  26  27
ATOM     27  O   UNL     1      -7.248  -0.518  -1.276  0.00  0.00    -0.477 OA
ATOM     28  H   UNL     1      -6.691  -0.591  -2.025  0.00  0.00    +0.295 HD
ENDBRANCH  26  27
ENDBRANCH  22  26
ENDBRANCH  17  19
ENDBRANCH  16  17
ENDBRANCH   7  16
TORSDOF 5
