REMARK  Name = 1195
REMARK  9 active torsions:
REMARK  status: ('A' for Active; 'I' for Inactive)
REMARK    1  A    between atoms: P_1  and  O_3
REMARK    2  A    between atoms: P_1  and  O_5
REMARK    3  A    between atoms: P_1  and  O_11
REMARK    4  A    between atoms: O_5  and  C_6
REMARK    5  A    between atoms: C_6  and  C_7
REMARK    6  A    between atoms: C_7  and  C_8
REMARK    7  A    between atoms: O_11  and  P_12
REMARK    8  A    between atoms: P_12  and  O_14
REMARK    9  A    between atoms: P_12  and  O_16
REMARK                            x       y       z     vdW  Elec       q    Type
REMARK                         _______ _______ _______ _____ _____    ______ ____
ROOT
ATOM      1  P   UNL     1       0.630   1.343  -0.115  0.00  0.00    +0.484 P 
ATOM      2  O   UNL     1       1.043   2.044  -1.377  0.00  0.00    -0.227 OA
ENDROOT
BRANCH   1   3
ATOM      3  O   UNL     1       0.171   2.334   1.079  0.00  0.00    -0.302 OA
ATOM      4  H   UNL     1      -0.079   1.809   1.856  0.00  0.00    +0.222 HD
ENDBRANCH   1   3
BRANCH   1   5
ATOM      5  O   UNL     1      -0.607   0.317  -0.288  0.00  0.00    -0.273 OA
BRANCH   5   6
ATOM      6  C   UNL     1      -1.089  -0.406   0.836  0.00  0.00    +0.158 C 
BRANCH   6   7
ATOM      7  C   UNL     1      -2.251  -1.300   0.412  0.00  0.00    +0.055 C 
BRANCH   7   8
ATOM      8  C   UNL     1      -3.433  -0.527  -0.128  0.00  0.00    -0.041 C 
ATOM      9  C   UNL     1      -4.080   0.468   0.794  0.00  0.00    +0.026 C 
ATOM     10  C   UNL     1      -3.908  -0.745  -1.364  0.00  0.00    -0.009 C 
ENDBRANCH   7   8
ENDBRANCH   6   7
ENDBRANCH   5   6
ENDBRANCH   1   5
BRANCH   1  11
ATOM     11  O   UNL     1       1.801   0.460   0.566  0.00  0.00    -0.186 OA
BRANCH  11  12
ATOM     12  P   UNL     1       2.647  -0.796   0.000  0.00  0.00    +0.481 P 
ATOM     13  O   UNL     1       1.820  -1.990  -0.374  0.00  0.00    -0.227 OA
BRANCH  12  14
ATOM     14  O   UNL     1       3.742  -1.052   1.161  0.00  0.00    -0.302 OA
ATOM     15  H   UNL     1       4.227  -0.230   1.335  0.00  0.00    +0.222 HD
ENDBRANCH  12  14
BRANCH  12  16
ATOM     16  O   UNL     1       3.513  -0.151  -1.202  0.00  0.00    -0.302 OA
ATOM     17  H   UNL     1       4.012   0.611  -0.869  0.00  0.00    +0.222 HD
ENDBRANCH  12  16
ENDBRANCH  11  12
ENDBRANCH   1  11
TORSDOF 9
