REMARK  Name = 446228
REMARK  5 active torsions:
REMARK  status: ('A' for Active; 'I' for Inactive)
REMARK    1  A    between atoms: C_2  and  O_7
REMARK    2  A    between atoms: C_3  and  O_9
REMARK    3  A    between atoms: C_5  and  C_14
REMARK    4  A    between atoms: C_6  and  O_11
REMARK    5  A    between atoms: C_14  and  O_15
REMARK                            x       y       z     vdW  Elec       q    Type
REMARK                         _______ _______ _______ _____ _____    ______ ____
ROOT
ATOM      1  O   UNL     1       0.393  -1.138   0.049  0.00  0.00    -0.320 OA
ATOM      2  C   UNL     1      -1.134   1.283  -0.183  0.00  0.00    +0.145 C 
ATOM      3  C   UNL     1      -1.776  -0.048   0.207  0.00  0.00    +0.194 C 
ATOM      4  C   UNL     1       0.357   1.280   0.135  0.00  0.00    +0.073 C 
ATOM      5  C   UNL     1       1.020   0.040  -0.447  0.00  0.00    +0.218 C 
ATOM      6  C   UNL     1      -0.976  -1.232  -0.343  0.00  0.00    +0.263 C 
ENDROOT
BRANCH   2   7
ATOM      7  O   UNL     1      -1.750   2.348   0.536  0.00  0.00    -0.382 OA
ATOM      8  H   UNL     1      -2.700   2.361   0.343  0.00  0.00    +0.210 HD
ENDBRANCH   2   7
BRANCH   3   9
ATOM      9  O   UNL     1      -3.100  -0.081  -0.324  0.00  0.00    -0.378 OA
ATOM     10  H   UNL     1      -3.607   0.669   0.024  0.00  0.00    +0.211 HD
ENDBRANCH   3   9
BRANCH   6  11
ATOM     11  O   UNL     1      -1.550  -2.428   0.183  0.00  0.00    -0.358 OA
ATOM     12  H   UNL     1      -1.060  -3.195  -0.152  0.00  0.00    +0.213 HD
ENDBRANCH   6  11
BRANCH   5  14
ATOM     13  O   UNL     1       2.910  -0.959   0.673  0.00  0.00    -0.248 OA
ATOM     14  C   UNL     1       2.445  -0.058  -0.011  0.00  0.00    +0.341 C 
BRANCH  14  15
ATOM     15  O   UNL     1       3.162   0.995  -0.474  0.00  0.00    -0.479 OA
ATOM     16  H   UNL     1       2.744   1.653  -0.995  0.00  0.00    +0.295 HD
ENDBRANCH  14  15
ENDBRANCH   5  14
TORSDOF 5
