REMARK  Name = 32594
REMARK  3 active torsions:
REMARK  status: ('A' for Active; 'I' for Inactive)
REMARK    1  A    between atoms: C_3  and  C_9
REMARK    2  A    between atoms: C_4  and  O_7
REMARK    3  A    between atoms: C_9  and  C_10
REMARK                            x       y       z     vdW  Elec       q    Type
REMARK                         _______ _______ _______ _____ _____    ______ ____
ROOT
ATOM      1  N   UNL     1      -0.006  -1.767  -0.380  0.00  0.00    -0.242 NA
ATOM      2  N   UNL     1      -2.050   0.003   0.366  0.00  0.00    -0.207 NA
ATOM      3  C   UNL     1       0.095  -0.440  -0.532  0.00  0.00    +0.112 C 
ATOM      4  C   UNL     1      -0.893   0.435  -0.173  0.00  0.00    +0.239 C 
ATOM      5  C   UNL     1      -1.163  -2.200   0.159  0.00  0.00    +0.119 C 
ATOM      6  C   UNL     1      -2.167  -1.331   0.526  0.00  0.00    +0.123 C 
ENDROOT
BRANCH   4   7
ATOM      7  O   UNL     1      -0.752   1.784  -0.344  0.00  0.00    -0.455 OA
ATOM      8  C   UNL     1      -1.844   2.602   0.065  0.00  0.00    +0.254 C 
ENDBRANCH   4   7
BRANCH   3   9
ATOM      9  C   UNL     1       1.383   0.063  -1.136  0.00  0.00    +0.051 C 
BRANCH   9  10
ATOM     10  C   UNL     1       2.477   0.377  -0.097  0.00  0.00    +0.006 C 
ATOM     11  C   UNL     1       2.002   1.387   0.950  0.00  0.00    +0.000 C 
ATOM     12  C   UNL     1       2.919  -0.914   0.596  0.00  0.00    +0.000 C 
ENDBRANCH   9  10
ENDBRANCH   3   9
TORSDOF 3
