REMARK  Name = 5289110
REMARK  6 active torsions:
REMARK  status: ('A' for Active; 'I' for Inactive)
REMARK    1  A    between atoms: C_3  and  C_9
REMARK    2  A    between atoms: C_4  and  C_22
REMARK    3  A    between atoms: N_8  and  C_11
REMARK    4  A    between atoms: C_11  and  C_13
REMARK    5  A    between atoms: N_21  and  C_24
REMARK    6  A    between atoms: C_24  and  C_26
REMARK                            x       y       z     vdW  Elec       q    Type
REMARK                         _______ _______ _______ _____ _____    ______ ____
ROOT
ATOM      1  N   UNL     1      -1.075  -1.963   0.538  0.00  0.00    -0.244 NA
ATOM      2  N   UNL     1       1.093  -1.969  -0.514  0.00  0.00    -0.244 NA
ATOM      3  C   UNL     1      -1.043  -0.615   0.512  0.00  0.00    +0.115 C 
ATOM      4  C   UNL     1       1.032  -0.635  -0.495  0.00  0.00    +0.115 C 
ATOM      5  C   UNL     1       0.007   0.118  -0.004  0.00  0.00    +0.100 C 
ATOM      6  C   UNL     1       0.010  -2.567   0.017  0.00  0.00    +0.250 C 
ENDROOT
BRANCH   3   9
ATOM      7  O   UNL     1      -2.277   1.299   1.072  0.00  0.00    -0.269 OA
ATOM      8  N   UNL     1      -3.228  -0.755   1.573  0.00  0.00    -0.296 N 
ATOM      9  C   UNL     1      -2.204   0.057   1.069  0.00  0.00    +0.260 C 
ATOM     10  H   UNL     1      -3.106  -1.731   1.540  0.00  0.00    +0.150 HD
BRANCH   8  11
ATOM     11  C   UNL     1      -4.454  -0.239   2.138  0.00  0.00    +0.117 C 
BRANCH  11  13
ATOM     12  F   UNL     1      -8.466   0.384  -1.751  0.00  0.00    -0.205 F 
ATOM     13  C   UNL     1      -5.524  -0.070   1.098  0.00  0.00    -0.003 C 
ATOM     14  C   UNL     1      -5.636   1.135   0.415  0.00  0.00    -0.005 C 
ATOM     15  C   UNL     1      -6.630   1.292  -0.551  0.00  0.00    +0.005 C 
ATOM     16  C   UNL     1      -6.394  -1.121   0.830  0.00  0.00    -0.000 C 
ATOM     17  C   UNL     1      -7.507   0.242  -0.826  0.00  0.00    +0.136 C 
ATOM     18  C   UNL     1      -7.388  -0.964  -0.136  0.00  0.00    +0.029 C 
ATOM     19  C   UNL     1      -6.753   2.583  -1.288  0.00  0.00    +0.033 C 
ENDBRANCH  11  13
ENDBRANCH   8  11
ENDBRANCH   3   9
BRANCH   4  22
ATOM     20  O   UNL     1       2.263   1.273  -1.082  0.00  0.00    -0.269 OA
ATOM     21  N   UNL     1       3.222  -0.785  -1.555  0.00  0.00    -0.296 N 
ATOM     22  C   UNL     1       2.219   0.045  -1.075  0.00  0.00    +0.260 C 
ATOM     23  H   UNL     1       3.094  -1.760  -1.505  0.00  0.00    +0.150 HD
BRANCH  21  24
ATOM     24  C   UNL     1       4.444  -0.276  -2.124  0.00  0.00    +0.117 C 
BRANCH  24  26
ATOM     25  F   UNL     1       8.472   0.417   1.736  0.00  0.00    -0.205 F 
ATOM     26  C   UNL     1       5.512  -0.089  -1.099  0.00  0.00    -0.003 C 
ATOM     27  C   UNL     1       5.630   1.128  -0.428  0.00  0.00    -0.005 C 
ATOM     28  C   UNL     1       6.629   1.302   0.530  0.00  0.00    +0.005 C 
ATOM     29  C   UNL     1       6.392  -1.132  -0.811  0.00  0.00    -0.000 C 
ATOM     30  C   UNL     1       7.509   0.259   0.817  0.00  0.00    +0.136 C 
ATOM     31  C   UNL     1       7.391  -0.958   0.146  0.00  0.00    +0.029 C 
ATOM     32  C   UNL     1       6.752   2.605   1.246  0.00  0.00    +0.033 C 
ENDBRANCH  24  26
ENDBRANCH  21  24
ENDBRANCH   4  22
TORSDOF 6
