REMARK  Name = 5326924
REMARK  6 active torsions:
REMARK  status: ('A' for Active; 'I' for Inactive)
REMARK    1  A    between atoms: C_5  and  O_9
REMARK    2  A    between atoms: C_6  and  O_22
REMARK    3  A    between atoms: O_9  and  C_10
REMARK    4  A    between atoms: C_13  and  C_18
REMARK    5  A    between atoms: O_22  and  C_23
REMARK    6  A    between atoms: C_26  and  C_31
REMARK                            x       y       z     vdW  Elec       q    Type
REMARK                         _______ _______ _______ _____ _____    ______ ____
ROOT
ATOM      1  O   UNL     1      -0.635  -2.629  -0.921  0.00  0.00    -0.346 OA
ATOM      2  O   UNL     1       0.932  -0.019  -1.217  0.00  0.00    -0.346 OA
ATOM      3  C   UNL     1      -0.664  -1.413  -0.150  0.00  0.00    +0.188 C 
ATOM      4  C   UNL     1       0.761  -0.898  -0.091  0.00  0.00    +0.188 C 
ATOM      5  C   UNL     1      -1.397  -0.330  -0.901  0.00  0.00    +0.225 C 
ATOM      6  C   UNL     1       1.570  -2.163  -0.241  0.00  0.00    +0.225 C 
ATOM      7  C   UNL     1       0.730  -2.964  -1.212  0.00  0.00    +0.188 C 
ATOM      8  C   UNL     1      -0.339   0.182  -1.858  0.00  0.00    +0.188 C 
ENDROOT
BRANCH   5   9
ATOM      9  O   UNL     1      -1.752   0.720  -0.010  0.00  0.00    -0.474 OA
BRANCH   9  10
ATOM     10  C   UNL     1      -3.073   1.083   0.020  0.00  0.00    +0.139 C 
ATOM     11  C   UNL     1      -4.037   0.146   0.372  0.00  0.00    +0.040 C 
ATOM     12  C   UNL     1      -3.436   2.386  -0.304  0.00  0.00    +0.037 C 
ATOM     13  C   UNL     1      -5.382   0.516   0.402  0.00  0.00    +0.034 C 
ATOM     14  C   UNL     1      -4.780   2.756  -0.274  0.00  0.00    +0.003 C 
ATOM     15  C   UNL     1      -5.753   1.821   0.078  0.00  0.00    +0.003 C 
BRANCH  13  18
ATOM     16  N   UNL     1      -7.748  -0.120   0.806  0.00  0.00    -0.343 N 
ATOM     17  N   UNL     1      -6.042  -1.693   1.079  0.00  0.00    -0.285 NA
ATOM     18  C   UNL     1      -6.396  -0.459   0.769  0.00  0.00    +0.117 C 
ATOM     19  H   UNL     1      -8.418  -0.796   1.058  0.00  0.00    +0.144 HD
ATOM     20  H   UNL     1      -8.032   0.796   0.582  0.00  0.00    +0.144 HD
ATOM     21  H   UNL     1      -6.727  -2.355   1.327  0.00  0.00    +0.188 HD
ENDBRANCH  13  18
ENDBRANCH   9  10
ENDBRANCH   5   9
BRANCH   6  22
ATOM     22  O   UNL     1       2.876  -1.923  -0.715  0.00  0.00    -0.474 OA
BRANCH  22  23
ATOM     23  C   UNL     1       3.702  -1.158   0.076  0.00  0.00    +0.139 C 
ATOM     24  C   UNL     1       4.220   0.028  -0.425  0.00  0.00    +0.040 C 
ATOM     25  C   UNL     1       4.004  -1.585   1.361  0.00  0.00    +0.037 C 
ATOM     26  C   UNL     1       5.059   0.803   0.377  0.00  0.00    +0.034 C 
ATOM     27  C   UNL     1       4.842  -0.809   2.163  0.00  0.00    +0.003 C 
ATOM     28  C   UNL     1       5.369   0.384   1.671  0.00  0.00    +0.003 C 
BRANCH  26  31
ATOM     29  N   UNL     1       6.449   2.843   0.640  0.00  0.00    -0.343 N 
ATOM     30  N   UNL     1       5.310   2.444  -1.361  0.00  0.00    -0.285 NA
ATOM     31  C   UNL     1       5.609   2.048  -0.136  0.00  0.00    +0.117 C 
ATOM     32  H   UNL     1       6.811   3.682   0.273  0.00  0.00    +0.144 HD
ATOM     33  H   UNL     1       6.681   2.567   1.556  0.00  0.00    +0.144 HD
ATOM     34  H   UNL     1       5.681   3.286  -1.710  0.00  0.00    +0.188 HD
ENDBRANCH  26  31
ENDBRANCH  22  23
ENDBRANCH   6  22
TORSDOF 6
