REMARK  Name = 5289072
REMARK  6 active torsions:
REMARK  status: ('A' for Active; 'I' for Inactive)
REMARK    1  A    between atoms: CA_1  and  N_2
REMARK    2  A    between atoms: CA_1  and  C_7
REMARK    3  A    between atoms: CA_1  and  C_10
REMARK    4  A    between atoms: C_7  and  O_8
REMARK    5  A    between atoms: C_10  and  C_11
REMARK    6  A    between atoms: C_11  and  C_13
REMARK                            x       y       z     vdW  Elec       q    Type
REMARK                         _______ _______ _______ _____ _____    ______ ____
ROOT
ATOM      1  CA  UNL     1      -1.361  -0.577   0.601  0.00  0.00    +0.036 C 
ENDROOT
BRANCH   1   2
ATOM      2  N   UNL     1      -2.196  -1.750   0.329  0.00  0.00    +0.389 N 
ATOM      3  H1  UNL     1      -1.816  -2.559   0.820  0.00  0.00    -0.088 HD
ATOM      4  H2  UNL     1      -2.207  -1.935  -0.674  0.00  0.00    -0.088 HD
ATOM      5  H3  UNL     1      -3.148  -1.573   0.651  0.00  0.00    -0.088 HD
ENDBRANCH   1   2
BRANCH   1   7
ATOM      6  OXT UNL     1      -2.539   0.511  -1.234  0.00  0.00    -0.253 OA
ATOM      7  C   UNL     1      -1.972   0.592  -0.152  0.00  0.00    +0.293 C 
BRANCH   7   8
ATOM      8  O   UNL     1      -1.801   1.772   0.501  0.00  0.00    -0.482 OA
ATOM      9  H   UNL     1      -1.362   1.790   1.328  0.00  0.00    +0.295 HD
ENDBRANCH   7   8
ENDBRANCH   1   7
BRANCH   1  10
ATOM     10  C   UNL     1       0.073  -0.860   0.134  0.00  0.00    -0.003 C 
BRANCH  10  11
ATOM     11  C   UNL     1       1.046   0.302   0.350  0.00  0.00    +0.063 C 
BRANCH  11  13
ATOM     12  O   UNL     1       2.800  -1.078  -0.582  0.00  0.00    -0.296 OA
ATOM     13  C   UNL     1       2.473  -0.008  -0.071  0.00  0.00    +0.151 C 
ATOM     14  C   UNL     1       3.478   1.097   0.126  0.00  0.00    +0.072 C 
ENDBRANCH  11  13
ENDBRANCH  10  11
ENDBRANCH   1  10
TORSDOF 6
