REMARK  Name = 5327013
REMARK  7 active torsions:
REMARK  status: ('A' for Active; 'I' for Inactive)
REMARK    1  A    between atoms: C_6  and  C_13
REMARK    2  A    between atoms: C_7  and  C_21
REMARK    3  A    between atoms: C_8  and  C_24
REMARK    4  A    between atoms: C_21  and  O_22
REMARK    5  A    between atoms: C_24  and  P_25
REMARK    6  A    between atoms: P_25  and  O_27
REMARK    7  A    between atoms: P_25  and  O_29
REMARK                            x       y       z     vdW  Elec       q    Type
REMARK                         _______ _______ _______ _____ _____    ______ ____
ROOT
ATOM      1  O   UNL     1      -0.334   2.447  -0.986  0.00  0.00    -0.347 OA
ATOM      2  O   UNL     1      -1.618  -0.232   0.952  0.00  0.00    -0.327 OA
ATOM      3  O   UNL     1      -3.042   1.190  -0.243  0.00  0.00    -0.327 OA
ATOM      4  C   UNL     1      -1.012   1.049   0.816  0.00  0.00    +0.179 C 
ATOM      5  C   UNL     1      -2.130   2.001   0.502  0.00  0.00    +0.177 C 
ATOM      6  C   UNL     1      -0.129   1.130  -0.430  0.00  0.00    +0.170 C 
ATOM      7  C   UNL     1      -1.491   3.055  -0.377  0.00  0.00    +0.174 C 
ATOM      8  C   UNL     1      -2.915  -0.103   0.358  0.00  0.00    +0.248 C 
ENDROOT
BRANCH   6  13
ATOM      9  O   UNL     1       5.442  -1.142   0.458  0.00  0.00    -0.221 OA
ATOM     10  N   UNL     1       3.469   1.095   0.412  0.00  0.00    -0.302 N 
ATOM     11  N   UNL     1       1.513  -1.618  -0.558  0.00  0.00    -0.311 N 
ATOM     12  N   UNL     1       3.729  -2.539  -0.209  0.00  0.00    -0.179 NA
ATOM     13  C   UNL     1       1.318   0.840  -0.143  0.00  0.00    +0.037 C 
ATOM     14  C   UNL     1       1.972  -0.399  -0.221  0.00  0.00    +0.071 C 
ATOM     15  C   UNL     1       2.271   1.755   0.254  0.00  0.00    +0.062 C 
ATOM     16  C   UNL     1       3.295  -0.233   0.122  0.00  0.00    +0.146 C 
ATOM     17  C   UNL     1       4.267  -1.303   0.150  0.00  0.00    +0.167 C 
ATOM     18  C   UNL     1       2.467  -2.615  -0.520  0.00  0.00    +0.229 C 
ATOM     19  H   UNL     1       4.316   1.511   0.691  0.00  0.00    +0.153 HD
ATOM     20  H   UNL     1       0.576  -1.784  -0.810  0.00  0.00    +0.149 HD
ENDBRANCH   6  13
BRANCH   7  21
ATOM     21  C   UNL     1      -1.020   4.266   0.416  0.00  0.00    +0.169 C 
BRANCH  21  22
ATOM     22  O   UNL     1      -0.428   5.193  -0.479  0.00  0.00    -0.379 OA
ATOM     23  H   UNL     1      -0.124   5.970   0.016  0.00  0.00    +0.211 HD
ENDBRANCH  21  22
ENDBRANCH   7  21
BRANCH   8  24
ATOM     24  C   UNL     1      -3.123  -1.182  -0.686  0.00  0.00    +0.177 C 
BRANCH  24  25
ATOM     25  P   UNL     1      -3.027  -2.844   0.014  0.00  0.00    +0.342 P 
ATOM     26  O   UNL     1      -1.717  -3.149   0.653  0.00  0.00    -0.258 OA
BRANCH  25  27
ATOM     27  O   UNL     1      -3.442  -3.772  -1.234  0.00  0.00    -0.323 OA
ATOM     28  H   UNL     1      -3.423  -4.704  -0.965  0.00  0.00    +0.220 HD
ENDBRANCH  25  27
BRANCH  25  29
ATOM     29  O   UNL     1      -4.315  -2.891   0.979  0.00  0.00    -0.323 OA
ATOM     30  H   UNL     1      -4.361  -3.756   1.415  0.00  0.00    +0.220 HD
ENDBRANCH  25  29
ENDBRANCH  24  25
ENDBRANCH   8  24
TORSDOF 7
