REMARK  Name = 121904
REMARK  4 active torsions:
REMARK  status: ('A' for Active; 'I' for Inactive)
REMARK    1  A    between atoms: C_5  and  O_23
REMARK    2  A    between atoms: C_9  and  O_25
REMARK    3  A    between atoms: C_12  and  O_27
REMARK    4  A    between atoms: C_13  and  C_29
REMARK                            x       y       z     vdW  Elec       q    Type
REMARK                         _______ _______ _______ _____ _____    ______ ____
ROOT
ATOM      1  O   UNL     1      -1.605   1.375   0.226  0.00  0.00    -0.452 OA
ATOM      2  O   UNL     1      -0.405  -3.907  -0.179  0.00  0.00    -0.296 OA
ATOM      3  O   UNL     1      -0.950   2.542  -1.657  0.00  0.00    -0.250 OA
ATOM      4  C   UNL     1       3.175  -0.862  -0.674  0.00  0.00    +0.027 C 
ATOM      5  C   UNL     1       3.651   0.218   0.340  0.00  0.00    +0.113 C 
ATOM      6  C   UNL     1       2.543   1.169   0.893  0.00  0.00    +0.054 C 
ATOM      7  C   UNL     1       2.123  -1.828  -0.075  0.00  0.00    +0.010 C 
ATOM      8  C   UNL     1       0.888  -2.027  -0.973  0.00  0.00    +0.058 C 
ATOM      9  C   UNL     1       1.664   1.810  -0.212  0.00  0.00    +0.123 C 
ATOM     10  C   UNL     1      -3.327  -0.374   0.329  0.00  0.00    +0.067 C 
ATOM     11  C   UNL     1      -1.089  -1.765   0.715  0.00  0.00    +0.085 C 
ATOM     12  C   UNL     1      -2.479  -1.651   0.048  0.00  0.00    +0.121 C 
ATOM     13  C   UNL     1      -2.797   0.880  -0.419  0.00  0.00    +0.171 C 
ATOM     14  C   UNL     1       0.433   2.569   0.343  0.00  0.00    +0.126 C 
ATOM     15  C   UNL     1      -0.220  -2.689  -0.153  0.00  0.00    +0.152 C 
ATOM     16  C   UNL     1       4.376  -1.661  -1.207  0.00  0.00    +0.002 C 
ATOM     17  C   UNL     1       3.195   2.236   1.792  0.00  0.00    +0.005 C 
ATOM     18  C   UNL     1       1.190  -2.845  -2.226  0.00  0.00    +0.008 C 
ATOM     19  C   UNL     1      -3.553  -0.121   1.823  0.00  0.00    +0.006 C 
ATOM     20  C   UNL     1      -1.072  -2.321   2.141  0.00  0.00    +0.010 C 
ATOM     21  C   UNL     1      -0.779   2.186  -0.497  0.00  0.00    +0.319 C 
ATOM     22  C   UNL     1       0.552   4.092   0.353  0.00  0.00    +0.014 C 
ENDROOT
BRANCH   5  23
ATOM     23  O   UNL     1       4.263  -0.428   1.463  0.00  0.00    -0.384 OA
ATOM     24  H   UNL     1       4.959  -1.028   1.151  0.00  0.00    +0.210 HD
ENDBRANCH   5  23
BRANCH   9  25
ATOM     25  O   UNL     1       2.441   2.662  -1.049  0.00  0.00    -0.384 OA
ATOM     26  H   UNL     1       3.206   2.173  -1.388  0.00  0.00    +0.210 HD
ENDBRANCH   9  25
BRANCH  12  27
ATOM     27  O   UNL     1      -3.255  -2.799   0.416  0.00  0.00    -0.384 OA
ATOM     28  H   UNL     1      -4.132  -2.742   0.005  0.00  0.00    +0.210 HD
ENDBRANCH  12  27
BRANCH  13  29
ATOM     29  C   UNL     1      -3.842   1.999  -0.445  0.00  0.00    +0.044 C 
ATOM     30  C   UNL     1      -5.120   1.541  -1.117  0.00  0.00    +0.004 C 
ENDBRANCH  13  29
TORSDOF 4
