REMARK  Name = 6021
REMARK  5 active torsions:
REMARK  status: ('A' for Active; 'I' for Inactive)
REMARK    1  A    between atoms: C2*_2  and  O2*_17
REMARK    2  A    between atoms: C1*_3  and  N9_7
REMARK    3  A    between atoms: C3*_4  and  O3*_19
REMARK    4  A    between atoms: C4*_5  and  C5*_21
REMARK    5  A    between atoms: C5*_21  and  O5*_22
REMARK                            x       y       z     vdW  Elec       q    Type
REMARK                         _______ _______ _______ _____ _____    ______ ____
ROOT
ATOM      1  O4* I   A   1       2.013  -0.516  -0.954  0.00  0.00    -0.336 OA
ATOM      2  C2* I   A   1       1.729   1.000   0.844  0.00  0.00    +0.183 C 
ATOM      3  C1* I   A   1       1.071   0.422  -0.400  0.00  0.00    +0.209 C 
ATOM      4  C3* I   A   1       3.187   1.027   0.428  0.00  0.00    +0.171 C 
ATOM      5  C4* I   A   1       3.317  -0.257  -0.384  0.00  0.00    +0.175 C 
ENDROOT
BRANCH   3   7
ATOM      6  O6  I   A   1      -4.549  -1.380   0.416  0.00  0.00    -0.221 OA
ATOM      7  N9  I   A   1      -0.201  -0.251  -0.143  0.00  0.00    -0.210 NA
ATOM      8  N3  I   A   1      -1.844   1.501  -0.541  0.00  0.00    -0.259 NA
ATOM      9  N7  I   A   1      -1.642  -1.887   0.396  0.00  0.00    -0.242 NA
ATOM     10  N1  I   A   1      -4.130   0.811  -0.220  0.00  0.00    -0.183 NA
ATOM     11  C4  I   A   1      -1.450   0.266  -0.217  0.00  0.00    +0.173 C 
ATOM     12  C8  I   A   1      -0.369  -1.565   0.235  0.00  0.00    +0.205 C 
ATOM     13  C5  I   A   1      -2.320  -0.736   0.112  0.00  0.00    +0.167 C 
ATOM     14  C6  I   A   1      -3.753  -0.495   0.124  0.00  0.00    +0.168 C 
ATOM     15  C2  I   A   1      -3.212   1.692  -0.518  0.00  0.00    +0.211 C 
ATOM     16  H3  I   A   1      -1.211   2.217  -0.777  0.00  0.00    +0.127 HD
ENDBRANCH   3   7
BRANCH   2  17
ATOM     17  O2* I   A   1       1.220   2.279   1.163  0.00  0.00    -0.378 OA
ATOM     18  H2* I   A   1       0.288   2.201   1.421  0.00  0.00    +0.211 HD
ENDBRANCH   2  17
BRANCH   4  19
ATOM     19  O3* I   A   1       3.414   2.142  -0.434  0.00  0.00    -0.379 OA
ATOM     20  H3* I   A   1       3.333   2.965   0.073  0.00  0.00    +0.211 HD
ENDBRANCH   4  19
BRANCH   5  21
ATOM     21  C5* I   A   1       3.717  -1.457   0.464  0.00  0.00    +0.169 C 
BRANCH  21  22
ATOM     22  O5* I   A   1       3.802  -2.596  -0.374  0.00  0.00    -0.379 OA
ATOM     23  H5* I   A   1       4.056  -3.369   0.155  0.00  0.00    +0.211 HD
ENDBRANCH  21  22
ENDBRANCH   5  21
TORSDOF 5
