REMARK  Name = 5287512
REMARK  2 active torsions:
REMARK  status: ('A' for Active; 'I' for Inactive)
REMARK    1  A    between atoms: C_3  and  C_10
REMARK    2  A    between atoms: C_5  and  C_19
REMARK                            x       y       z     vdW  Elec       q    Type
REMARK                         _______ _______ _______ _____ _____    ______ ____
ROOT
ATOM      1  N   UNL     1      -2.933  -3.200  -0.220  0.00  0.00    -0.228 NA
ATOM      2  N   UNL     1      -3.227  -1.840  -0.213  0.00  0.00    -0.277 N 
ATOM      3  C   UNL     1      -1.007  -1.797  -0.018  0.00  0.00    +0.041 C 
ATOM      4  C   UNL     1      -1.457  -3.236  -0.043  0.00  0.00    +0.118 C 
ATOM      5  C   UNL     1      -2.117  -1.043  -0.095  0.00  0.00    +0.084 C 
ATOM      6  H   UNL     1      -3.206  -3.628  -1.105  0.00  0.00    +0.145 HD
ATOM      7  H   UNL     1      -4.142  -1.484  -0.286  0.00  0.00    +0.166 HD
ENDROOT
BRANCH   3  10
ATOM      8  N   UNL     1       0.757  -0.256  -0.495  0.00  0.00    -0.405 NA
ATOM      9  N   UNL     1       4.324  -0.263   0.296  0.00  0.00    -0.242 NA
ATOM     10  C   UNL     1       0.407  -1.424   0.084  0.00  0.00    +0.130 C 
ATOM     11  C   UNL     1       1.296  -2.246   0.742  0.00  0.00    +0.033 C 
ATOM     12  C   UNL     1       2.048   0.124  -0.423  0.00  0.00    +0.131 C 
ATOM     13  C   UNL     1       3.033  -0.642   0.225  0.00  0.00    +0.107 C 
ATOM     14  C   UNL     1       2.622  -1.836   0.804  0.00  0.00    +0.024 C 
ATOM     15  C   UNL     1       2.459   1.318  -1.002  0.00  0.00    +0.088 C 
ATOM     16  C   UNL     1       3.785   1.728  -0.939  0.00  0.00    +0.002 C 
ATOM     17  C   UNL     1       4.674   0.905  -0.282  0.00  0.00    +0.095 C 
ENDBRANCH   3  10
BRANCH   5  19
ATOM     18  N   UNL     1      -1.336   1.087   0.678  0.00  0.00    -0.409 NA
ATOM     19  C   UNL     1      -2.261   0.413  -0.050  0.00  0.00    +0.127 C 
ATOM     20  C   UNL     1      -3.302   1.039  -0.729  0.00  0.00    +0.086 C 
ATOM     21  C   UNL     1      -1.461   2.433   0.726  0.00  0.00    +0.109 C 
ATOM     22  C   UNL     1      -3.397   2.424  -0.656  0.00  0.00    -0.016 C 
ATOM     23  C   UNL     1      -2.463   3.142   0.083  0.00  0.00    +0.023 C 
ATOM     24  C   UNL     1      -0.442   3.171   1.527  0.00  0.00    +0.066 C 
ENDBRANCH   5  19
TORSDOF 2
