REMARK  Name = 311
REMARK  9 active torsions:
REMARK  status: ('A' for Active; 'I' for Inactive)
REMARK    1  A    between atoms: C_1  and  O_2
REMARK    2  A    between atoms: C_1  and  C_5
REMARK    3  A    between atoms: C_1  and  C_8
REMARK    4  A    between atoms: C_1  and  C_13
REMARK    5  A    between atoms: C_5  and  O_6
REMARK    6  A    between atoms: C_8  and  C_10
REMARK    7  A    between atoms: C_10  and  O_11
REMARK    8  A    between atoms: C_13  and  C_15
REMARK    9  A    between atoms: C_15  and  O_16
REMARK                            x       y       z     vdW  Elec       q    Type
REMARK                         _______ _______ _______ _____ _____    ______ ____
ROOT
ATOM      1  C   UNL     1       0.101   0.362   0.194  0.00  0.00    +0.198 C 
ENDROOT
BRANCH   1   2
ATOM      2  O   UNL     1       0.030   0.209   1.607  0.00  0.00    -0.376 OA
ATOM      3  H   UNL     1       0.566  -0.552   1.877  0.00  0.00    +0.211 HD
ENDBRANCH   1   2
BRANCH   1   5
ATOM      4  O   UNL     1      -1.355   2.269   0.662  0.00  0.00    -0.248 OA
ATOM      5  C   UNL     1      -0.765   1.577  -0.159  0.00  0.00    +0.339 C 
BRANCH   5   6
ATOM      6  O   UNL     1      -0.856   1.798  -1.496  0.00  0.00    -0.479 OA
ATOM      7  H   UNL     1      -0.390   1.248  -2.094  0.00  0.00    +0.295 HD
ENDBRANCH   5   6
ENDBRANCH   1   5
BRANCH   1   8
ATOM      8  C   UNL     1      -0.490  -0.879  -0.497  0.00  0.00    +0.148 C 
BRANCH   8  10
ATOM      9  O   UNL     1      -2.556  -0.626   0.732  0.00  0.00    -0.250 OA
ATOM     10  C   UNL     1      -1.910  -1.230  -0.115  0.00  0.00    +0.317 C 
BRANCH  10  11
ATOM     11  O   UNL     1      -2.391  -2.305  -0.787  0.00  0.00    -0.480 OA
ATOM     12  H   UNL     1      -1.858  -2.734  -1.427  0.00  0.00    +0.295 HD
ENDBRANCH  10  11
ENDBRANCH   8  10
ENDBRANCH   1   8
BRANCH   1  13
ATOM     13  C   UNL     1       1.537   0.710  -0.227  0.00  0.00    +0.148 C 
BRANCH  13  15
ATOM     14  O   UNL     1       2.544  -1.125   0.984  0.00  0.00    -0.250 OA
ATOM     15  C   UNL     1       2.577  -0.357   0.030  0.00  0.00    +0.317 C 
BRANCH  15  16
ATOM     16  O   UNL     1       3.535  -0.403  -0.927  0.00  0.00    -0.480 OA
ATOM     17  H   UNL     1       3.517   0.207  -1.638  0.00  0.00    +0.295 HD
ENDBRANCH  15  16
ENDBRANCH  13  15
ENDBRANCH   1  13
TORSDOF 9
