REMARK  Name = 445018
REMARK  7 active torsions:
REMARK  status: ('A' for Active; 'I' for Inactive)
REMARK    1  A    between atoms: N_2  and  S_14
REMARK    2  A    between atoms: N_3  and  C_25
REMARK    3  A    between atoms: C_4  and  C_10
REMARK    4  A    between atoms: N_9  and  O_12
REMARK    5  A    between atoms: S_14  and  C_17
REMARK    6  A    between atoms: C_22  and  O_23
REMARK    7  A    between atoms: C_25  and  C_26
REMARK                            x       y       z     vdW  Elec       q    Type
REMARK                         _______ _______ _______ _____ _____    ______ ____
ROOT
ATOM      1  O   UNL     1      -1.976  -2.737  -1.661  0.00  0.00    -0.275 OA
ATOM      2  N   UNL     1       0.987  -1.113   0.644  0.00  0.00    -0.128 NA
ATOM      3  N   UNL     1      -1.381  -1.433   0.176  0.00  0.00    -0.260 N 
ATOM      4  C   UNL     1       1.329  -1.707  -0.674  0.00  0.00    +0.168 C 
ATOM      5  C   UNL     1      -0.376  -0.536   0.727  0.00  0.00    +0.192 C 
ATOM      6  C   UNL     1       0.178  -1.686  -1.673  0.00  0.00    +0.112 C 
ATOM      7  C   UNL     1      -1.168  -2.030  -1.062  0.00  0.00    +0.229 C 
ENDROOT
BRANCH   4  10
ATOM      8  O   UNL     1       0.965  -3.916   0.132  0.00  0.00    -0.272 OA
ATOM      9  N   UNL     1       3.050  -3.366  -0.701  0.00  0.00    -0.196 N 
ATOM     10  C   UNL     1       1.747  -3.108  -0.365  0.00  0.00    +0.261 C 
ATOM     11  H   UNL     1       3.634  -2.680  -1.097  0.00  0.00    +0.182 HD
BRANCH   9  12
ATOM     12  O   UNL     1       3.499  -4.669  -0.446  0.00  0.00    -0.295 OA
ATOM     13  H   UNL     1       4.426  -4.751  -0.717  0.00  0.00    +0.241 HD
ENDBRANCH   9  12
ENDBRANCH   4  10
BRANCH   2  14
ATOM     14  S   UNL     1       2.222  -0.252   1.452  0.00  0.00    +0.065 S 
ATOM     15  O   UNL     1       3.503  -0.849   1.136  0.00  0.00    -0.153 OA
ATOM     16  O   UNL     1       1.825  -0.030   2.827  0.00  0.00    -0.153 OA
BRANCH  14  17
ATOM     17  C   UNL     1       2.128   1.296   0.606  0.00  0.00    +0.122 C 
ATOM     18  C   UNL     1       1.288   2.284   1.092  0.00  0.00    +0.023 C 
ATOM     19  C   UNL     1       2.896   1.495  -0.529  0.00  0.00    +0.023 C 
ATOM     20  C   UNL     1       1.213   3.506   0.424  0.00  0.00    +0.038 C 
ATOM     21  C   UNL     1       2.822   2.718  -1.198  0.00  0.00    +0.038 C 
ATOM     22  C   UNL     1       1.980   3.723  -0.721  0.00  0.00    +0.139 C 
BRANCH  22  23
ATOM     23  O   UNL     1       1.908   4.916  -1.372  0.00  0.00    -0.471 OA
ATOM     24  C   UNL     1       1.028   5.899  -0.830  0.00  0.00    +0.252 C 
ENDBRANCH  22  23
ENDBRANCH  14  17
ENDBRANCH   2  14
BRANCH   3  25
ATOM     25  C   UNL     1      -2.643  -1.570   0.883  0.00  0.00    +0.121 C 
BRANCH  25  26
ATOM     26  C   UNL     1      -3.610  -0.479   0.522  0.00  0.00    -0.002 C 
ATOM     27  C   UNL     1      -3.623   0.700   1.258  0.00  0.00    -0.003 C 
ATOM     28  C   UNL     1      -4.484  -0.659  -0.544  0.00  0.00    -0.003 C 
ATOM     29  C   UNL     1      -4.521   1.713   0.923  0.00  0.00    -0.000 C 
ATOM     30  C   UNL     1      -5.382   0.354  -0.879  0.00  0.00    -0.000 C 
ATOM     31  C   UNL     1      -5.401   1.540  -0.145  0.00  0.00    -0.000 C 
ENDBRANCH  25  26
ENDBRANCH   3  25
TORSDOF 7
