REMARK  Name = 2758978
REMARK  5 active torsions:
REMARK  status: ('A' for Active; 'I' for Inactive)
REMARK    1  A    between atoms: C_3  and  O_8
REMARK    2  A    between atoms: C_4  and  O_10
REMARK    3  A    between atoms: C_5  and  C_14
REMARK    4  A    between atoms: C_7  and  O_12
REMARK    5  A    between atoms: C_14  and  O_15
REMARK                            x       y       z     vdW  Elec       q    Type
REMARK                         _______ _______ _______ _____ _____    ______ ____
ROOT
ATOM      1  F   UNL     1       1.787  -0.711  -1.485  0.00  0.00    -0.229 F 
ATOM      2  O   UNL     1      -0.824  -1.054  -0.428  0.00  0.00    -0.326 OA
ATOM      3  C   UNL     1       0.072   1.190  -0.083  0.00  0.00    +0.170 C 
ATOM      4  C   UNL     1       1.375   0.582   0.431  0.00  0.00    +0.177 C 
ATOM      5  C   UNL     1      -1.092   0.221   0.162  0.00  0.00    +0.176 C 
ATOM      6  C   UNL     1       1.577  -0.816  -0.140  0.00  0.00    +0.246 C 
ATOM      7  C   UNL     1       0.353  -1.697   0.068  0.00  0.00    +0.268 C 
ENDROOT
BRANCH   3   8
ATOM      8  O   UNL     1      -0.150   2.416   0.609  0.00  0.00    -0.379 OA
ATOM      9  H   UNL     1       0.593   3.019   0.446  0.00  0.00    +0.211 HD
ENDBRANCH   3   8
BRANCH   4  10
ATOM     10  O   UNL     1       2.468   1.414   0.053  0.00  0.00    -0.379 OA
ATOM     11  H   UNL     1       2.338   2.303   0.417  0.00  0.00    +0.211 HD
ENDBRANCH   4  10
BRANCH   7  12
ATOM     12  O   UNL     1       0.244  -2.050   1.442  0.00  0.00    -0.358 OA
ATOM     13  H   UNL     1      -0.536  -2.611   1.571  0.00  0.00    +0.213 HD
ENDBRANCH   7  12
BRANCH   5  14
ATOM     14  C   UNL     1      -2.397   0.728  -0.444  0.00  0.00    +0.169 C 
BRANCH  14  15
ATOM     15  O   UNL     1      -3.414  -0.223  -0.185  0.00  0.00    -0.379 OA
ATOM     16  H   UNL     1      -4.251   0.086  -0.565  0.00  0.00    +0.211 HD
ENDBRANCH  14  15
ENDBRANCH   5  14
TORSDOF 5
