REMARK  Name = 6453585
REMARK  1 active torsions:
REMARK  status: ('A' for Active; 'I' for Inactive)
REMARK    1  A    between atoms: C_9  and  O_11
REMARK                            x       y       z     vdW  Elec       q    Type
REMARK                         _______ _______ _______ _____ _____    ______ ____
ROOT
ATOM      1  O   UNL     1      -2.736   1.093   0.318  0.00  0.00    -0.226 OA
ATOM      2  N   UNL     1       2.112  -0.007  -0.201  0.00  0.00    +0.388 N 
ATOM      3  N   UNL     1      -0.746   0.007  -0.231  0.00  0.00    -0.250 N 
ATOM      4  C   UNL     1       1.360  -1.204   0.202  0.00  0.00    -0.055 C 
ATOM      5  C   UNL     1       1.370   1.212   0.157  0.00  0.00    -0.055 C 
ATOM      6  C   UNL     1      -0.015  -1.238  -0.468  0.00  0.00    +0.074 C 
ATOM      7  C   UNL     1      -0.001   1.230  -0.518  0.00  0.00    +0.074 C 
ATOM      8  C   UNL     1       3.437   0.000   0.416  0.00  0.00    -0.101 C 
ATOM      9  C   UNL     1      -2.095   0.066   0.114  0.00  0.00    +0.402 C 
ATOM     10  H   UNL     1       2.230  -0.026  -1.214  0.00  0.00    -0.080 HD
ENDROOT
BRANCH   9  11
ATOM     11  O   UNL     1      -2.686  -1.158   0.211  0.00  0.00    -0.466 OA
ATOM     12  H   UNL     1      -2.185  -1.934   0.052  0.00  0.00    +0.297 HD
ENDBRANCH   9  11
TORSDOF 1
