REMARK  Name = 445319
REMARK  2 active torsions:
REMARK  status: ('A' for Active; 'I' for Inactive)
REMARK    1  A    between atoms: C_3  and  S_7
REMARK    2  A    between atoms: S_7  and  C_8
REMARK                            x       y       z     vdW  Elec       q    Type
REMARK                         _______ _______ _______ _____ _____    ______ ____
ROOT
ATOM      1  N   UNL     1       2.192   0.502   0.888  0.00  0.00    -0.338 N 
ATOM      2  N   UNL     1       1.694  -0.350  -1.258  0.00  0.00    -0.280 NA
ATOM      3  C   UNL     1       1.417  -0.185  -0.004  0.00  0.00    +0.144 C 
ATOM      4  H   UNL     1       1.909   0.580   1.828  0.00  0.00    +0.144 HD
ATOM      5  H   UNL     1       3.034   0.917   0.591  0.00  0.00    +0.144 HD
ATOM      6  H   UNL     1       1.080  -0.860  -1.835  0.00  0.00    +0.189 HD
ENDROOT
BRANCH   3   7
ATOM      7  S   UNL     1      -0.047  -0.865   0.695  0.00  0.00    -0.082 S 
BRANCH   7   8
ATOM      8  C   UNL     1      -1.335  -0.042  -0.301  0.00  0.00    +0.055 C 
ATOM      9  C   UNL     1      -2.712  -0.530   0.134  0.00  0.00    +0.012 C 
ATOM     10  C   UNL     1      -1.210   1.470  -0.154  0.00  0.00    +0.012 C 
ENDBRANCH   7   8
ENDBRANCH   3   7
TORSDOF 2
