REMARK  Name = 5288990
REMARK  7 active torsions:
REMARK  status: ('A' for Active; 'I' for Inactive)
REMARK    1  A    between atoms: CA_1  and  CE_4
REMARK    2  A    between atoms: CA_1  and  N_13
REMARK    3  A    between atoms: CA_1  and  C_23
REMARK    4  A    between atoms: CA_7  and  C_9
REMARK    5  A    between atoms: C_9  and  O_10
REMARK    6  A    between atoms: C_14  and  C_16
REMARK    7  A    between atoms: C_16  and  C_18
REMARK                            x       y       z     vdW  Elec       q    Type
REMARK                         _______ _______ _______ _____ _____    ______ ____
ROOT
ATOM      1  CA  MET A   1      -0.424   1.770  -0.509  0.00  0.00    +0.170 C 
ENDROOT
BRANCH   1   4
ATOM      2  SD  MET A   1      -0.570  -0.432  -2.101  0.00  0.00    -0.115 S 
ATOM      3  N   MET A   1      -2.187   0.256   0.140  0.00  0.00    -0.257 NA
ATOM      4  CE  MET A   1      -1.451   0.764  -1.027  0.00  0.00    +0.176 C 
ATOM      5  CG  MET A   1      -1.681  -1.863  -1.917  0.00  0.00    +0.066 C 
ATOM      6  CB  MET A   1      -3.058  -1.467  -1.413  0.00  0.00    +0.064 C 
ATOM      7  CA  MET A   1      -2.933  -0.769  -0.086  0.00  0.00    +0.131 C 
BRANCH   7   9
ATOM      8  OXT MET A   1      -4.853  -0.894   1.290  0.00  0.00    -0.244 OA
ATOM      9  C   MET A   1      -3.734  -1.293   1.052  0.00  0.00    +0.351 C 
BRANCH   9  10
ATOM     10  O   MET A   1      -3.020  -2.221   1.698  0.00  0.00    -0.476 OA
ATOM     11  H   MET A   1      -2.156  -2.435   1.405  0.00  0.00    +0.295 HD
ENDBRANCH   9  10
ENDBRANCH   7   9
ENDBRANCH   1   4
BRANCH   1  13
ATOM     12  O   UNK A   0       2.309   2.570  -0.094  0.00  0.00    -0.275 OA
ATOM     13  N   MET A   1       0.538   1.132   0.344  0.00  0.00    -0.297 N 
ATOM     14  C   UNK A   0       1.843   1.589   0.484  0.00  0.00    +0.228 C 
ATOM     15  H   MET A   1       0.261   0.336   0.852  0.00  0.00    +0.150 HD
BRANCH  14  16
ATOM     16  C   UNK A   0       2.669   0.764   1.452  0.00  0.00    +0.118 C 
BRANCH  16  18
ATOM     17  S   UNK A   0       3.033  -1.947   1.090  0.00  0.00    -0.090 S 
ATOM     18  C   UNK A   0       3.370  -0.328   0.693  0.00  0.00    +0.016 C 
ATOM     19  C   UNK A   0       4.279  -0.192  -0.313  0.00  0.00    +0.003 C 
ATOM     20  C   UNK A   0       4.722  -1.462  -0.783  0.00  0.00    +0.007 C 
ATOM     21  C   UNK A   0       4.124  -2.502  -0.107  0.00  0.00    +0.035 C 
ENDBRANCH  16  18
ENDBRANCH  14  16
ENDBRANCH   1  13
BRANCH   1  23
ATOM     22  O   MET A   1      -1.897   3.655  -0.181  0.00  0.00    -0.286 OA
ATOM     23  C   MET A   1      -1.079   2.869   0.289  0.00  0.00    +0.230 C 
ENDBRANCH   1  23
TORSDOF 7
