REMARK  Name = 5287600
REMARK  6 active torsions:
REMARK  status: ('A' for Active; 'I' for Inactive)
REMARK    1  A    between atoms: CA_1  and  N_2
REMARK    2  A    between atoms: CA_1  and  C_7
REMARK    3  A    between atoms: CA_1  and  C_10
REMARK    4  A    between atoms: C_7  and  O_8
REMARK    5  A    between atoms: C_10  and  C_13
REMARK    6  A    between atoms: C_13  and  O_14
REMARK                            x       y       z     vdW  Elec       q    Type
REMARK                         _______ _______ _______ _____ _____    ______ ____
ROOT
ATOM      1  CA  UNL     1      -0.705   0.458   0.764  0.00  0.00    +0.046 C 
ENDROOT
BRANCH   1   2
ATOM      2  N   UNL     1      -1.768   1.458   0.823  0.00  0.00    +0.389 N 
ATOM      3  H1  UNL     1      -1.429   2.287   1.313  0.00  0.00    -0.088 HD
ATOM      4  H2  UNL     1      -2.570   1.073   1.322  0.00  0.00    -0.088 HD
ATOM      5  H3  UNL     1      -2.048   1.714  -0.124  0.00  0.00    -0.088 HD
ENDBRANCH   1   2
BRANCH   1   7
ATOM      6  OXT UNL     1      -2.139  -0.654  -0.871  0.00  0.00    -0.253 OA
ATOM      7  C   UNL     1      -1.305  -0.729   0.022  0.00  0.00    +0.293 C 
BRANCH   7   8
ATOM      8  O   UNL     1      -0.798  -1.913   0.457  0.00  0.00    -0.482 OA
ATOM      9  H   UNL     1      -0.161  -1.926   1.144  0.00  0.00    +0.295 HD
ENDBRANCH   7   8
ENDBRANCH   1   7
BRANCH   1  10
ATOM     10  C   UNL     1       0.569   0.990   0.064  0.00  0.00    +0.089 C 
ATOM     11  C   UNL     1       0.305   1.482  -1.360  0.00  0.00    +0.010 C 
BRANCH  10  13
ATOM     12  O   UNL     1       1.766  -0.880  -0.953  0.00  0.00    -0.250 OA
ATOM     13  C   UNL     1       1.630  -0.102  -0.018  0.00  0.00    +0.312 C 
BRANCH  13  14
ATOM     14  O   UNL     1       2.445  -0.110   1.070  0.00  0.00    -0.480 OA
ATOM     15  H   UNL     1       2.306   0.504   1.764  0.00  0.00    +0.295 HD
ENDBRANCH  13  14
ENDBRANCH  10  13
ENDBRANCH   1  10
TORSDOF 6
