REMARK  Name = 2350
REMARK  9 active torsions:
REMARK  status: ('A' for Active; 'I' for Inactive)
REMARK    1  A    between atoms: O_1  and  C_3
REMARK    2  A    between atoms: O_1  and  C_16
REMARK    3  A    between atoms: N_2  and  C_9
REMARK    4  A    between atoms: C_9  and  C_10
REMARK    5  A    between atoms: C_10  and  C_11
REMARK    6  A    between atoms: C_11  and  C_13
REMARK    7  A    between atoms: C_13  and  O_14
REMARK    8  A    between atoms: C_16  and  C_18
REMARK    9  A    between atoms: C_16  and  C_25
REMARK                            x       y       z     vdW  Elec       q    Type
REMARK                         _______ _______ _______ _____ _____    ______ ____
ROOT
ATOM      1  O   UNL     1       0.698   0.139  -0.266  0.00  0.00    -0.348 OA
ENDROOT
BRANCH   1   3
ATOM      2  N   UNL     1      -3.238   0.215   1.155  0.00  0.00    +0.387 N 
ATOM      3  C   UNL     1      -0.442  -0.285   0.471  0.00  0.00    +0.112 C 
ATOM      4  C   UNL     1      -1.582  -0.576  -0.500  0.00  0.00    +0.007 C 
ATOM      5  C   UNL     1      -0.856   0.799   1.462  0.00  0.00    +0.007 C 
ATOM      6  C   UNL     1      -2.882  -0.881   0.243  0.00  0.00    -0.075 C 
ATOM      7  C   UNL     1      -2.178   0.452   2.145  0.00  0.00    -0.075 C 
ATOM      8  H   UNL     1      -3.343   1.064   0.600  0.00  0.00    -0.080 HD
BRANCH   2   9
ATOM      9  C   UNL     1      -4.508  -0.068   1.824  0.00  0.00    -0.077 C 
BRANCH   9  10
ATOM     10  C   UNL     1      -5.620  -0.257   0.791  0.00  0.00    -0.011 C 
BRANCH  10  11
ATOM     11  C   UNL     1      -5.826   0.982  -0.076  0.00  0.00    +0.107 C 
BRANCH  11  13
ATOM     12  O   UNL     1      -7.484  -0.295  -1.282  0.00  0.00    -0.250 OA
ATOM     13  C   UNL     1      -6.910   0.773  -1.104  0.00  0.00    +0.314 C 
BRANCH  13  14
ATOM     14  O   UNL     1      -7.167   1.886  -1.834  0.00  0.00    -0.480 OA
ATOM     15  H   UNL     1      -6.701   2.679  -1.658  0.00  0.00    +0.295 HD
ENDBRANCH  13  14
ENDBRANCH  11  13
ENDBRANCH  10  11
ENDBRANCH   9  10
ENDBRANCH   2   9
ENDBRANCH   1   3
BRANCH   1  16
ATOM     16  C   UNL     1       1.906  -0.237   0.381  0.00  0.00    +0.177 C 
BRANCH  16  18
ATOM     17 CL   UNL     1       6.146   3.901  -0.581  0.00  0.00    -0.082 Cl
ATOM     18  C   UNL     1       2.977   0.806   0.138  0.00  0.00    +0.010 C 
ATOM     19  C   UNL     1       3.953   1.007   1.097  0.00  0.00    -0.001 C 
ATOM     20  C   UNL     1       2.953   1.536  -1.038  0.00  0.00    -0.001 C 
ATOM     21  C   UNL     1       4.939   1.968   0.873  0.00  0.00    +0.011 C 
ATOM     22  C   UNL     1       3.938   2.498  -1.261  0.00  0.00    +0.011 C 
ATOM     23  C   UNL     1       4.931   2.714  -0.306  0.00  0.00    +0.058 C 
ENDBRANCH  16  18
BRANCH  16  25
ATOM     24  N   UNL     1       2.080  -1.977  -1.295  0.00  0.00    -0.245 NA
ATOM     25  C   UNL     1       2.337  -1.633  -0.024  0.00  0.00    +0.090 C 
ATOM     26  C   UNL     1       2.947  -2.428   0.916  0.00  0.00    +0.018 C 
ATOM     27  C   UNL     1       3.330  -3.702   0.514  0.00  0.00    +0.003 C 
ATOM     28  C   UNL     1       2.467  -3.223  -1.649  0.00  0.00    +0.099 C 
ATOM     29  C   UNL     1       3.089  -4.115  -0.792  0.00  0.00    +0.021 C 
ENDBRANCH  16  25
ENDBRANCH   1  16
TORSDOF 9
