REMARK  Name = 657077
REMARK  7 active torsions:
REMARK  status: ('A' for Active; 'I' for Inactive)
REMARK    1  A    between atoms: C_3  and  C_23
REMARK    2  A    between atoms: C_8  and  C_10
REMARK    3  A    between atoms: C_12  and  C_15
REMARK    4  A    between atoms: C_15  and  C_16
REMARK    5  A    between atoms: C_16  and  C_17
REMARK    6  A    between atoms: C_26  and  C_29
REMARK    7  A    between atoms: C_29  and  N_30
REMARK                            x       y       z     vdW  Elec       q    Type
REMARK                         _______ _______ _______ _____ _____    ______ ____
ROOT
ATOM      1  O   UNL     1       0.525   3.828  -2.034  0.00  0.00    -0.270 OA
ATOM      2  N   UNL     1       1.542   2.785  -0.205  0.00  0.00    -0.276 N 
ATOM      3  C   UNL     1       3.542   0.830   0.539  0.00  0.00    +0.026 C 
ATOM      4  C   UNL     1       2.101   0.763   1.082  0.00  0.00    +0.026 C 
ATOM      5  C   UNL     1       3.574   1.548  -0.824  0.00  0.00    +0.026 C 
ATOM      6  C   UNL     1       1.466   2.153   1.118  0.00  0.00    +0.094 C 
ATOM      7  C   UNL     1       2.897   2.916  -0.742  0.00  0.00    +0.094 C 
ATOM      8  C   UNL     1       0.458   3.275  -0.937  0.00  0.00    +0.251 C 
ENDROOT
BRANCH   8  10
ATOM      9  N   UNL     1      -2.664   3.999   0.998  0.00  0.00    -0.242 NA
ATOM     10  C   UNL     1      -0.887   3.114  -0.373  0.00  0.00    +0.072 C 
ATOM     11  C   UNL     1      -1.643   1.984  -0.649  0.00  0.00    +0.003 C 
ATOM     12  C   UNL     1      -2.915   1.859  -0.100  0.00  0.00    -0.003 C 
ATOM     13  C   UNL     1      -1.432   4.084   0.446  0.00  0.00    +0.103 C 
ATOM     14  C   UNL     1      -3.375   2.886   0.709  0.00  0.00    +0.095 C 
BRANCH  12  15
ATOM     15  C   UNL     1      -3.755   0.663  -0.374  0.00  0.00    +0.033 C 
BRANCH  15  16
ATOM     16  C   UNL     1      -3.563  -0.488   0.636  0.00  0.00    +0.031 C 
BRANCH  16  17
ATOM     17  C   UNL     1      -4.395  -1.706   0.312  0.00  0.00    -0.022 C 
ATOM     18  C   UNL     1      -5.673  -1.815   0.837  0.00  0.00    -0.004 C 
ATOM     19  C   UNL     1      -3.865  -2.692  -0.504  0.00  0.00    -0.004 C 
ATOM     20  C   UNL     1      -6.441  -2.940   0.538  0.00  0.00    -0.000 C 
ATOM     21  C   UNL     1      -4.634  -3.817  -0.804  0.00  0.00    -0.000 C 
ATOM     22  C   UNL     1      -5.922  -3.941  -0.282  0.00  0.00    -0.000 C 
ENDBRANCH  16  17
ENDBRANCH  15  16
ENDBRANCH  12  15
ENDBRANCH   8  10
BRANCH   3  23
ATOM     23  C   UNL     1       4.190  -0.540   0.476  0.00  0.00    -0.023 C 
ATOM     24  C   UNL     1       3.651  -1.526  -0.348  0.00  0.00    -0.011 C 
ATOM     25  C   UNL     1       5.324  -0.808   1.241  0.00  0.00    -0.004 C 
ATOM     26  C   UNL     1       4.247  -2.785  -0.407  0.00  0.00    -0.045 C 
ATOM     27  C   UNL     1       5.920  -2.068   1.182  0.00  0.00    -0.001 C 
ATOM     28  C   UNL     1       5.382  -3.056   0.358  0.00  0.00    -0.006 C 
BRANCH  26  29
ATOM     29  C   UNL     1       3.673  -3.843  -1.289  0.00  0.00    -0.059 C 
BRANCH  29  30
ATOM     30  N   UNL     1       2.671  -4.659  -0.600  0.00  0.00    +0.383 N 
ATOM     31  H   UNL     1       2.309  -5.365  -1.241  0.00  0.00    -0.089 HD
ATOM     32  H   UNL     1       1.907  -4.063  -0.283  0.00  0.00    -0.089 HD
ATOM     33  H   UNL     1       3.101  -5.118   0.203  0.00  0.00    -0.089 HD
ENDBRANCH  29  30
ENDBRANCH  26  29
ENDBRANCH   3  23
TORSDOF 7
