REMARK  Name = 4369414
REMARK  8 active torsions:
REMARK  status: ('A' for Active; 'I' for Inactive)
REMARK    1  A    between atoms: C_1  and  C_3
REMARK    2  A    between atoms: C_1  and  N_16
REMARK    3  A    between atoms: C_8  and  O_9
REMARK    4  A    between atoms: O_9  and  S_10
REMARK    5  A    between atoms: S_10  and  N_13
REMARK    6  A    between atoms: N_16  and  C_17
REMARK    7  A    between atoms: N_16  and  N_25
REMARK    8  A    between atoms: C_22  and  C_24
REMARK                            x       y       z     vdW  Elec       q    Type
REMARK                         _______ _______ _______ _____ _____    ______ ____
ROOT
ATOM      1  C   UNL     1      -0.720   1.263   1.792  0.00  0.00    +0.139 C 
ENDROOT
BRANCH   1   3
ATOM      2 BR   UNL     1       2.424  -3.029   1.407  0.00  0.00    -0.046 Br
ATOM      3  C   UNL     1       0.627   0.707   1.420  0.00  0.00    +0.000 C 
ATOM      4  C   UNL     1       0.868  -0.653   1.559  0.00  0.00    +0.007 C 
ATOM      5  C   UNL     1       1.611   1.561   0.940  0.00  0.00    +0.001 C 
ATOM      6  C   UNL     1       2.117  -1.169   1.212  0.00  0.00    +0.071 C 
ATOM      7  C   UNL     1       2.860   1.045   0.593  0.00  0.00    +0.040 C 
ATOM      8  C   UNL     1       3.112  -0.320   0.729  0.00  0.00    +0.179 C 
BRANCH   8   9
ATOM      9  O   UNL     1       4.343  -0.792   0.382  0.00  0.00    -0.349 OA
BRANCH   9  10
ATOM     10  S   UNL     1       4.971  -0.652  -1.126  0.00  0.00    +0.086 S 
ATOM     11  O   UNL     1       5.203   0.756  -1.396  0.00  0.00    -0.046 OA
ATOM     12  O   UNL     1       4.174  -1.460  -2.030  0.00  0.00    -0.046 OA
BRANCH  10  13
ATOM     13  N   UNL     1       6.506  -1.406  -0.981  0.00  0.00    -0.194 NA
ATOM     14  H   UNL     1       7.094  -0.862  -0.349  0.00  0.00    +0.145 HD
ATOM     15  H   UNL     1       6.948  -1.457  -1.898  0.00  0.00    +0.145 HD
ENDBRANCH  10  13
ENDBRANCH   9  10
ENDBRANCH   8   9
ENDBRANCH   1   3
BRANCH   1  16
ATOM     16  N   UNL     1      -1.629   1.248   0.650  0.00  0.00    -0.227 N 
BRANCH  16  17
ATOM     17  C   UNL     1      -2.318   0.072   0.288  0.00  0.00    +0.066 C 
ATOM     18  C   UNL     1      -2.664  -0.863   1.264  0.00  0.00    +0.017 C 
ATOM     19  C   UNL     1      -2.653  -0.156  -1.047  0.00  0.00    +0.017 C 
ATOM     20  C   UNL     1      -3.344  -2.026   0.905  0.00  0.00    +0.012 C 
ATOM     21  C   UNL     1      -3.334  -1.320  -1.406  0.00  0.00    +0.012 C 
ATOM     22  C   UNL     1      -3.679  -2.255  -0.430  0.00  0.00    +0.069 C 
BRANCH  22  24
ATOM     23  N   UNL     1      -4.944  -4.415  -1.097  0.00  0.00    -0.191 NA
ATOM     24  C   UNL     1      -4.377  -3.446  -0.797  0.00  0.00    +0.100 C 
ENDBRANCH  22  24
ENDBRANCH  16  17
BRANCH  16  25
ATOM     25  N   UNL     1      -1.740   2.464  -0.018  0.00  0.00    -0.174 N 
ATOM     26  N   UNL     1      -2.426   4.438  -0.591  0.00  0.00    -0.127 NA
ATOM     27  N   UNL     1      -1.380   4.080  -1.417  0.00  0.00    -0.127 NA
ATOM     28  C   UNL     1      -2.626   3.446   0.246  0.00  0.00    +0.210 C 
ATOM     29  C   UNL     1      -0.981   2.882  -1.052  0.00  0.00    +0.210 C 
ENDBRANCH  16  25
ENDBRANCH   1  16
TORSDOF 8
