REMARK  Name = 46936963
REMARK  5 active torsions:
REMARK  status: ('A' for Active; 'I' for Inactive)
REMARK    1  A    between atoms: C_6  and  O_12
REMARK    2  A    between atoms: C_7  and  O_14
REMARK    3  A    between atoms: C_9  and  O_16
REMARK    4  A    between atoms: C_10  and  C_19
REMARK    5  A    between atoms: C_19  and  O_20
REMARK                            x       y       z     vdW  Elec       q    Type
REMARK                         _______ _______ _______ _____ _____    ______ ____
ROOT
ATOM      1  O   UNL     1      -0.552  -0.549   0.593  0.00  0.00    -0.323 OA
ATOM      2  O   UNL     1       1.266   1.542  -0.179  0.00  0.00    -0.326 OA
ATOM      3  O   UNL     1      -1.569   1.579   0.242  0.00  0.00    -0.323 OA
ATOM      4  C   UNL     1       0.094  -0.524  -0.686  0.00  0.00    +0.177 C 
ATOM      5  C   UNL     1       0.350   0.927  -1.095  0.00  0.00    +0.177 C 
ATOM      6  C   UNL     1       1.415  -1.288  -0.589  0.00  0.00    +0.172 C 
ATOM      7  C   UNL     1       2.421  -0.546   0.290  0.00  0.00    +0.196 C 
ATOM      8  C   UNL     1      -0.949   1.720  -1.036  0.00  0.00    +0.177 C 
ATOM      9  C   UNL     1       2.545   0.913  -0.152  0.00  0.00    +0.262 C 
ATOM     10  C   UNL     1      -1.745   0.224   0.636  0.00  0.00    +0.280 C 
ATOM     11  C   UNL     1      -2.193   0.249   2.096  0.00  0.00    +0.074 C 
ENDROOT
BRANCH   6  12
ATOM     12  O   UNL     1       1.169  -2.589  -0.064  0.00  0.00    -0.379 OA
ATOM     13  H   UNL     1       0.530  -3.050  -0.629  0.00  0.00    +0.211 HD
ENDBRANCH   6  12
BRANCH   7  14
ATOM     14  O   UNL     1       3.689  -1.189   0.163  0.00  0.00    -0.378 OA
ATOM     15  H   UNL     1       3.611  -2.114   0.443  0.00  0.00    +0.211 HD
ENDBRANCH   7  14
BRANCH   9  16
ATOM     16  O   UNL     1       3.392   1.581   0.783  0.00  0.00    -0.358 OA
ATOM     17  H   UNL     1       3.488   2.511   0.525  0.00  0.00    +0.213 HD
ENDBRANCH   9  16
BRANCH  10  19
ATOM     18  O   UNL     1      -3.800   0.156  -0.653  0.00  0.00    -0.245 OA
ATOM     19  C   UNL     1      -2.858  -0.432  -0.144  0.00  0.00    +0.366 C 
BRANCH  19  20
ATOM     20  O   UNL     1      -2.674  -1.774  -0.205  0.00  0.00    -0.477 OA
ATOM     21  H   UNL     1      -1.929  -2.164   0.208  0.00  0.00    +0.295 HD
ENDBRANCH  19  20
ENDBRANCH  10  19
TORSDOF 5
