REMARK  Name = 445505
REMARK  12 active torsions:
REMARK  status: ('A' for Active; 'I' for Inactive)
REMARK    1  A    between atoms: C_1  and  S_22
REMARK    2  A    between atoms: C_4  and  C_9
REMARK    3  A    between atoms: N_8  and  CA_11
REMARK    4  A    between atoms: CA_11  and  C_13
REMARK    5  A    between atoms: CA_11  and  CB_16
REMARK    6  A    between atoms: C_13  and  O_14
REMARK    7  A    between atoms: CB_16  and  CG_17
REMARK    8  A    between atoms: CG_17  and  CD_19
REMARK    9  A    between atoms: CD_19  and  OE1_20
REMARK   10  A    between atoms: S_22  and  N_25
REMARK   11  A    between atoms: C_26  and  C_31
REMARK   12  A    between atoms: C_31  and  O_32
REMARK                            x       y       z     vdW  Elec       q    Type
REMARK                         _______ _______ _______ _____ _____    ______ ____
ROOT
ATOM      1  C   UNL     1       2.085  -1.439   0.119  0.00  0.00    +0.122 C 
ATOM      2  C   UNL     1       1.123  -1.704  -0.856  0.00  0.00    +0.020 C 
ATOM      3  C   UNL     1       1.692  -1.138   1.423  0.00  0.00    +0.020 C 
ATOM      4  C   UNL     1      -0.625  -1.368   0.778  0.00  0.00    +0.053 C 
ATOM      5  C   UNL     1      -0.232  -1.669  -0.526  0.00  0.00    +0.006 C 
ATOM      6  C   UNL     1       0.337  -1.103   1.753  0.00  0.00    +0.006 C 
ENDROOT
BRANCH   4   9
ATOM      7  O   UNL     1      -2.410  -1.544   2.288  0.00  0.00    -0.270 OA
ATOM      8  N   UNL     1      -2.934  -1.025   0.090  0.00  0.00    -0.293 N 
ATOM      9  C   ACE A   0      -2.038  -1.331   1.121  0.00  0.00    +0.246 C 
ATOM     10  H   UNL     1      -2.571  -0.868  -0.812  0.00  0.00    +0.150 HD
BRANCH   8  11
ATOM     11  CA  UNL     1      -4.364  -0.927   0.277  0.00  0.00    +0.172 C 
BRANCH  11  13
ATOM     12  OXT UNL     1      -4.443  -1.746  -2.015  0.00  0.00    -0.248 OA
ATOM     13  C   UNL     1      -5.027  -1.445  -0.983  0.00  0.00    +0.332 C 
BRANCH  13  14
ATOM     14  O   UNL     1      -6.371  -1.579  -0.830  0.00  0.00    -0.479 OA
ATOM     15  H   UNL     1      -6.777  -1.336  -0.021  0.00  0.00    +0.295 HD
ENDBRANCH  13  14
ENDBRANCH  11  13
BRANCH  11  16
ATOM     16  CB  UNL     1      -4.813   0.483   0.678  0.00  0.00    +0.043 C 
BRANCH  16  17
ATOM     17  CG  UNL     1      -4.538   1.590  -0.347  0.00  0.00    +0.112 C 
BRANCH  17  19
ATOM     18  OE2 UNL     1      -5.518   3.222   1.173  0.00  0.00    -0.250 OA
ATOM     19  CD  UNL     1      -4.989   2.963   0.101  0.00  0.00    +0.314 C 
BRANCH  19  20
ATOM     20  OE1 UNL     1      -4.772   3.899  -0.860  0.00  0.00    -0.480 OA
ATOM     21  HE1 UNL     1      -4.363   3.656  -1.667  0.00  0.00    +0.295 HD
ENDBRANCH  19  20
ENDBRANCH  17  19
ENDBRANCH  16  17
ENDBRANCH  11  16
ENDBRANCH   8  11
ENDBRANCH   4   9
BRANCH   1  22
ATOM     22  S   UNL     1       3.802  -1.482  -0.299  0.00  0.00    +0.064 S 
ATOM     23  O   UNL     1       4.541  -1.754   0.920  0.00  0.00    -0.153 OA
ATOM     24  O   UNL     1       3.951  -2.343  -1.457  0.00  0.00    -0.153 OA
BRANCH  22  25
ATOM     25  N   UNL     1       4.046   0.136  -0.763  0.00  0.00    -0.146 NA
ATOM     26  C   UNL     1       4.069   1.174   0.304  0.00  0.00    +0.178 C 
ATOM     27  C   UNL     1       3.262   2.347  -0.243  0.00  0.00    +0.031 C 
ATOM     28  C   UNL     1       3.241   0.651  -1.903  0.00  0.00    +0.096 C 
ATOM     29  C   UNL     1       3.317   2.161  -1.750  0.00  0.00    +0.021 C 
BRANCH  26  31
ATOM     30  O   UNL     1       6.436   0.995  -0.120  0.00  0.00    -0.249 OA
ATOM     31  C   UNL     1       5.511   1.510   0.490  0.00  0.00    +0.330 C 
BRANCH  31  32
ATOM     32  O   UNL     1       5.661   2.469   1.436  0.00  0.00    -0.479 OA
ATOM     33  H   UNL     1       4.908   2.823   1.867  0.00  0.00    +0.295 HD
ENDBRANCH  31  32
ENDBRANCH  26  31
ENDBRANCH  22  25
ENDBRANCH   1  22
TORSDOF 12
