REMARK  Name = 445281
REMARK  1 active torsions:
REMARK  status: ('A' for Active; 'I' for Inactive)
REMARK    1  A    between atoms: C_2  and  N_7
REMARK                            x       y       z     vdW  Elec       q    Type
REMARK                         _______ _______ _______ _____ _____    ______ ____
ROOT
ATOM      1  N   UNL     1       1.177  -1.188  -0.015  0.00  0.00    -0.276 NA
ATOM      2  C   UNL     1      -0.991   0.000   0.338  0.00  0.00    -0.041 C 
ATOM      3  C   UNL     1      -0.367   1.240  -0.289  0.00  0.00    -0.014 C 
ATOM      4  C   UNL     1      -0.275  -1.237  -0.201  0.00  0.00    +0.103 C 
ATOM      5  C   UNL     1       1.104   1.302   0.075  0.00  0.00    +0.045 C 
ATOM      6  C   UNL     1       1.766  -0.048   0.079  0.00  0.00    +0.067 C 
ENDROOT
BRANCH   2   7
ATOM      7  N   UNL     1      -2.414  -0.067   0.013  0.00  0.00    +0.383 N 
ATOM      8  H   UNL     1      -2.885   0.762   0.376  0.00  0.00    -0.089 HD
ATOM      9  H   UNL     1      -2.820  -0.902   0.436  0.00  0.00    -0.089 HD
ATOM     10  H   UNL     1      -2.530  -0.108  -1.000  0.00  0.00    -0.089 HD
ENDBRANCH   2   7
TORSDOF 1
