REMARK  Name = 7068808
REMARK  5 active torsions:
REMARK  status: ('A' for Active; 'I' for Inactive)
REMARK    1  A    between atoms: C_1  and  N_2
REMARK    2  A    between atoms: C_1  and  C_8
REMARK    3  A    between atoms: C_1  and  C_9
REMARK    4  A    between atoms: C_9  and  S_10
REMARK    5  A    between atoms: S_10  and  S_11
REMARK                            x       y       z     vdW  Elec       q    Type
REMARK                         _______ _______ _______ _____ _____    ______ ____
ROOT
ATOM      1  C   UNK     1       1.814   0.638   0.558  0.00  0.00    +0.053 C 
ENDROOT
BRANCH   1   2
ATOM      2  N   UNK     1       1.991   1.897  -0.235  0.00  0.00    +0.389 N 
ATOM      3  H   UNK     1       1.469   2.653   0.206  0.00  0.00    -0.088 HD
ATOM      4  H   UNK     1       1.645   1.753  -1.184  0.00  0.00    -0.088 HD
ATOM      5  H   UNK     1       2.981   2.141  -0.268  0.00  0.00    -0.088 HD
ENDBRANCH   1   2
BRANCH   1   8
ATOM      6  O   UNK     1       3.548  -0.317  -0.748  0.00  0.00    -0.248 OA
ATOM      7  O   UNK     1       2.081  -1.712   0.304  0.00  0.00    -0.248 OA
ATOM      8  C   UNK     1       2.557  -0.585  -0.009  0.00  0.00    +0.346 C 
ENDBRANCH   1   8
BRANCH   1   9
ATOM      9  C   UNK     1       0.311   0.466   0.797  0.00  0.00    +0.071 C 
BRANCH   9  10
ATOM     10  S   UNK     1      -0.628   0.084  -0.718  0.00  0.00    +0.013 S 
BRANCH  10  11
ATOM     11  S   UNK     1      -2.586  -0.072   0.006  0.00  0.00    +0.066 S 
ATOM     12  O   UNK     1      -3.471  -0.416  -1.319  0.00  0.00    -0.059 OA
ATOM     13  O   UNK     1      -2.635  -1.224   0.886  0.00  0.00    -0.059 OA
ATOM     14  O   UNK     1      -2.982   1.241   0.478  0.00  0.00    -0.059 OA
ENDBRANCH  10  11
ENDBRANCH   9  10
ENDBRANCH   1   9
TORSDOF 5
