REMARK  Name = 5287673
REMARK  4 active torsions:
REMARK  status: ('A' for Active; 'I' for Inactive)
REMARK    1  A    between atoms: C_4  and  C_16
REMARK    2  A    between atoms: C_7  and  O_12
REMARK    3  A    between atoms: C_8  and  O_14
REMARK    4  A    between atoms: C_16  and  O_17
REMARK                            x       y       z     vdW  Elec       q    Type
REMARK                         _______ _______ _______ _____ _____    ______ ____
ROOT
ATOM      1  O   UNL     1       0.989   0.843   0.526  0.00  0.00    -0.451 OA
ATOM      2  N   UNL     1       1.022  -1.421   0.203  0.00  0.00    -0.220 NA
ATOM      3  N   UNL     1       2.904  -0.051  -0.337  0.00  0.00    -0.261 N 
ATOM      4  C   UNL     1      -1.336   0.855  -0.211  0.00  0.00    +0.101 C 
ATOM      5  C   UNL     1      -0.323   0.425   0.853  0.00  0.00    +0.198 C 
ATOM      6  C   UNL     1      -0.281  -1.096   0.800  0.00  0.00    +0.177 C 
ATOM      7  C   UNL     1      -2.332  -0.302  -0.206  0.00  0.00    +0.145 C 
ATOM      8  C   UNL     1      -1.422  -1.526  -0.124  0.00  0.00    +0.163 C 
ATOM      9  C   UNL     1       1.642  -0.285   0.121  0.00  0.00    +0.283 C 
ATOM     10  C   UNL     1       3.449   1.293  -0.360  0.00  0.00    +0.117 C 
ATOM     11  C   UNL     1       3.825  -1.145  -0.575  0.00  0.00    +0.117 C 
ENDROOT
BRANCH   7  12
ATOM     12  O   UNL     1      -3.096  -0.343  -1.400  0.00  0.00    -0.382 OA
ATOM     13  H   UNL     1      -3.670   0.437  -1.443  0.00  0.00    +0.210 HD
ENDBRANCH   7  12
BRANCH   8  14
ATOM     14  O   UNL     1      -2.115  -2.632   0.434  0.00  0.00    -0.380 OA
ATOM     15  H   UNL     1      -1.520  -3.397   0.478  0.00  0.00    +0.211 HD
ENDBRANCH   8  14
BRANCH   4  16
ATOM     16  C   UNL     1      -1.974   2.203   0.099  0.00  0.00    +0.143 C 
BRANCH  16  17
ATOM     17  O   UNL     1      -0.953   3.182   0.175  0.00  0.00    -0.382 OA
ATOM     18  H   UNL     1      -1.347   4.045   0.373  0.00  0.00    +0.210 HD
ENDBRANCH  16  17
ENDBRANCH   4  16
TORSDOF 4
