REMARK  Name = 447594
REMARK  5 active torsions:
REMARK  status: ('A' for Active; 'I' for Inactive)
REMARK    1  A    between atoms: C_2  and  N_18
REMARK    2  A    between atoms: C_3  and  N_6
REMARK    3  A    between atoms: C_4  and  O_22
REMARK    4  A    between atoms: C_5  and  C_24
REMARK    5  A    between atoms: C_24  and  O_25
REMARK                            x       y       z     vdW  Elec       q    Type
REMARK                         _______ _______ _______ _____ _____    ______ ____
ROOT
ATOM      1  O   UNL     1      -1.988  -0.530   0.943  0.00  0.00    -0.337 OA
ATOM      2  C   UNL     1      -1.734   0.992  -0.861  0.00  0.00    +0.012 C 
ATOM      3  C   UNL     1      -1.054   0.412   0.377  0.00  0.00    +0.177 C 
ATOM      4  C   UNL     1      -3.188   1.015  -0.416  0.00  0.00    +0.124 C 
ATOM      5  C   UNL     1      -3.302  -0.270   0.400  0.00  0.00    +0.171 C 
ENDROOT
BRANCH   3   6
ATOM      6  N   UNL     1       0.217  -0.258   0.121  0.00  0.00    -0.251 N 
ATOM      7  N   UNL     1       1.647  -1.883  -0.424  0.00  0.00    -0.242 NA
ATOM      8  N   UNL     1       1.787   1.540   0.575  0.00  0.00    -0.228 NA
ATOM      9  N   UNL     1       4.093   0.808   0.251  0.00  0.00    -0.229 NA
ATOM     10  C   UNL     1       1.468   0.286   0.221  0.00  0.00    +0.152 C 
ATOM     11  C   UNL     1       0.379  -1.562  -0.270  0.00  0.00    +0.223 C 
ATOM     12  C   UNL     1       2.338  -0.737  -0.120  0.00  0.00    +0.140 C 
ATOM     13  C   UNL     1       3.697  -0.440  -0.098  0.00  0.00    +0.143 C 
ATOM     14  C   UNL     1       3.128   1.707   0.561  0.00  0.00    +0.253 C 
ATOM     15  N   UNL     1       4.651  -1.417  -0.431  0.00  0.00    -0.342 N 
ATOM     16  H   UNL     1       5.610  -1.195  -0.412  0.00  0.00    +0.144 HD
ATOM     17  H   UNL     1       4.360  -2.322  -0.685  0.00  0.00    +0.144 HD
ENDBRANCH   3   6
BRANCH   2  18
ATOM     18  N   UNL     1      -1.212   2.292  -1.250  0.00  0.00    +0.386 N 
ATOM     19  H   UNL     1      -0.238   2.196  -1.534  0.00  0.00    -0.089 HD
ATOM     20  H   UNL     1      -1.275   2.933  -0.459  0.00  0.00    -0.089 HD
ATOM     21  H   UNL     1      -1.759   2.659  -2.029  0.00  0.00    -0.089 HD
ENDBRANCH   2  18
BRANCH   4  22
ATOM     22  O   UNL     1      -3.418   2.124   0.454  0.00  0.00    -0.384 OA
ATOM     23  H   UNL     1      -3.349   2.950  -0.050  0.00  0.00    +0.210 HD
ENDBRANCH   4  22
BRANCH   5  24
ATOM     24  C   UNL     1      -3.721  -1.471  -0.437  0.00  0.00    +0.169 C 
BRANCH  24  25
ATOM     25  O   UNL     1      -3.787  -2.609   0.405  0.00  0.00    -0.379 OA
ATOM     26  H   UNL     1      -4.053  -3.382  -0.117  0.00  0.00    +0.211 HD
ENDBRANCH  24  25
ENDBRANCH   5  24
TORSDOF 5
