REMARK  Name = 5288980
REMARK  2 active torsions:
REMARK  status: ('A' for Active; 'I' for Inactive)
REMARK    1  A    between atoms: CA_2  and  C_6
REMARK    2  A    between atoms: C_6  and  O_7
REMARK                            x       y       z     vdW  Elec       q    Type
REMARK                         _______ _______ _______ _____ _____    ______ ____
ROOT
ATOM      1  N   ALA A   1       1.238   1.260  -0.303  0.00  0.00    -0.297 NA
ATOM      2  CA  ALA A   1       0.702   0.125  -0.002  0.00  0.00    +0.125 C 
ATOM      3  CB  ALA A   1       1.519  -1.088   0.312  0.00  0.00    +0.058 C 
ATOM      4  H   ALA A   1       2.218   1.351  -0.324  0.00  0.00    +0.187 HD
ENDROOT
BRANCH   2   6
ATOM      5  OXT ALA A   1      -1.514   0.935   0.314  0.00  0.00    -0.244 OA
ATOM      6  C   ALA A   1      -0.792   0.002   0.026  0.00  0.00    +0.351 C 
BRANCH   6   7
ATOM      7  O   ALA A   1      -1.153  -1.233  -0.346  0.00  0.00    -0.476 OA
ATOM      8  H   ALA A   1      -0.498  -1.873  -0.546  0.00  0.00    +0.295 HD
ENDBRANCH   6   7
ENDBRANCH   2   6
TORSDOF 2
