REMARK  Name = 69602
REMARK  3 active torsions:
REMARK  status: ('A' for Active; 'I' for Inactive)
REMARK    1  A    between atoms: C_1  and  C_4
REMARK    2  A    between atoms: C_1  and  C_9
REMARK    3  A    between atoms: C_9  and  N_11
REMARK                            x       y       z     vdW  Elec       q    Type
REMARK                         _______ _______ _______ _____ _____    ______ ____
ROOT
ATOM      1  C   UNL     1       0.156   1.394  -0.584  0.00  0.00    +0.063 C 
ENDROOT
BRANCH   1   4
ATOM      2  N   UNL     1       1.683  -0.515  -1.062  0.00  0.00    -0.319 N 
ATOM      3  N   UNL     1       3.079  -0.525   0.666  0.00  0.00    -0.315 N 
ATOM      4  C   UNL     1       1.322   0.496  -0.250  0.00  0.00    +0.039 C 
ATOM      5  C   UNL     1       2.168   0.492   0.801  0.00  0.00    +0.069 C 
ATOM      6  C   UNL     1       2.759  -1.113  -0.466  0.00  0.00    +0.182 C 
ATOM      7  H   UNL     1       1.259  -0.772  -1.912  0.00  0.00    +0.148 HD
ATOM      8  H   UNL     1       3.810  -0.763   1.281  0.00  0.00    +0.148 HD
ENDBRANCH   1   4
BRANCH   1   9
ATOM      9  C   UNL     1      -0.906   1.432   0.514  0.00  0.00    +0.095 C 
BRANCH   9  11
ATOM     10  O   UNL     1      -3.223   0.291  -0.810  0.00  0.00    -0.275 OA
ATOM     11  N   UNL     1      -1.480   0.122   0.723  0.00  0.00    -0.304 N 
ATOM     12  C   UNL     1      -2.593  -0.335   0.039  0.00  0.00    +0.223 C 
ATOM     13  C   UNL     1      -2.965  -1.740   0.429  0.00  0.00    +0.095 C 
ATOM     14  H   UNL     1      -1.059  -0.474   1.383  0.00  0.00    +0.149 HD
ENDBRANCH   9  11
ENDBRANCH   1   9
TORSDOF 3
