REMARK  Name = 72231
REMARK  5 active torsions:
REMARK  status: ('A' for Active; 'I' for Inactive)
REMARK    1  A    between atoms: N_4  and  C1*_17
REMARK    2  A    between atoms: C2*_18  and  O2*_21
REMARK    3  A    between atoms: C3*_19  and  O3*_23
REMARK    4  A    between atoms: C4*_20  and  C5*_25
REMARK    5  A    between atoms: C5*_25  and  O5*_26
REMARK                            x       y       z     vdW  Elec       q    Type
REMARK                         _______ _______ _______ _____ _____    ______ ____
ROOT
ATOM      1  S   UNL     1       1.315  -2.531  -0.347  0.00  0.00    -0.012 S 
ATOM      2  O   UNL     1      -1.323  -2.340  -0.168  0.00  0.00    -0.259 OA
ATOM      3  O   UNL     1       4.333  -1.815  -0.374  0.00  0.00    -0.209 OA
ATOM      4  N   UNL     1      -0.039  -0.377   0.148  0.00  0.00    -0.252 N 
ATOM      5  N   UNL     1       1.848   1.232   0.360  0.00  0.00    -0.261 N 
ATOM      6  N   UNL     1       4.066   0.428   0.082  0.00  0.00    -0.302 NA
ATOM      7  N   UNL     1       3.619   2.692   0.549  0.00  0.00    -0.320 N 
ATOM      8  C   UNL     1       1.304  -0.007   0.148  0.00  0.00    +0.138 A 
ATOM      9  C   UNL     1      -0.262  -1.737  -0.106  0.00  0.00    +0.296 A 
ATOM     10  C   UNL     1       2.122  -1.038  -0.099  0.00  0.00    +0.158 A 
ATOM     11  C   UNL     1       3.596  -0.861  -0.145  0.00  0.00    +0.216 C 
ATOM     12  C   UNL     1       3.218   1.402   0.319  0.00  0.00    +0.249 C 
ATOM     13  H   UNL     1       1.263   2.001   0.543  0.00  0.00    +0.157 HD
ATOM     14  H   UNL     1       2.949   3.392   0.723  0.00  0.00    +0.146 HD
ATOM     15  H   UNL     1       4.577   2.919   0.540  0.00  0.00    +0.146 HD
ENDROOT
BRANCH   4  17
ATOM     16  O4* UNL     1      -2.180  -0.126   1.054  0.00  0.00    -0.331 OA
ATOM     17  C1* UNL     1      -1.104   0.556   0.389  0.00  0.00    +0.238 C 
ATOM     18  C2* UNL     1      -1.680   1.123  -0.897  0.00  0.00    +0.190 C 
ATOM     19  C3* UNL     1      -3.118   1.391  -0.506  0.00  0.00    +0.171 C 
ATOM     20  C4* UNL     1      -3.426   0.210   0.405  0.00  0.00    +0.176 C 
BRANCH  18  21
ATOM     21  O2* UNL     1      -1.012   2.294  -1.321  0.00  0.00    -0.378 OA
ATOM     22  H2* UNL     1      -0.098   2.076  -1.561  0.00  0.00    +0.211 HD
ENDBRANCH  18  21
BRANCH  19  23
ATOM     23  O3* UNL     1      -3.204   2.582   0.276  0.00  0.00    -0.379 OA
ATOM     24  H3* UNL     1      -3.012   3.351  -0.284  0.00  0.00    +0.211 HD
ENDBRANCH  19  23
BRANCH  20  25
ATOM     25  C5* UNL     1      -3.914  -1.020  -0.349  0.00  0.00    +0.169 C 
BRANCH  25  26
ATOM     26  O5* UNL     1      -4.159  -2.057   0.585  0.00  0.00    -0.379 OA
ATOM     27  H5* UNL     1      -4.471  -2.847   0.116  0.00  0.00    +0.211 HD
ENDBRANCH  25  26
ENDBRANCH  20  25
ENDBRANCH   4  17
TORSDOF 5
