REMARK  Name = 5289289
REMARK  4 active torsions:
REMARK  status: ('A' for Active; 'I' for Inactive)
REMARK    1  A    between atoms: C_1  and  N_10
REMARK    2  A    between atoms: C_8  and  O_16
REMARK    3  A    between atoms: N_10  and  C_13
REMARK    4  A    between atoms: C_13  and  C_14
REMARK                            x       y       z     vdW  Elec       q    Type
REMARK                         _______ _______ _______ _____ _____    ______ ____
ROOT
ATOM      1  C   UNL     1       0.750  -0.563   0.572  0.00  0.00    -0.037 C 
ATOM      2  C   UNL     1       0.767  -1.945  -0.113  0.00  0.00    -0.012 C 
ATOM      3  C   UNL     1      -0.670  -2.480  -0.036  0.00  0.00    +0.024 C 
ATOM      4  C   UNL     1      -0.645  -0.107   0.247  0.00  0.00    -0.043 C 
ATOM      5  C   UNL     1      -1.450  -1.204  -0.093  0.00  0.00    -0.028 C 
ATOM      6  C   UNL     1      -1.180   1.171   0.310  0.00  0.00    +0.030 C 
ATOM      7  C   UNL     1      -2.796  -1.045  -0.382  0.00  0.00    -0.002 C 
ATOM      8  C   UNL     1      -2.533   1.342   0.006  0.00  0.00    +0.133 C 
ATOM      9  C   UNL     1      -3.334   0.242  -0.338  0.00  0.00    +0.036 C 
ENDROOT
BRANCH   1  10
ATOM     10  N   UNL     1       1.807   0.291   0.054  0.00  0.00    +0.396 N 
ATOM     11  H   UNL     1       1.704   1.226   0.448  0.00  0.00    -0.082 HD
ATOM     12  H   UNL     1       1.732   0.321  -0.962  0.00  0.00    -0.082 HD
BRANCH  10  13
ATOM     13  C   UNL     1       3.121  -0.232   0.408  0.00  0.00    -0.001 C 
BRANCH  13  14
ATOM     14  C   UNL     1       4.186   0.623  -0.126  0.00  0.00    -0.102 C 
ATOM     15  C   UNL     1       5.062   1.319  -0.561  0.00  0.00    -0.016 C 
ENDBRANCH  13  14
ENDBRANCH  10  13
ENDBRANCH   1  10
BRANCH   8  16
ATOM     16  O   UNL     1      -3.083   2.587   0.053  0.00  0.00    -0.506 OA
ATOM     17  H   UNL     1      -2.554   3.325   0.282  0.00  0.00    +0.292 HD
ENDBRANCH   8  16
TORSDOF 4
