REMARK  Name = 5289570
REMARK  5 active torsions:
REMARK  status: ('A' for Active; 'I' for Inactive)
REMARK    1  A    between atoms: C_2  and  O_9
REMARK    2  A    between atoms: C_3  and  O_11
REMARK    3  A    between atoms: C_4  and  O_13
REMARK    4  A    between atoms: C_5  and  C_8
REMARK    5  A    between atoms: C_6  and  O_15
REMARK                            x       y       z     vdW  Elec       q    Type
REMARK                         _______ _______ _______ _____ _____    ______ ____
ROOT
ATOM      1  O   UNL     1       0.414  -1.015   0.261  0.00  0.00    -0.328 OA
ATOM      2  C   UNL     1      -0.613   1.558  -0.496  0.00  0.00    +0.171 C 
ATOM      3  C   UNL     1       0.816   1.363   0.013  0.00  0.00    +0.168 C 
ATOM      4  C   UNL     1      -1.531   0.445   0.017  0.00  0.00    +0.196 C 
ATOM      5  C   UNL     1       1.279  -0.050  -0.328  0.00  0.00    +0.159 C 
ATOM      6  C   UNL     1      -0.918  -0.936  -0.246  0.00  0.00    +0.266 C 
ENDROOT
BRANCH   5   8
ATOM      7  S   UNL     1       3.919  -0.783  -0.756  0.00  0.00    -0.079 S 
ATOM      8  C   UNL     1       2.642  -0.325   0.222  0.00  0.00    +0.101 C 
ENDBRANCH   5   8
BRANCH   2   9
ATOM      9  O   UNL     1      -1.087   2.831  -0.066  0.00  0.00    -0.379 OA
ATOM     10  H   UNL     1      -0.496   3.525  -0.397  0.00  0.00    +0.211 HD
ENDBRANCH   2   9
BRANCH   3  11
ATOM     11  O   UNL     1       0.838   1.527   1.435  0.00  0.00    -0.379 OA
ATOM     12  H   UNL     1       0.544   2.424   1.661  0.00  0.00    +0.211 HD
ENDBRANCH   3  11
BRANCH   4  13
ATOM     13  O   UNL     1      -2.784   0.512  -0.663  0.00  0.00    -0.378 OA
ATOM     14  H   UNL     1      -3.190   1.380  -0.509  0.00  0.00    +0.211 HD
ENDBRANCH   4  13
BRANCH   6  15
ATOM     15  O   UNL     1      -1.739  -1.909   0.401  0.00  0.00    -0.326 OA
ATOM     16  C   UNL     1      -1.236  -3.221   0.203  0.00  0.00    +0.177 C 
ENDBRANCH   6  15
TORSDOF 5
