REMARK  Name = 4629337
REMARK  11 active torsions:
REMARK  status: ('A' for Active; 'I' for Inactive)
REMARK    1  A    between atoms: C_1  and  C_2
REMARK    2  A    between atoms: C_1  and  C_8
REMARK    3  A    between atoms: C_2  and  C_3
REMARK    4  A    between atoms: C_3  and  C_4
REMARK    5  A    between atoms: C_4  and  C_5
REMARK    6  A    between atoms: C_5  and  C_6
REMARK    7  A    between atoms: C_8  and  C_9
REMARK    8  A    between atoms: C_9  and  C_10
REMARK    9  A    between atoms: C_10  and  O_11
REMARK   10  A    between atoms: O_11  and  C_12
REMARK   11  A    between atoms: C_12  and  O_13
REMARK                            x       y       z     vdW  Elec       q    Type
REMARK                         _______ _______ _______ _____ _____    ______ ____
ROOT
ATOM      1  C   UNL     1      -0.107   0.498   0.162  0.00  0.00    +0.000 C 
ENDROOT
BRANCH   1   2
ATOM      2  C   UNL     1       1.127  -0.364  -0.112  0.00  0.00    +0.000 C 
BRANCH   2   3
ATOM      3  C   UNL     1       2.446   0.336   0.228  0.00  0.00    +0.000 C 
BRANCH   3   4
ATOM      4  C   UNL     1       3.683  -0.497  -0.115  0.00  0.00    +0.000 C 
BRANCH   4   5
ATOM      5  C   UNL     1       4.971   0.278   0.177  0.00  0.00    +0.000 C 
BRANCH   5   6
ATOM      6  C   UNL     1       6.208  -0.537  -0.200  0.00  0.00    +0.000 C 
ATOM      7  C   UNL     1       7.487   0.242   0.058  0.00  0.00    +0.000 C 
ENDBRANCH   5   6
ENDBRANCH   4   5
ENDBRANCH   3   4
ENDBRANCH   2   3
ENDBRANCH   1   2
BRANCH   1   8
ATOM      8  C   UNL     1      -1.396  -0.260  -0.167  0.00  0.00    +0.003 C 
BRANCH   8   9
ATOM      9  C   UNL     1      -2.631   0.611   0.079  0.00  0.00    +0.032 C 
BRANCH   9  10
ATOM     10  C   UNL     1      -3.925  -0.112  -0.273  0.00  0.00    +0.145 C 
BRANCH  10  11
ATOM     11  O   UNL     1      -5.038   0.731  -0.010  0.00  0.00    -0.327 OA
BRANCH  11  12
ATOM     12  C   UNL     1      -6.278   0.102  -0.322  0.00  0.00    +0.290 C 
BRANCH  12  13
ATOM     13  O   UNL     1      -6.548  -1.029   0.494  0.00  0.00    -0.356 OA
ATOM     14  H   UNL     1      -7.400  -1.415   0.239  0.00  0.00    +0.213 HD
ENDBRANCH  12  13
ENDBRANCH  11  12
ENDBRANCH  10  11
ENDBRANCH   9  10
ENDBRANCH   8   9
ENDBRANCH   1   8
TORSDOF 11
