REMARK  Name = 461278
REMARK  6 active torsions:
REMARK  status: ('A' for Active; 'I' for Inactive)
REMARK    1  A    between atoms: C_2  and  N_8
REMARK    2  A    between atoms: C_3  and  C_16
REMARK    3  A    between atoms: C_16  and  O_17
REMARK    4  A    between atoms: O_17  and  P_18
REMARK    5  A    between atoms: P_18  and  O_20
REMARK    6  A    between atoms: P_18  and  O_22
REMARK                            x       y       z     vdW  Elec       q    Type
REMARK                         _______ _______ _______ _____ _____    ______ ____
ROOT
ATOM      1  O   UNL     1      -0.091   1.786   0.950  0.00  0.00    -0.329 OA
ATOM      2  C   UNL     1       0.946   1.926  -0.037  0.00  0.00    +0.223 C 
ATOM      3  C   UNL     1      -1.368   1.797   0.275  0.00  0.00    +0.169 C 
ATOM      4  C   UNL     1       0.260   2.020  -1.347  0.00  0.00    +0.022 C 
ATOM      5  C   UNL     1      -1.057   1.948  -1.172  0.00  0.00    +0.005 C 
ENDROOT
BRANCH   2   8
ATOM      6  O   UNL     1       3.739   1.951   0.529  0.00  0.00    -0.252 OA
ATOM      7  O   UNL     1       4.051  -2.614   0.067  0.00  0.00    -0.270 OA
ATOM      8  N   UNL     1       1.809   0.751   0.002  0.00  0.00    -0.215 N 
ATOM      9  N   UNL     1       3.880  -0.326   0.295  0.00  0.00    -0.236 N 
ATOM     10  C   UNL     1       1.235  -0.477  -0.256  0.00  0.00    +0.072 C 
ATOM     11  C   UNL     1       3.174   0.881   0.291  0.00  0.00    +0.316 C 
ATOM     12  C   UNL     1       1.914  -1.631  -0.252  0.00  0.00    +0.047 C 
ATOM     13  C   UNL     1       3.370  -1.592   0.047  0.00  0.00    +0.250 C 
ATOM     14  C   UNL     1       1.289  -2.959  -0.531  0.00  0.00    +0.037 C 
ATOM     15  H   UNL     1       4.843  -0.272   0.495  0.00  0.00    +0.159 HD
ENDBRANCH   2   8
BRANCH   3  16
ATOM     16  C   UNL     1      -2.103   0.506   0.592  0.00  0.00    +0.188 C 
BRANCH  16  17
ATOM     17  O   UNL     1      -3.331   0.493  -0.116  0.00  0.00    -0.270 OA
BRANCH  17  18
ATOM     18  P   UNL     1      -4.307  -0.787   0.055  0.00  0.00    +0.473 P 
ATOM     19  O   UNL     1      -5.585  -0.720  -0.729  0.00  0.00    -0.227 OA
BRANCH  18  20
ATOM     20  O   UNL     1      -4.484  -0.924   1.657  0.00  0.00    -0.303 OA
ATOM     21  H   UNL     1      -3.610  -0.961   2.077  0.00  0.00    +0.222 HD
ENDBRANCH  18  20
BRANCH  18  22
ATOM     22  O   UNL     1      -3.341  -2.029  -0.320  0.00  0.00    -0.303 OA
ATOM     23  H   UNL     1      -2.543  -1.996   0.231  0.00  0.00    +0.222 HD
ENDBRANCH  18  22
ENDBRANCH  17  18
ENDBRANCH  16  17
ENDBRANCH   3  16
TORSDOF 6
