REMARK  Name = 38409
REMARK  6 active torsions:
REMARK  status: ('A' for Active; 'I' for Inactive)
REMARK    1  A    between atoms: C_3  and  C_10
REMARK    2  A    between atoms: C_4  and  O_16
REMARK    3  A    between atoms: C_10  and  C_12
REMARK    4  A    between atoms: O_16  and  C_17
REMARK    5  A    between atoms: C_17  and  C_19
REMARK    6  A    between atoms: C_19  and  O_20
REMARK                            x       y       z     vdW  Elec       q    Type
REMARK                         _______ _______ _______ _____ _____    ______ ____
ROOT
ATOM      1 CL   UNL     1       1.172  -2.123  -1.624  0.00  0.00    -0.081 Cl
ATOM      2 CL   UNL     1      -2.014  -1.910  -1.688  0.00  0.00    -0.078 Cl
ATOM      3  C   UNL     1       1.024  -0.619   0.619  0.00  0.00    +0.051 C 
ATOM      4  C   UNL     1      -1.760  -0.438   0.556  0.00  0.00    +0.151 C 
ATOM      5  C   UNL     1       0.307  -1.242  -0.403  0.00  0.00    +0.074 C 
ATOM      6  C   UNL     1       0.349   0.093   1.610  0.00  0.00    +0.007 C 
ATOM      7  C   UNL     1      -1.085  -1.151  -0.434  0.00  0.00    +0.102 C 
ATOM      8  C   UNL     1      -1.043   0.184   1.579  0.00  0.00    +0.038 C 
ENDROOT
BRANCH   3  10
ATOM      9  O   UNL     1       2.973  -1.621   1.344  0.00  0.00    -0.286 OA
ATOM     10  C   UNL     1       2.478  -0.681   0.703  0.00  0.00    +0.202 C 
BRANCH  10  12
ATOM     11  S   UNL     1       4.996   0.195   0.210  0.00  0.00    -0.083 S 
ATOM     12  C   UNL     1       3.320   0.349   0.061  0.00  0.00    +0.068 C 
ATOM     13  C   UNL     1       2.904   1.419  -0.644  0.00  0.00    +0.010 C 
ATOM     14  C   UNL     1       4.020   2.177  -1.102  0.00  0.00    +0.008 C 
ATOM     15  C   UNL     1       5.219   1.623  -0.708  0.00  0.00    +0.036 C 
ENDBRANCH  10  12
ENDBRANCH   3  10
BRANCH   4  16
ATOM     16  O   UNL     1      -3.119  -0.328   0.557  0.00  0.00    -0.463 OA
BRANCH  16  17
ATOM     17  C   UNL     1      -3.662   0.988   0.479  0.00  0.00    +0.314 C 
BRANCH  17  19
ATOM     18  O   UNL     1      -5.542  -0.051  -0.655  0.00  0.00    -0.246 OA
ATOM     19  C   UNL     1      -5.000   0.947  -0.205  0.00  0.00    +0.359 C 
BRANCH  19  20
ATOM     20  O   UNL     1      -5.538   2.191  -0.257  0.00  0.00    -0.478 OA
ATOM     21  H   UNL     1      -5.072   2.918   0.107  0.00  0.00    +0.295 HD
ENDBRANCH  19  20
ENDBRANCH  17  19
ENDBRANCH  16  17
ENDBRANCH   4  16
TORSDOF 6
