REMARK  Name = 3764
REMARK  3 active torsions:
REMARK  status: ('A' for Active; 'I' for Inactive)
REMARK    1  A    between atoms: C_4  and  C_12
REMARK    2  A    between atoms: C_10  and  O_20
REMARK    3  A    between atoms: C_17  and  O_18
REMARK                            x       y       z     vdW  Elec       q    Type
REMARK                         _______ _______ _______ _____ _____    ______ ____
ROOT
ATOM      1  O   UNL     1       1.014   1.908  -0.019  0.00  0.00    -0.450 OA
ATOM      2  O   UNL     1      -0.326  -1.946  -0.076  0.00  0.00    -0.286 OA
ATOM      3  C   UNL     1       1.507  -0.469  -0.017  0.00  0.00    +0.074 C 
ATOM      4  C   UNL     1      -0.868   0.372  -0.028  0.00  0.00    +0.077 C 
ATOM      5  C   UNL     1       1.907   0.867  -0.010  0.00  0.00    +0.151 C 
ATOM      6  C   UNL     1       0.067  -0.787  -0.039  0.00  0.00    +0.202 C 
ATOM      7  C   UNL     1       2.462  -1.489  -0.009  0.00  0.00    +0.009 C 
ATOM      8  C   UNL     1      -0.325   1.599  -0.018  0.00  0.00    +0.183 C 
ATOM      9  C   UNL     1       3.264   1.191   0.006  0.00  0.00    +0.074 C 
ATOM     10  C   UNL     1       4.219   0.174   0.015  0.00  0.00    +0.142 C 
ATOM     11  C   UNL     1       3.818  -1.163   0.008  0.00  0.00    +0.037 C 
ENDROOT
BRANCH   4  12
ATOM     12  C   UNL     1      -2.329   0.195  -0.008  0.00  0.00    +0.006 C 
ATOM     13  C   UNL     1      -3.043   0.129  -1.206  0.00  0.00    +0.003 C 
ATOM     14  C   UNL     1      -3.006   0.093   1.209  0.00  0.00    +0.003 C 
ATOM     15  C   UNL     1      -4.428  -0.039  -1.188  0.00  0.00    +0.037 C 
ATOM     16  C   UNL     1      -4.391  -0.075   1.228  0.00  0.00    +0.037 C 
ATOM     17  C   UNL     1      -5.101  -0.141   0.029  0.00  0.00    +0.134 C 
BRANCH  17  18
ATOM     18  O   UNL     1      -6.452  -0.304   0.048  0.00  0.00    -0.506 OA
ATOM     19  H   UNL     1      -6.930  -0.348  -0.757  0.00  0.00    +0.292 HD
ENDBRANCH  17  18
ENDBRANCH   4  12
BRANCH  10  20
ATOM     20  O   UNL     1       5.544   0.486   0.032  0.00  0.00    -0.471 OA
ATOM     21  C   UNL     1       6.467  -0.602   0.042  0.00  0.00    +0.252 C 
ENDBRANCH  10  20
TORSDOF 3
