REMARK  Name = 12647
REMARK  6 active torsions:
REMARK  status: ('A' for Active; 'I' for Inactive)
REMARK    1  A    between atoms: CA_1  and  N_2
REMARK    2  A    between atoms: CA_1  and  C_7
REMARK    3  A    between atoms: CA_1  and  C_10
REMARK    4  A    between atoms: C_7  and  O_8
REMARK    5  A    between atoms: C_10  and  C_11
REMARK    6  A    between atoms: C_11  and  O_12
REMARK                            x       y       z     vdW  Elec       q    Type
REMARK                         _______ _______ _______ _____ _____    ______ ____
ROOT
ATOM      1  CA  UNL     1      -0.311  -0.360   0.487  0.00  0.00    +0.038 C 
ENDROOT
BRANCH   1   2
ATOM      2  N   UNL     1      -0.346  -1.783   0.150  0.00  0.00    +0.389 N 
ATOM      3  H1  UNL     1       0.511  -2.231   0.475  0.00  0.00    -0.088 HD
ATOM      4  H2  UNL     1      -0.425  -1.892  -0.861  0.00  0.00    -0.088 HD
ATOM      5  H3  UNL     1      -1.150  -2.220   0.602  0.00  0.00    -0.088 HD
ENDBRANCH   1   2
BRANCH   1   7
ATOM      6  OXT UNL     1      -2.469  -0.331  -0.659  0.00  0.00    -0.253 OA
ATOM      7  C   UNL     1      -1.606   0.254  -0.018  0.00  0.00    +0.293 C 
BRANCH   7   8
ATOM      8  O   UNL     1      -1.718   1.562   0.338  0.00  0.00    -0.482 OA
ATOM      9  H   UNL     1      -1.035   1.975   0.829  0.00  0.00    +0.295 HD
ENDBRANCH   7   8
ENDBRANCH   1   7
BRANCH   1  10
ATOM     10  C   UNL     1       0.891   0.358  -0.145  0.00  0.00    +0.021 C 
BRANCH  10  11
ATOM     11  C   UNL     1       2.255  -0.221   0.224  0.00  0.00    +0.136 C 
BRANCH  11  12
ATOM     12  O   UNL     1       3.305   0.522  -0.377  0.00  0.00    -0.382 OA
ATOM     13  H   UNL     1       4.159   0.134  -0.128  0.00  0.00    +0.210 HD
ENDBRANCH  11  12
ENDBRANCH  10  11
ENDBRANCH   1  10
TORSDOF 6
