REMARK  Name = 10972974
REMARK  12 active torsions:
REMARK  status: ('A' for Active; 'I' for Inactive)
REMARK    1  A    between atoms: C_3  and  C_21
REMARK    2  A    between atoms: C_4  and  C_9
REMARK    3  A    between atoms: C_8  and  C_11
REMARK    4  A    between atoms: C_11  and  C_13
REMARK    5  A    between atoms: C_14  and  C_16
REMARK    6  A    between atoms: C_15  and  C_17
REMARK    7  A    between atoms: C_20  and  C_22
REMARK    8  A    between atoms: C_22  and  O_23
REMARK    9  A    between atoms: C_22  and  C_25
REMARK   10  A    between atoms: C_25  and  C_27
REMARK   11  A    between atoms: C_27  and  O_34
REMARK   12  A    between atoms: C_28  and  C_31
REMARK                            x       y       z     vdW  Elec       q    Type
REMARK                         _______ _______ _______ _____ _____    ______ ____
ROOT
ATOM      1  S   UNL     1      -0.453   0.983   2.389  0.00  0.00    -0.073 S 
ATOM      2  N   UNL     1       1.007   0.445   0.325  0.00  0.00    -0.397 NA
ATOM      3  C   UNL     1       1.718   1.254   1.166  0.00  0.00    +0.121 C 
ATOM      4  C   UNL     1      -0.169   0.232   0.872  0.00  0.00    +0.183 C 
ATOM      5  C   UNL     1       1.123   1.656   2.324  0.00  0.00    +0.123 C 
ENDROOT
BRANCH   4   9
ATOM      6  S   UNL     1      -2.377  -2.109  -1.443  0.00  0.00    -0.079 S 
ATOM      7  N   UNL     1      -2.424  -0.828   0.801  0.00  0.00    -0.400 NA
ATOM      8  C   UNL     1      -3.132  -1.605   0.013  0.00  0.00    +0.138 C 
ATOM      9  C   UNL     1      -1.194  -0.610   0.218  0.00  0.00    +0.156 C 
ATOM     10  C   UNL     1      -0.980  -1.219  -0.998  0.00  0.00    +0.126 C 
BRANCH   8  11
ATOM     11  C   UNL     1      -4.509  -2.060   0.304  0.00  0.00    +0.080 C 
ATOM     12  C   UNL     1      -4.564  -2.985   1.552  0.00  0.00    +0.013 C 
BRANCH  11  13
ATOM     13  C   UNL     1      -5.570  -0.948   0.382  0.00  0.00    -0.019 C 
ATOM     14  C   UNL     1      -6.672  -0.807  -0.371  0.00  0.00    -0.004 C 
BRANCH  14  16
ATOM     15  C   UNL     1      -8.688   0.447  -0.983  0.00  0.00    -0.026 C 
ATOM     16  C   UNL     1      -7.586   0.306  -0.229  0.00  0.00    -0.005 C 
BRANCH  15  17
ATOM     17  C   UNL     1      -9.702   1.568  -0.919  0.00  0.00    +0.022 C 
ATOM     18  C   UNL     1     -11.096   0.986  -0.674  0.00  0.00    +0.005 C 
ATOM     19  C   UNL     1      -9.410   2.667   0.107  0.00  0.00    +0.005 C 
ENDBRANCH  15  17
ENDBRANCH  14  16
ENDBRANCH  11  13
ENDBRANCH   8  11
ENDBRANCH   4   9
BRANCH   3  21
ATOM     20  C   UNL     1       3.719   1.280  -0.334  0.00  0.00    +0.006 C 
ATOM     21  C   UNL     1       3.055   1.632   0.780  0.00  0.00    +0.026 C 
BRANCH  20  22
ATOM     22  C   UNL     1       5.129   1.724  -0.634  0.00  0.00    +0.144 C 
BRANCH  22  23
ATOM     23  O   UNL     1       5.061   2.535  -1.808  0.00  0.00    -0.349 OA
ATOM     24  C   UNL     1       4.228   3.665  -1.604  0.00  0.00    +0.174 C 
ENDBRANCH  22  23
BRANCH  22  25
ATOM     25  C   UNL     1       6.080   0.524  -0.877  0.00  0.00    +0.088 C 
ATOM     26  C   UNL     1       7.487   0.986  -1.281  0.00  0.00    +0.011 C 
BRANCH  25  27
ATOM     27  C   UNL     1       6.169  -0.389   0.335  0.00  0.00    +0.123 C 
ATOM     28  C   UNL     1       5.806  -1.684   0.273  0.00  0.00    +0.090 C 
BRANCH  28  31
ATOM     29  O   UNL     1       6.012  -2.901  -1.779  0.00  0.00    -0.270 OA
ATOM     30  N   UNL     1       3.922  -2.270  -1.061  0.00  0.00    -0.325 N 
ATOM     31  C   UNL     1       5.292  -2.348  -0.956  0.00  0.00    +0.246 C 
ATOM     32  H   UNL     1       3.463  -2.673  -1.833  0.00  0.00    +0.145 HD
ATOM     33  H   UNL     1       3.400  -1.811  -0.363  0.00  0.00    +0.145 HD
ENDBRANCH  28  31
BRANCH  27  34
ATOM     34  O   UNL     1       6.637   0.233   1.475  0.00  0.00    -0.475 OA
ATOM     35  C   UNL     1       6.080  -0.357   2.633  0.00  0.00    +0.252 C 
ENDBRANCH  27  34
ENDBRANCH  25  27
ENDBRANCH  22  25
ENDBRANCH  20  22
ENDBRANCH   3  21
TORSDOF 12
