REMARK  Name = 6951149
REMARK  5 active torsions:
REMARK  status: ('A' for Active; 'I' for Inactive)
REMARK    1  A    between atoms: CG_2  and  CB_11
REMARK    2  A    between atoms: CB_11  and  CA_12
REMARK    3  A    between atoms: CA_12  and  N_13
REMARK    4  A    between atoms: CA_12  and  C_17
REMARK    5  A    between atoms: C_17  and  O_18
REMARK                            x       y       z     vdW  Elec       q    Type
REMARK                         _______ _______ _______ _____ _____    ______ ____
ROOT
ATOM      1  NE1 TRP A   1       1.006  -2.014   0.117  0.00  0.00    -0.312 N 
ATOM      2  CG  TRP A   1      -0.337  -0.302   0.559  0.00  0.00    -0.008 C 
ATOM      3  CD2 TRP A   1       0.953   0.212   0.249  0.00  0.00    +0.011 C 
ATOM      4  CE2 TRP A   1       1.777  -0.882  -0.024  0.00  0.00    +0.048 C 
ATOM      5  CD1 TRP A   1      -0.272  -1.674   0.469  0.00  0.00    +0.058 C 
ATOM      6  CE3 TRP A   1       1.501   1.509   0.175  0.00  0.00    +0.001 C 
ATOM      7  CZ2 TRP A   1       3.126  -0.744  -0.369  0.00  0.00    +0.015 C 
ATOM      8  CZ3 TRP A   1       2.849   1.662  -0.169  0.00  0.00    +0.000 C 
ATOM      9  CH2 TRP A   1       3.647   0.551  -0.437  0.00  0.00    +0.001 C 
ATOM     10  HE1 TRP A   1       1.328  -2.935  -0.016  0.00  0.00    +0.152 HD
ENDROOT
BRANCH   2  11
ATOM     11  CB  TRP A   1      -1.535   0.484   0.914  0.00  0.00    +0.008 C 
BRANCH  11  12
ATOM     12  CA  TRP A   1      -2.413   0.898  -0.297  0.00  0.00    -0.031 C 
BRANCH  12  13
ATOM     13  N   TRP A   1      -3.536   1.718   0.173  0.00  0.00    +0.384 N 
ATOM     14  H1  TRP A   1      -3.178   2.515   0.700  0.00  0.00    -0.089 HD
ATOM     15  H2  TRP A   1      -4.139   1.157   0.774  0.00  0.00    -0.089 HD
ATOM     16  H3  TRP A   1      -4.071   2.054  -0.628  0.00  0.00    -0.089 HD
ENDBRANCH  12  13
BRANCH  12  17
ATOM     17  C   TRP A   1      -2.974  -0.293  -1.086  0.00  0.00    +0.116 C 
BRANCH  17  18
ATOM     18  O   TRP A   1      -3.792  -1.126  -0.275  0.00  0.00    -0.384 OA
ATOM     19  H   TRP A   1      -4.127  -1.865  -0.805  0.00  0.00    +0.210 HD
ENDBRANCH  17  18
ENDBRANCH  12  17
ENDBRANCH  11  12
ENDBRANCH   2  11
TORSDOF 5
