REMARK  Name = 499953
REMARK  7 active torsions:
REMARK  status: ('A' for Active; 'I' for Inactive)
REMARK    1  A    between atoms: C_3  and  O_27
REMARK    2  A    between atoms: C_6  and  O_21
REMARK    3  A    between atoms: C_7  and  O_23
REMARK    4  A    between atoms: C_13  and  O_25
REMARK    5  A    between atoms: C_16  and  C_31
REMARK    6  A    between atoms: O_27  and  C_29
REMARK    7  A    between atoms: C_31  and  O_32
REMARK                            x       y       z     vdW  Elec       q    Type
REMARK                         _______ _______ _______ _____ _____    ______ ____
ROOT
ATOM      1  O   UNL     1      -4.838  -0.488  -0.812  0.00  0.00    -0.289 OA
ATOM      2  C   UNL     1       1.841   1.006  -0.224  0.00  0.00    +0.049 C 
ATOM      3  C   UNL     1       2.698  -0.207  -0.468  0.00  0.00    +0.161 C 
ATOM      4  C   UNL     1       2.505   0.801  -1.565  0.00  0.00    +0.040 C 
ATOM      5  C   UNL     1       0.330   0.882  -0.136  0.00  0.00    +0.050 C 
ATOM      6  C   UNL     1       2.083  -1.571  -0.501  0.00  0.00    +0.149 C 
ATOM      7  C   UNL     1      -0.085  -0.530   0.429  0.00  0.00    +0.101 C 
ATOM      8  C   UNL     1       0.528  -1.597  -0.551  0.00  0.00    +0.056 C 
ATOM      9  C   UNL     1       1.731   0.422  -2.784  0.00  0.00    +0.004 C 
ATOM     10  C   UNL     1       3.639   1.720  -1.887  0.00  0.00    +0.004 C 
ATOM     11  C   UNL     1      -1.620  -0.551   0.719  0.00  0.00    +0.079 C 
ATOM     12  C   UNL     1      -0.331   2.080   0.518  0.00  0.00    -0.030 C 
ATOM     13  C   UNL     1      -2.514   0.086  -0.363  0.00  0.00    +0.152 C 
ATOM     14  C   UNL     1       0.087  -3.049  -0.316  0.00  0.00    +0.005 C 
ATOM     15  C   UNL     1      -2.768   1.582  -0.128  0.00  0.00    +0.059 C 
ATOM     16  C   UNL     1      -1.638   2.412   0.468  0.00  0.00    -0.017 C 
ATOM     17  C   UNL     1      -2.320  -1.839   1.049  0.00  0.00    -0.023 C 
ATOM     18  C   UNL     1      -3.776  -0.746  -0.264  0.00  0.00    +0.193 C 
ATOM     19  C   UNL     1      -3.549  -1.964   0.537  0.00  0.00    +0.011 C 
ATOM     20  C   UNL     1      -4.546  -3.042   0.707  0.00  0.00    +0.034 C 
ENDROOT
BRANCH   6  21
ATOM     21  O   UNL     1       2.629  -2.297  -1.603  0.00  0.00    -0.381 OA
ATOM     22  H   UNL     1       3.598  -2.271  -1.558  0.00  0.00    +0.210 HD
ENDBRANCH   6  21
BRANCH   7  23
ATOM     23  O   UNL     1       0.552  -0.722   1.708  0.00  0.00    -0.386 OA
ATOM     24  H   UNL     1       1.515  -0.718   1.594  0.00  0.00    +0.210 HD
ENDBRANCH   7  23
BRANCH  13  25
ATOM     25  O   UNL     1      -2.082  -0.133  -1.698  0.00  0.00    -0.379 OA
ATOM     26  H   UNL     1      -1.266   0.367  -1.859  0.00  0.00    +0.211 HD
ENDBRANCH  13  25
BRANCH   3  27
ATOM     27  O   UNL     1       3.987  -0.198   0.177  0.00  0.00    -0.453 OA
BRANCH  27  29
ATOM     28  O   UNL     1       2.953  -0.049   2.237  0.00  0.00    -0.250 OA
ATOM     29  C   UNL     1       3.951  -0.115   1.533  0.00  0.00    +0.317 C 
ATOM     30  C   UNL     1       5.353  -0.116   2.062  0.00  0.00    +0.121 C 
ENDBRANCH  27  29
ENDBRANCH   3  27
BRANCH  16  31
ATOM     31  C   UNL     1      -2.099   3.712   1.078  0.00  0.00    +0.159 C 
BRANCH  31  32
ATOM     32  O   UNL     1      -2.701   4.511   0.080  0.00  0.00    -0.378 OA
ATOM     33  H   UNL     1      -2.998   5.347   0.471  0.00  0.00    +0.211 HD
ENDBRANCH  31  32
ENDBRANCH  16  31
TORSDOF 7
