REMARK  Name = 1759
REMARK  10 active torsions:
REMARK  status: ('A' for Active; 'I' for Inactive)
REMARK    1  A    between atoms: N_2  and  C_17
REMARK    2  A    between atoms: C_3  and  C_5
REMARK    3  A    between atoms: C_6  and  S_11
REMARK    4  A    between atoms: S_11  and  N_14
REMARK    5  A    between atoms: C_17  and  C_18
REMARK    6  A    between atoms: C_18  and  C_19
REMARK    7  A    between atoms: C_19  and  C_20
REMARK    8  A    between atoms: C_20  and  N_21
REMARK    9  A    between atoms: N_21  and  C_24
REMARK   10  A    between atoms: C_24  and  S_25
REMARK                            x       y       z     vdW  Elec       q    Type
REMARK                         _______ _______ _______ _____ _____    ______ ____
ROOT
ATOM      1  O   UNL     1      -0.159  -2.902   1.079  0.00  0.00    -0.270 OA
ATOM      2  N   UNL     1      -1.040  -1.826  -0.777  0.00  0.00    -0.301 N 
ATOM      3  C   UNL     1      -0.068  -2.061   0.188  0.00  0.00    +0.246 C 
ATOM      4  H   UNL     1      -0.876  -1.129  -1.453  0.00  0.00    +0.150 HD
ENDROOT
BRANCH   3   5
ATOM      5  C   UNL     1       1.142  -1.202   0.122  0.00  0.00    +0.053 C 
ATOM      6  C   UNL     1       3.388   0.395  -0.001  0.00  0.00    +0.122 C 
ATOM      7  C   UNL     1       1.517  -0.671  -1.095  0.00  0.00    +0.006 C 
ATOM      8  C   UNL     1       1.852  -0.961   1.280  0.00  0.00    +0.006 C 
ATOM      9  C   UNL     1       2.653   0.136  -1.158  0.00  0.00    +0.020 C 
ATOM     10  C   UNL     1       2.988  -0.153   1.217  0.00  0.00    +0.020 C 
BRANCH   6  11
ATOM     11  S   UNL     1       4.810   1.405  -0.079  0.00  0.00    +0.057 S 
ATOM     12  O   UNL     1       5.679   1.062   1.038  0.00  0.00    -0.153 OA
ATOM     13  O   UNL     1       5.331   1.367  -1.439  0.00  0.00    -0.153 OA
BRANCH  11  14
ATOM     14  N   UNL     1       4.130   2.946   0.204  0.00  0.00    -0.203 NA
ATOM     15  H   UNL     1       4.867   3.652   0.186  0.00  0.00    +0.144 HD
ATOM     16  H   UNL     1       3.675   2.954   1.117  0.00  0.00    +0.144 HD
ENDBRANCH  11  14
ENDBRANCH   6  11
ENDBRANCH   3   5
BRANCH   2  17
ATOM     17  C   UNL     1      -2.276  -2.558  -0.830  0.00  0.00    +0.090 C 
BRANCH  17  18
ATOM     18  C   UNL     1      -3.379  -1.897  -0.009  0.00  0.00    +0.019 C 
BRANCH  18  19
ATOM     19  C   UNL     1      -3.716  -0.487  -0.504  0.00  0.00    -0.022 C 
BRANCH  19  20
ATOM     20  C   UNL     1      -4.846   0.130   0.320  0.00  0.00    -0.080 C 
BRANCH  20  21
ATOM     21  N   UNL     1      -5.159   1.467  -0.170  0.00  0.00    +0.390 N 
ATOM     22  H   UNL     1      -5.452   1.405  -1.145  0.00  0.00    -0.083 HD
ATOM     23  H   UNL     1      -4.325   2.048  -0.085  0.00  0.00    -0.083 HD
BRANCH  21  24
ATOM     24  C   UNL     1      -6.229   2.073   0.612  0.00  0.00    -0.026 C 
BRANCH  24  25
ATOM     25  S   UNL     1      -6.619   3.738   0.004  0.00  0.00    -0.192 S 
ATOM     26  H   UNL     1      -7.620   4.272   0.754  0.00  0.00    +0.100 HD
ENDBRANCH  24  25
ENDBRANCH  21  24
ENDBRANCH  20  21
ENDBRANCH  19  20
ENDBRANCH  18  19
ENDBRANCH  17  18
ENDBRANCH   2  17
TORSDOF 10
