REMARK  Name = 5287684
REMARK  10 active torsions:
REMARK  status: ('A' for Active; 'I' for Inactive)
REMARK    1  A    between atoms: N_2  and  C_5
REMARK    2  A    between atoms: C_3  and  C_17
REMARK    3  A    between atoms: C_5  and  C_7
REMARK    4  A    between atoms: C_17  and  O_18
REMARK    5  A    between atoms: C_17  and  C_20
REMARK    6  A    between atoms: C_20  and  N_21
REMARK    7  A    between atoms: C_20  and  C_25
REMARK    8  A    between atoms: C_25  and  C_26
REMARK    9  A    between atoms: C_26  and  S_27
REMARK   10  A    between atoms: S_27  and  C_28
REMARK                            x       y       z     vdW  Elec       q    Type
REMARK                         _______ _______ _______ _____ _____    ______ ____
ROOT
ATOM      1  O   UNL     1       1.841  -2.728  -1.520  0.00  0.00    -0.273 OA
ATOM      2  N   UNL     1       0.566  -1.990   0.275  0.00  0.00    -0.300 N 
ATOM      3  C   UNL     1       1.750  -2.203  -0.412  0.00  0.00    +0.247 C 
ATOM      4  H   UNL     1       0.608  -1.559   1.159  0.00  0.00    +0.150 HD
ENDROOT
BRANCH   2   5
ATOM      5  C   UNL     1      -0.729  -2.370  -0.243  0.00  0.00    +0.094 C 
ATOM      6  C   UNL     1      -1.018  -3.840   0.058  0.00  0.00    +0.026 C 
BRANCH   5   7
ATOM      7  C   UNL     1      -1.817  -1.450   0.268  0.00  0.00    -0.005 C 
ATOM      8  C   UNL     1      -2.116  -0.248  -0.376  0.00  0.00    -0.002 C 
ATOM      9  C   UNL     1      -3.145   0.568   0.152  0.00  0.00    -0.000 C 
ATOM     10  C   UNL     1      -2.498  -1.861   1.406  0.00  0.00    -0.003 C 
ATOM     11  C   UNL     1      -1.429   0.171  -1.527  0.00  0.00    -0.000 C 
ATOM     12  C   UNL     1      -3.832   0.148   1.303  0.00  0.00    -0.000 C 
ATOM     13  C   UNL     1      -3.510  -1.058   1.925  0.00  0.00    -0.000 C 
ATOM     14  C   UNL     1      -3.457   1.779  -0.486  0.00  0.00    -0.000 C 
ATOM     15  C   UNL     1      -1.752   1.378  -2.148  0.00  0.00    -0.000 C 
ATOM     16  C   UNL     1      -2.764   2.180  -1.629  0.00  0.00    -0.000 C 
ENDBRANCH   5   7
ENDBRANCH   2   5
BRANCH   3  17
ATOM     17  C   UNL     1       2.975  -1.727   0.366  0.00  0.00    +0.166 C 
BRANCH  17  18
ATOM     18  O   UNL     1       4.143  -2.106  -0.348  0.00  0.00    -0.377 OA
ATOM     19  H   UNL     1       4.929  -1.809   0.137  0.00  0.00    +0.211 HD
ENDBRANCH  17  18
BRANCH  17  20
ATOM     20  C   UNL     1       2.942  -0.208   0.650  0.00  0.00    -0.028 C 
BRANCH  20  21
ATOM     21  N   UNL     1       4.103   0.124   1.485  0.00  0.00    +0.384 N 
ATOM     22  H   UNL     1       4.092  -0.451   2.327  0.00  0.00    -0.089 HD
ATOM     23  H   UNL     1       4.063   1.110   1.746  0.00  0.00    -0.089 HD
ATOM     24  H   UNL     1       4.960  -0.055   0.962  0.00  0.00    -0.089 HD
ENDBRANCH  20  21
BRANCH  20  25
ATOM     25  C   UNL     1       2.928   0.648  -0.638  0.00  0.00    -0.007 C 
BRANCH  25  26
ATOM     26  C   UNL     1       2.907   2.169  -0.441  0.00  0.00    +0.056 C 
BRANCH  26  27
ATOM     27  S   UNL     1       1.410   2.768   0.396  0.00  0.00    -0.140 S 
BRANCH  27  28
ATOM     28  C   UNL     1       1.806   4.531   0.410  0.00  0.00    +0.058 C 
ATOM     29  C   UNL     1       0.695   5.322   1.073  0.00  0.00    +0.013 C 
ENDBRANCH  27  28
ENDBRANCH  26  27
ENDBRANCH  25  26
ENDBRANCH  20  25
ENDBRANCH  17  20
ENDBRANCH   3  17
TORSDOF 10
