REMARK  Name = 5497056
REMARK  11 active torsions:
REMARK  status: ('A' for Active; 'I' for Inactive)
REMARK    1  A    between atoms: N_2  and  C_22
REMARK    2  A    between atoms: C_3  and  C_5
REMARK    3  A    between atoms: C_8  and  C_11
REMARK    4  A    between atoms: C_13  and  C_17
REMARK    5  A    between atoms: C_17  and  N_18
REMARK    6  A    between atoms: C_22  and  C_24
REMARK    7  A    between atoms: C_24  and  C_26
REMARK    8  A    between atoms: C_24  and  C_29
REMARK    9  A    between atoms: C_26  and  O_27
REMARK   10  A    between atoms: C_29  and  C_30
REMARK   11  A    between atoms: C_33  and  C_38
REMARK                            x       y       z     vdW  Elec       q    Type
REMARK                         _______ _______ _______ _____ _____    ______ ____
ROOT
ATOM      1  O   UNL     1       0.524  -3.394   1.444  0.00  0.00    -0.270 OA
ATOM      2  N   UNL     1      -0.609  -2.059  -0.076  0.00  0.00    -0.302 N 
ATOM      3  C   UNL     1       0.510  -2.477   0.628  0.00  0.00    +0.246 C 
ATOM      4  H   UNL     1      -0.518  -1.311  -0.710  0.00  0.00    +0.150 HD
ENDROOT
BRANCH   3   5
ATOM      5  C   UNL     1       1.760  -1.718   0.368  0.00  0.00    +0.053 C 
ATOM      6  C   UNL     1       2.747  -1.642   1.351  0.00  0.00    +0.005 C 
ATOM      7  C   UNL     1       1.948  -1.081  -0.859  0.00  0.00    +0.005 C 
ATOM      8  C   UNL     1       4.109  -0.293  -0.120  0.00  0.00    -0.000 C 
ATOM      9  C   UNL     1       3.921  -0.929   1.107  0.00  0.00    +0.000 C 
ATOM     10  C   UNL     1       3.122  -0.369  -1.103  0.00  0.00    +0.000 C 
BRANCH   8  11
ATOM     11  C   UNL     1       5.328   0.445  -0.372  0.00  0.00    -0.000 C 
ATOM     12  C   UNL     1       6.003   1.058   0.683  0.00  0.00    -0.006 C 
ATOM     13  C   UNL     1       7.178   1.769   0.439  0.00  0.00    -0.044 C 
ATOM     14  C   UNL     1       5.827   0.542  -1.671  0.00  0.00    -0.000 C 
ATOM     15  C   UNL     1       7.677   1.867  -0.860  0.00  0.00    -0.006 C 
ATOM     16  C   UNL     1       7.002   1.253  -1.915  0.00  0.00    -0.000 C 
BRANCH  13  17
ATOM     17  C   UNL     1       7.901   2.424   1.567  0.00  0.00    -0.059 C 
BRANCH  17  18
ATOM     18  N   UNL     1       8.894   1.541   2.181  0.00  0.00    +0.383 N 
ATOM     19  H   UNL     1       9.360   2.032   2.944  0.00  0.00    -0.089 HD
ATOM     20  H   UNL     1       9.584   1.266   1.482  0.00  0.00    -0.089 HD
ATOM     21  H   UNL     1       8.429   0.709   2.545  0.00  0.00    -0.089 HD
ENDBRANCH  17  18
ENDBRANCH  13  17
ENDBRANCH   8  11
ENDBRANCH   3   5
BRANCH   2  22
ATOM     22  C   UNL     1      -1.903  -2.680   0.086  0.00  0.00    +0.083 C 
ATOM     23  C   UNL     1      -2.020  -3.897  -0.830  0.00  0.00    +0.022 C 
BRANCH  22  24
ATOM     24  C   UNL     1      -3.068  -1.684  -0.109  0.00  0.00    +0.121 C 
BRANCH  24  26
ATOM     25  O   UNL     1      -4.018  -1.304  -2.321  0.00  0.00    -0.250 OA
ATOM     26  C   UNL     1      -3.097  -1.136  -1.532  0.00  0.00    +0.319 C 
BRANCH  26  27
ATOM     27  O   UNL     1      -1.949  -0.441  -1.780  0.00  0.00    -0.444 OA
ATOM     28  C   UNL     1      -1.845   0.129  -3.089  0.00  0.00    +0.256 C 
ENDBRANCH  26  27
ENDBRANCH  24  26
BRANCH  24  29
ATOM     29  C   UNL     1      -3.009  -0.520   0.901  0.00  0.00    +0.039 C 
BRANCH  29  30
ATOM     30  C   UNL     1      -4.349   0.150   1.102  0.00  0.00    -0.021 C 
ATOM     31  C   UNL     1      -4.718   1.226   0.296  0.00  0.00    -0.002 C 
ATOM     32  C   UNL     1      -5.215  -0.307   2.095  0.00  0.00    -0.004 C 
ATOM     33  C   UNL     1      -5.954   1.846   0.482  0.00  0.00    +0.030 C 
ATOM     34  C   UNL     1      -6.451   0.313   2.282  0.00  0.00    -0.000 C 
ATOM     35  C   UNL     1      -6.821   1.389   1.476  0.00  0.00    +0.003 C 
BRANCH  33  38
ATOM     36  N   UNL     1      -7.566   3.610  -0.193  0.00  0.00    -0.343 N 
ATOM     37  N   UNL     1      -5.519   3.398  -1.300  0.00  0.00    -0.285 NA
ATOM     38  C   UNL     1      -6.339   2.969  -0.357  0.00  0.00    +0.117 C 
ATOM     39  H   UNL     1      -7.807   4.368  -0.773  0.00  0.00    +0.144 HD
ATOM     40  H   UNL     1      -8.193   3.303   0.502  0.00  0.00    +0.144 HD
ATOM     41  H   UNL     1      -5.778   4.158  -1.869  0.00  0.00    +0.188 HD
ENDBRANCH  33  38
ENDBRANCH  29  30
ENDBRANCH  24  29
ENDBRANCH  22  24
ENDBRANCH   2  22
TORSDOF 11
