REMARK  Name = 2014
REMARK  3 active torsions:
REMARK  status: ('A' for Active; 'I' for Inactive)
REMARK    1  A    between atoms: N_2  and  C_14
REMARK    2  A    between atoms: N_3  and  C_8
REMARK    3  A    between atoms: C_15  and  C_22
REMARK                            x       y       z     vdW  Elec       q    Type
REMARK                         _______ _______ _______ _____ _____    ______ ____
ROOT
ATOM      1  O   UNL     1       0.682   1.086   0.000  0.00  0.00    -0.252 OA
ATOM      2  N   UNL     1      -0.417  -0.983   0.000  0.00  0.00    -0.268 N 
ATOM      3  N   UNL     1       1.892  -0.916   0.000  0.00  0.00    -0.268 N 
ATOM      4  C   UNL     1       0.721  -0.140   0.000  0.00  0.00    +0.308 C 
ATOM      5  H   UNL     1      -0.232  -1.950   0.000  0.00  0.00    +0.156 HD
ATOM      6  H   UNL     1       1.763  -1.892   0.000  0.00  0.00    +0.156 HD
ENDROOT
BRANCH   3   8
ATOM      7 CL   UNL     1       7.492   0.959   0.001  0.00  0.00    -0.082 Cl
ATOM      8  C   UNL     1       3.233  -0.467   0.000  0.00  0.00    +0.052 C 
ATOM      9  C   UNL     1       4.260  -1.397  -0.001  0.00  0.00    +0.016 C 
ATOM     10  C   UNL     1       3.493   0.894   0.001  0.00  0.00    +0.016 C 
ATOM     11  C   UNL     1       5.582  -0.954  -0.001  0.00  0.00    +0.013 C 
ATOM     12  C   UNL     1       4.816   1.337   0.001  0.00  0.00    +0.013 C 
ATOM     13  C   UNL     1       5.860   0.413   0.000  0.00  0.00    +0.058 C 
ENDBRANCH   3   8
BRANCH   2  14
ATOM     14  C   UNL     1      -1.766  -0.625   0.000  0.00  0.00    +0.052 C 
ATOM     15  C   UNL     1      -4.462   0.089   0.000  0.00  0.00    +0.031 C 
ATOM     16  C   UNL     1      -2.131   0.721   0.000  0.00  0.00    +0.015 C 
ATOM     17  C   UNL     1      -2.749  -1.615   0.000  0.00  0.00    +0.015 C 
ATOM     18  C   UNL     1      -3.479   1.078   0.000  0.00  0.00    +0.004 C 
ATOM     19  C   UNL     1      -4.097  -1.258   0.000  0.00  0.00    +0.004 C 
BRANCH  15  22
ATOM     20  N   UNL     1      -6.265   1.797  -0.002  0.00  0.00    -0.343 N 
ATOM     21  N   UNL     1      -6.797  -0.479   0.004  0.00  0.00    -0.285 NA
ATOM     22  C   UNL     1      -5.868   0.461  -0.001  0.00  0.00    +0.117 C 
ATOM     23  H   UNL     1      -7.222   2.026  -0.002  0.00  0.00    +0.144 HD
ATOM     24  H   UNL     1      -5.588   2.511  -0.002  0.00  0.00    +0.144 HD
ATOM     25  H   UNL     1      -7.750  -0.229   0.003  0.00  0.00    +0.188 HD
ENDBRANCH  15  22
ENDBRANCH   2  14
TORSDOF 3
