REMARK  Name = 394347
REMARK  4 active torsions:
REMARK  status: ('A' for Active; 'I' for Inactive)
REMARK    1  A    between atoms: C_3  and  N_10
REMARK    2  A    between atoms: C_4  and  N_13
REMARK    3  A    between atoms: C_5  and  C_16
REMARK    4  A    between atoms: C_16  and  O_17
REMARK                            x       y       z     vdW  Elec       q    Type
REMARK                         _______ _______ _______ _____ _____    ______ ____
ROOT
ATOM      1  O   UNL     1       1.241  -2.193   0.448  0.00  0.00    -0.285 OA
ATOM      2  O   UNL     1      -1.096   2.569   0.159  0.00  0.00    -0.286 OA
ATOM      3  C   UNL     1      -1.385   0.228   0.320  0.00  0.00    +0.089 C 
ATOM      4  C   UNL     1       1.530   0.148   0.286  0.00  0.00    +0.086 C 
ATOM      5  C   UNL     1      -0.783  -0.971   0.393  0.00  0.00    +0.064 C 
ATOM      6  C   UNL     1       0.928   1.347   0.213  0.00  0.00    +0.035 C 
ATOM      7  C   UNL     1       0.703  -1.089   0.381  0.00  0.00    +0.208 C 
ATOM      8  C   UNL     1      -0.558   1.465   0.226  0.00  0.00    +0.206 C 
ATOM      9  C   UNL     1       1.657   2.661   0.114  0.00  0.00    +0.036 C 
ENDROOT
BRANCH   3  10
ATOM     10  N   UNL     1      -2.734   0.455   0.322  0.00  0.00    -0.302 N 
ATOM     11  C   UNL     1      -3.518  -0.147  -0.753  0.00  0.00    +0.112 C 
ATOM     12  C   UNL     1      -3.270   1.324  -0.721  0.00  0.00    +0.112 C 
ENDBRANCH   3  10
BRANCH   4  13
ATOM     13  N   UNL     1       2.879  -0.079   0.284  0.00  0.00    -0.302 N 
ATOM     14  C   UNL     1       3.419  -0.903  -0.793  0.00  0.00    +0.112 C 
ATOM     15  C   UNL     1       3.667   0.568  -0.762  0.00  0.00    +0.112 C 
ENDBRANCH   4  13
BRANCH   5  16
ATOM     16  C   UNL     1      -1.512  -2.285   0.492  0.00  0.00    +0.168 C 
BRANCH  16  17
ATOM     17  O   UNL     1      -1.168  -3.099  -0.610  0.00  0.00    -0.377 OA
ATOM     18  H   UNL     1      -1.638  -3.946  -0.547  0.00  0.00    +0.211 HD
ENDBRANCH  16  17
ENDBRANCH   5  16
TORSDOF 4
