REMARK  Name = 4528
REMARK  2 active torsions:
REMARK  status: ('A' for Active; 'I' for Inactive)
REMARK    1  A    between atoms: C_2  and  C_13
REMARK    2  A    between atoms: C_7  and  N_19
REMARK                            x       y       z     vdW  Elec       q    Type
REMARK                         _______ _______ _______ _____ _____    ______ ____
ROOT
ATOM      1  N   UNL     1      -0.410  -2.247   0.151  0.00  0.00    +0.389 N 
ATOM      2  C   UNL     1       0.464  -0.297  -1.122  0.00  0.00    +0.024 C 
ATOM      3  C   UNL     1       0.244  -1.828  -1.095  0.00  0.00    -0.068 C 
ATOM      4  C   UNL     1      -0.766   0.471  -0.667  0.00  0.00    -0.025 C 
ATOM      5  C   UNL     1      -1.766  -1.682   0.231  0.00  0.00    -0.049 C 
ATOM      6  C   UNL     1      -1.809  -0.188   0.009  0.00  0.00    -0.034 C 
ATOM      7  C   UNL     1      -2.933   0.541   0.423  0.00  0.00    +0.035 C 
ATOM      8  C   UNL     1      -0.862   1.852  -0.904  0.00  0.00    -0.004 C 
ATOM      9  C   UNL     1      -0.457  -3.706   0.249  0.00  0.00    -0.100 C 
ATOM     10  C   UNL     1      -3.015   1.913   0.185  0.00  0.00    +0.014 C 
ATOM     11  C   UNL     1      -1.980   2.567  -0.478  0.00  0.00    +0.001 C 
ATOM     12  H   UNL     1       0.139  -1.894   0.935  0.00  0.00    -0.079 HD
ENDROOT
BRANCH   2  13
ATOM     13  C   UNL     1       1.730   0.093  -0.367  0.00  0.00    -0.020 C 
ATOM     14  C   UNL     1       1.662   0.379   0.993  0.00  0.00    -0.004 C 
ATOM     15  C   UNL     1       2.944   0.160  -1.043  0.00  0.00    -0.004 C 
ATOM     16  C   UNL     1       2.820   0.736   1.684  0.00  0.00    -0.000 C 
ATOM     17  C   UNL     1       4.102   0.516  -0.353  0.00  0.00    -0.000 C 
ATOM     18  C   UNL     1       4.040   0.805   1.011  0.00  0.00    -0.000 C 
ENDBRANCH   2  13
BRANCH   7  19
ATOM     19  N   UNL     1      -4.009  -0.086   1.093  0.00  0.00    -0.357 N 
ATOM     20  H   UNL     1      -3.980  -1.053   1.275  0.00  0.00    +0.142 HD
ATOM     21  H   UNL     1      -4.788   0.445   1.379  0.00  0.00    +0.142 HD
ENDBRANCH   7  19
TORSDOF 2
