REMARK  Name = 119205
REMARK  8 active torsions:
REMARK  status: ('A' for Active; 'I' for Inactive)
REMARK    1  A    between atoms: C_3  and  C_7
REMARK    2  A    between atoms: C_4  and  C_18
REMARK    3  A    between atoms: C_7  and  C_8
REMARK    4  A    between atoms: C_11  and  O_14
REMARK    5  A    between atoms: C_13  and  O_16
REMARK    6  A    between atoms: C_18  and  C_19
REMARK    7  A    between atoms: C_22  and  O_25
REMARK    8  A    between atoms: C_24  and  O_27
REMARK                            x       y       z     vdW  Elec       q    Type
REMARK                         _______ _______ _______ _____ _____    ______ ____
ROOT
ATOM      1  O   UNL     1       3.950  -2.360   0.095  0.00  0.00    -0.448 OA
ATOM      2  O   UNL     1       4.488  -0.706  -1.397  0.00  0.00    -0.250 OA
ATOM      3  C   UNL     1       1.718  -1.785   0.527  0.00  0.00    +0.059 C 
ATOM      4  C   UNL     1       2.395  -0.607  -0.166  0.00  0.00    +0.107 C 
ATOM      5  C   UNL     1       2.898  -2.587   1.040  0.00  0.00    +0.209 C 
ATOM      6  C   UNL     1       3.716  -1.198  -0.587  0.00  0.00    +0.317 C 
ENDROOT
BRANCH   3   7
ATOM      7  C   UNL     1       0.886  -2.606  -0.462  0.00  0.00    +0.031 C 
BRANCH   7   8
ATOM      8  C   UNL     1      -0.491  -2.025  -0.657  0.00  0.00    -0.019 C 
ATOM      9  C   UNL     1      -1.528  -2.438   0.165  0.00  0.00    +0.036 C 
ATOM     10  C   UNL     1      -0.699  -1.086  -1.657  0.00  0.00    -0.001 C 
ATOM     11  C   UNL     1      -2.802  -1.901  -0.016  0.00  0.00    +0.172 C 
ATOM     12  C   UNL     1      -1.973  -0.549  -1.838  0.00  0.00    +0.039 C 
ATOM     13  C   UNL     1      -3.025  -0.956  -1.017  0.00  0.00    +0.168 C 
BRANCH  11  14
ATOM     14  O   UNL     1      -3.822  -2.308   0.791  0.00  0.00    -0.468 OA
ATOM     15  C   UNL     1      -3.511  -3.276   1.790  0.00  0.00    +0.253 C 
ENDBRANCH  11  14
BRANCH  13  16
ATOM     16  O   UNL     1      -4.265  -0.424  -1.204  0.00  0.00    -0.503 OA
ATOM     17  H   UNL     1      -4.977  -0.692  -0.657  0.00  0.00    +0.292 HD
ENDBRANCH  13  16
ENDBRANCH   7   8
ENDBRANCH   3   7
BRANCH   4  18
ATOM     18  C   UNL     1       2.632   0.575   0.764  0.00  0.00    +0.038 C 
BRANCH  18  19
ATOM     19  C   UNL     1       1.425   1.472   0.853  0.00  0.00    -0.018 C 
ATOM     20  C   UNL     1       1.294   2.528  -0.038  0.00  0.00    +0.036 C 
ATOM     21  C   UNL     1       0.464   1.230   1.823  0.00  0.00    -0.001 C 
ATOM     22  C   UNL     1       0.177   3.359   0.044  0.00  0.00    +0.172 C 
ATOM     23  C   UNL     1      -0.653   2.061   1.905  0.00  0.00    +0.039 C 
ATOM     24  C   UNL     1      -0.796   3.126   1.016  0.00  0.00    +0.168 C 
BRANCH  22  25
ATOM     25  O   UNL     1       0.049   4.396  -0.829  0.00  0.00    -0.468 OA
ATOM     26  C   UNL     1      -0.637   4.134  -2.052  0.00  0.00    +0.253 C 
ENDBRANCH  22  25
BRANCH  24  27
ATOM     27  O   UNL     1      -1.891   3.930   1.105  0.00  0.00    -0.503 OA
ATOM     28  H   UNL     1      -1.996   4.648   0.512  0.00  0.00    +0.292 HD
ENDBRANCH  24  27
ENDBRANCH  18  19
ENDBRANCH   4  18
TORSDOF 8
