REMARK  Name = 2196
REMARK  2 active torsions:
REMARK  status: ('A' for Active; 'I' for Inactive)
REMARK    1  A    between atoms: C_8  and  C_9
REMARK    2  A    between atoms: C_14  and  O_15
REMARK                            x       y       z     vdW  Elec       q    Type
REMARK                         _______ _______ _______ _____ _____    ______ ____
ROOT
ATOM      1  O   UNL     1       1.024   1.839   0.225  0.00  0.00    -0.274 OA
ATOM      2  O   UNL     1       1.289  -2.450  -0.157  0.00  0.00    -0.269 OA
ATOM      3  N   UNL     1       2.115  -0.267  -0.052  0.00  0.00    -0.226 N 
ATOM      4  C   UNL     1       4.311   0.513   0.108  0.00  0.00    +0.032 C 
ATOM      5  C   UNL     1       3.475  -0.646  -0.382  0.00  0.00    +0.102 C 
ATOM      6  C   UNL     1       3.410   1.712  -0.127  0.00  0.00    +0.087 C 
ATOM      7  C   UNL     1       2.019   1.149   0.062  0.00  0.00    +0.232 C 
ATOM      8  C   UNL     1       1.101  -1.240  -0.052  0.00  0.00    +0.255 C 
ENDROOT
BRANCH   8   9
ATOM      9  C   UNL     1      -0.291  -0.772   0.052  0.00  0.00    +0.054 C 
ATOM     10  C   UNL     1      -1.013  -0.483  -1.103  0.00  0.00    +0.008 C 
ATOM     11  C   UNL     1      -0.879  -0.621   1.305  0.00  0.00    +0.008 C 
ATOM     12  C   UNL     1      -2.332  -0.040  -1.004  0.00  0.00    +0.037 C 
ATOM     13  C   UNL     1      -2.198  -0.177   1.404  0.00  0.00    +0.037 C 
ATOM     14  C   UNL     1      -2.924   0.113   0.249  0.00  0.00    +0.139 C 
BRANCH  14  15
ATOM     15  O   UNL     1      -4.211   0.545   0.345  0.00  0.00    -0.471 OA
ATOM     16  C   UNL     1      -4.896   0.824  -0.875  0.00  0.00    +0.252 C 
ENDBRANCH  14  15
ENDBRANCH   8   9
TORSDOF 2
