REMARK  Name = 446665
REMARK  13 active torsions:
REMARK  status: ('A' for Active; 'I' for Inactive)
REMARK    1  A    between atoms: C_1  and  C_2
REMARK    2  A    between atoms: C_1  and  C_19
REMARK    3  A    between atoms: C_2  and  C_3
REMARK    4  A    between atoms: C_3  and  C_4
REMARK    5  A    between atoms: C_7  and  C_12
REMARK    6  A    between atoms: C_12  and  P_13
REMARK    7  A    between atoms: P_13  and  O_15
REMARK    8  A    between atoms: P_13  and  O_17
REMARK    9  A    between atoms: C_19  and  C_20
REMARK   10  A    between atoms: C_23  and  C_28
REMARK   11  A    between atoms: C_28  and  P_29
REMARK   12  A    between atoms: P_29  and  O_31
REMARK   13  A    between atoms: P_29  and  O_33
REMARK                            x       y       z     vdW  Elec       q    Type
REMARK                         _______ _______ _______ _____ _____    ______ ____
ROOT
ATOM      1  C   UNL     1      -0.761   0.100  -0.134  0.00  0.00    +0.005 C 
ENDROOT
BRANCH   1   2
ATOM      2  C   UNL     1       0.760  -0.102  -0.090  0.00  0.00    +0.005 C 
BRANCH   2   3
ATOM      3  C   UNL     1       1.537   1.220  -0.112  0.00  0.00    +0.026 C 
BRANCH   3   4
ATOM      4  C   UNL     1       3.035   1.042  -0.079  0.00  0.00    -0.022 C 
ATOM      5  C   UNL     1       3.705   0.993   1.143  0.00  0.00    -0.004 C 
ATOM      6  C   UNL     1       3.749   0.927  -1.271  0.00  0.00    -0.004 C 
ATOM      7  C   UNL     1       5.804   0.713  -0.019  0.00  0.00    +0.049 C 
ATOM      8  C   UNL     1       5.090   0.828   1.173  0.00  0.00    +0.001 C 
ATOM      9  C   UNL     1       5.134   0.762  -1.242  0.00  0.00    +0.001 C 
BRANCH   7  12
ATOM     10  F   UNL     1       7.937   1.054  -1.061  0.00  0.00    -0.187 F 
ATOM     11  F   UNL     1       7.895   1.042   1.115  0.00  0.00    -0.187 F 
ATOM     12  C   UNL     1       7.285   0.536   0.013  0.00  0.00    +0.372 C 
BRANCH  12  13
ATOM     13  P   UNL     1       7.942  -1.108   0.003  0.00  0.00    +0.401 P 
ATOM     14  O   UNL     1       7.570  -1.926  -1.199  0.00  0.00    -0.252 OA
BRANCH  13  15
ATOM     15  O   UNL     1       7.462  -1.726   1.418  0.00  0.00    -0.320 OA
ATOM     16  H   UNL     1       7.783  -2.638   1.498  0.00  0.00    +0.220 HD
ENDBRANCH  13  15
BRANCH  13  17
ATOM     17  O   UNL     1       9.532  -0.901   0.214  0.00  0.00    -0.320 OA
ATOM     18  H   UNL     1       9.972  -1.765   0.220  0.00  0.00    +0.220 HD
ENDBRANCH  13  17
ENDBRANCH  12  13
ENDBRANCH   7  12
ENDBRANCH   3   4
ENDBRANCH   2   3
ENDBRANCH   1   2
BRANCH   1  19
ATOM     19  C   UNL     1      -1.538  -1.222  -0.114  0.00  0.00    +0.026 C 
BRANCH  19  20
ATOM     20  C   UNL     1      -3.035  -1.044  -0.076  0.00  0.00    -0.022 C 
ATOM     21  C   UNL     1      -3.697  -0.961   1.150  0.00  0.00    -0.004 C 
ATOM     22  C   UNL     1      -3.758  -0.961  -1.266  0.00  0.00    -0.004 C 
ATOM     23  C   UNL     1      -5.804  -0.713  -0.005  0.00  0.00    +0.049 C 
ATOM     24  C   UNL     1      -5.081  -0.795   1.185  0.00  0.00    +0.001 C 
ATOM     25  C   UNL     1      -5.143  -0.796  -1.230  0.00  0.00    +0.001 C 
BRANCH  23  28
ATOM     26  F   UNL     1      -7.944  -1.083  -1.022  0.00  0.00    -0.187 F 
ATOM     27  F   UNL     1      -7.887  -1.011   1.153  0.00  0.00    -0.187 F 
ATOM     28  C   UNL     1      -7.285  -0.536   0.032  0.00  0.00    +0.372 C 
BRANCH  28  29
ATOM     29  P   UNL     1      -7.942   1.107  -0.019  0.00  0.00    +0.401 P 
ATOM     30  O   UNL     1      -7.579   1.891  -1.245  0.00  0.00    -0.252 OA
BRANCH  29  31
ATOM     31  O   UNL     1      -7.453   1.764   1.375  0.00  0.00    -0.320 OA
ATOM     32  H   UNL     1      -7.773   2.678   1.432  0.00  0.00    +0.220 HD
ENDBRANCH  29  31
BRANCH  29  33
ATOM     33  O   UNL     1      -9.531   0.906   0.209  0.00  0.00    -0.320 OA
ATOM     34  H   UNL     1      -9.972   1.770   0.196  0.00  0.00    +0.220 HD
ENDBRANCH  29  33
ENDBRANCH  28  29
ENDBRANCH  23  28
ENDBRANCH  19  20
ENDBRANCH   1  19
TORSDOF 13
