REMARK  Name = 83242
REMARK  5 active torsions:
REMARK  status: ('A' for Active; 'I' for Inactive)
REMARK    1  A    between atoms: C_1  and  C_2
REMARK    2  A    between atoms: C_1  and  C_9
REMARK    3  A    between atoms: C_2  and  C_3
REMARK    4  A    between atoms: C_9  and  C_10
REMARK    5  A    between atoms: C_10  and  N_11
REMARK                            x       y       z     vdW  Elec       q    Type
REMARK                         _______ _______ _______ _____ _____    ______ ____
ROOT
ATOM      1  C   UNL     1      -1.431  -0.034  -0.158  0.00  0.00    +0.002 C 
ENDROOT
BRANCH   1   2
ATOM      2  C   UNL     1      -0.400  -0.043   0.973  0.00  0.00    +0.026 C 
BRANCH   2   3
ATOM      3  C   UNL     1       1.010  -0.017   0.441  0.00  0.00    -0.022 C 
ATOM      4  C   UNL     1       1.662  -1.212   0.178  0.00  0.00    -0.004 C 
ATOM      5  C   UNL     1       1.634   1.203   0.222  0.00  0.00    -0.004 C 
ATOM      6  C   UNL     1       2.967  -1.188  -0.314  0.00  0.00    -0.000 C 
ATOM      7  C   UNL     1       2.938   1.228  -0.271  0.00  0.00    -0.000 C 
ATOM      8  C   UNL     1       3.605   0.032  -0.539  0.00  0.00    -0.000 C 
ENDBRANCH   2   3
ENDBRANCH   1   2
BRANCH   1   9
ATOM      9  C   UNL     1      -2.859  -0.025   0.394  0.00  0.00    -0.024 C 
BRANCH   9  10
ATOM     10  C   UNL     1      -3.887   0.019  -0.736  0.00  0.00    -0.086 C 
BRANCH  10  11
ATOM     11  N   UNL     1      -5.239   0.037  -0.190  0.00  0.00    +0.380 N 
ATOM     12  H   UNL     1      -5.914   0.066  -0.954  0.00  0.00    -0.089 HD
ATOM     13  H   UNL     1      -5.357   0.861   0.400  0.00  0.00    -0.089 HD
ATOM     14  H   UNL     1      -5.391  -0.804   0.367  0.00  0.00    -0.089 HD
ENDBRANCH  10  11
ENDBRANCH   9  10
ENDBRANCH   1   9
TORSDOF 5
