REMARK  Name = 447607
REMARK  4 active torsions:
REMARK  status: ('A' for Active; 'I' for Inactive)
REMARK    1  A    between atoms: C_2  and  C_13
REMARK    2  A    between atoms: C_3  and  O_9
REMARK    3  A    between atoms: C_4  and  O_11
REMARK    4  A    between atoms: C_13  and  O_14
REMARK                            x       y       z     vdW  Elec       q    Type
REMARK                         _______ _______ _______ _____ _____    ______ ____
ROOT
ATOM      1  N   UNL     1      -0.436  -2.013  -0.321  0.00  0.00    +0.386 N 
ATOM      2  C   UNL     1       0.895   0.075  -0.207  0.00  0.00    +0.037 C 
ATOM      3  C   UNL     1      -0.358   0.861   0.210  0.00  0.00    +0.135 C 
ATOM      4  C   UNL     1      -1.627   0.152  -0.269  0.00  0.00    +0.116 C 
ATOM      5  C   UNL     1       0.777  -1.396   0.216  0.00  0.00    -0.077 C 
ATOM      6  C   UNL     1      -1.634  -1.319   0.144  0.00  0.00    -0.049 C 
ATOM      7  H   UNL     1      -0.477  -2.986  -0.017  0.00  0.00    -0.084 HD
ATOM      8  H   UNL     1      -0.404  -1.954  -1.339  0.00  0.00    -0.084 HD
ENDROOT
BRANCH   3   9
ATOM      9  O   UNL     1      -0.305   2.164  -0.370  0.00  0.00    -0.382 OA
ATOM     10  H   UNL     1       0.498   2.618  -0.070  0.00  0.00    +0.210 HD
ENDBRANCH   3   9
BRANCH   4  11
ATOM     11  O   UNL     1      -2.754   0.805   0.314  0.00  0.00    -0.384 OA
ATOM     12  H   UNL     1      -2.756   1.740   0.056  0.00  0.00    +0.210 HD
ENDBRANCH   4  11
BRANCH   2  13
ATOM     13  C   UNL     1       2.163   0.700   0.378  0.00  0.00    +0.137 C 
BRANCH  13  14
ATOM     14  O   UNL     1       3.279  -0.029  -0.096  0.00  0.00    -0.382 OA
ATOM     15  H   UNL     1       4.093   0.354   0.266  0.00  0.00    +0.210 HD
ENDBRANCH  13  14
ENDBRANCH   2  13
TORSDOF 4
