REMARK  Name = 121938
REMARK  0 active torsions:
REMARK  status: ('A' for Active; 'I' for Inactive)
REMARK                            x       y       z     vdW  Elec       q    Type
REMARK                         _______ _______ _______ _____ _____    ______ ____
ROOT
ATOM      1 CL   UNL     1       1.757  -2.398  -0.116  0.00  0.00    -0.082 Cl
ATOM      2 CL   UNL     1       3.907  -0.144   0.392  0.00  0.00    -0.081 Cl
ATOM      3  N   UNL     1      -2.119  -1.530   0.466  0.00  0.00    +0.386 N 
ATOM      4  C   UNL     1      -1.853   1.458  -0.502  0.00  0.00    +0.024 C 
ATOM      5  C   UNL     1      -2.824   0.891   0.535  0.00  0.00    -0.019 C 
ATOM      6  C   UNL     1      -0.430   1.007  -0.285  0.00  0.00    -0.027 C 
ATOM      7  C   UNL     1      -3.212  -0.570   0.301  0.00  0.00    -0.081 C 
ATOM      8  C   UNL     1      -0.079  -0.356  -0.320  0.00  0.00    -0.036 C 
ATOM      9  C   UNL     1      -1.108  -1.427  -0.588  0.00  0.00    -0.054 C 
ATOM     10  C   UNL     1       0.568   1.968  -0.051  0.00  0.00    -0.004 C 
ATOM     11  C   UNL     1       1.261  -0.724  -0.111  0.00  0.00    +0.062 C 
ATOM     12  C   UNL     1       1.893   1.587   0.154  0.00  0.00    +0.012 C 
ATOM     13  C   UNL     1       2.239   0.241   0.125  0.00  0.00    +0.068 C 
ATOM     14  H   UNL     1      -2.509  -2.472   0.452  0.00  0.00    -0.084 HD
ATOM     15  H   UNL     1      -1.660  -1.321   1.352  0.00  0.00    -0.084 HD
ENDROOT
TORSDOF 0
