REMARK  Name = 444503
REMARK  9 active torsions:
REMARK  status: ('A' for Active; 'I' for Inactive)
REMARK    1  A    between atoms: C_3  and  C_16
REMARK    2  A    between atoms: C_5  and  N_9
REMARK    3  A    between atoms: C_16  and  O_17
REMARK    4  A    between atoms: O_17  and  P_18
REMARK    5  A    between atoms: P_18  and  O_20
REMARK    6  A    between atoms: P_18  and  O_22
REMARK    7  A    between atoms: O_22  and  P_23
REMARK    8  A    between atoms: P_23  and  O_25
REMARK    9  A    between atoms: P_23  and  O_27
REMARK                            x       y       z     vdW  Elec       q    Type
REMARK                         _______ _______ _______ _____ _____    ______ ____
ROOT
ATOM      1  F   UNL     1       1.962   4.071  -0.574  0.00  0.00    -0.234 F 
ATOM      2  O   UNL     1       1.117   1.647   0.917  0.00  0.00    -0.334 OA
ATOM      3  C   UNL     1       0.315   2.611   0.207  0.00  0.00    +0.180 C 
ATOM      4  C   UNL     1       1.145   3.058  -0.982  0.00  0.00    +0.195 C 
ATOM      5  C   UNL     1       2.264   1.317   0.119  0.00  0.00    +0.202 C 
ATOM      6  C   UNL     1       2.002   1.855  -1.276  0.00  0.00    +0.089 C 
ENDROOT
BRANCH   5   9
ATOM      7  O   UNL     1       4.792   0.065  -0.008  0.00  0.00    -0.252 OA
ATOM      8  O   UNL     1       2.922  -4.143   0.206  0.00  0.00    -0.270 OA
ATOM      9  N   UNL     1       2.466  -0.101   0.140  0.00  0.00    -0.219 N 
ATOM     10  N   UNL     1       3.859  -2.030   0.098  0.00  0.00    -0.236 N 
ATOM     11  C   UNL     1       3.777  -0.631   0.070  0.00  0.00    +0.315 C 
ATOM     12  C   UNL     1       1.375  -0.959   0.230  0.00  0.00    +0.076 C 
ATOM     13  C   UNL     1       1.468  -2.291   0.255  0.00  0.00    +0.074 C 
ATOM     14  C   UNL     1       2.801  -2.922   0.185  0.00  0.00    +0.254 C 
ATOM     15  H   UNL     1       4.762  -2.420   0.049  0.00  0.00    +0.159 HD
ENDBRANCH   5   9
BRANCH   3  16
ATOM     16  C   UNL     1      -0.986   1.932  -0.196  0.00  0.00    +0.186 C 
BRANCH  16  17
ATOM     17  O   UNL     1      -1.679   1.545   0.978  0.00  0.00    -0.270 OA
BRANCH  17  18
ATOM     18  P   UNL     1      -3.108   0.793   0.864  0.00  0.00    +0.484 P 
ATOM     19  O   UNL     1      -3.738   0.437   2.179  0.00  0.00    -0.227 OA
BRANCH  18  20
ATOM     20  O   UNL     1      -4.005   1.770  -0.063  0.00  0.00    -0.302 OA
ATOM     21  H   UNL     1      -3.533   1.953  -0.890  0.00  0.00    +0.222 HD
ENDBRANCH  18  20
BRANCH  18  22
ATOM     22  O   UNL     1      -2.824  -0.474  -0.099  0.00  0.00    -0.186 OA
BRANCH  22  23
ATOM     23  P   UNL     1      -3.829  -1.567  -0.738  0.00  0.00    +0.481 P 
ATOM     24  O   UNL     1      -4.891  -0.994  -1.629  0.00  0.00    -0.227 OA
BRANCH  23  25
ATOM     25  O   UNL     1      -4.373  -2.365   0.558  0.00  0.00    -0.302 OA
ATOM     26  H   UNL     1      -3.621  -2.698   1.072  0.00  0.00    +0.222 HD
ENDBRANCH  23  25
BRANCH  23  27
ATOM     27  O   UNL     1      -2.831  -2.624  -1.443  0.00  0.00    -0.302 OA
ATOM     28  H   UNL     1      -2.182  -2.939  -0.794  0.00  0.00    +0.222 HD
ENDBRANCH  23  27
ENDBRANCH  22  23
ENDBRANCH  18  22
ENDBRANCH  17  18
ENDBRANCH  16  17
ENDBRANCH   3  16
TORSDOF 9
