REMARK  Name = 5289518
REMARK  6 active torsions:
REMARK  status: ('A' for Active; 'I' for Inactive)
REMARK    1  A    between atoms: C_4  and  C_8
REMARK    2  A    between atoms: C_5  and  C_12
REMARK    3  A    between atoms: C_12  and  CA_13
REMARK    4  A    between atoms: CA_13  and  N_14
REMARK    5  A    between atoms: CA_13  and  C_19
REMARK    6  A    between atoms: C_19  and  O_20
REMARK                            x       y       z     vdW  Elec       q    Type
REMARK                         _______ _______ _______ _____ _____    ______ ____
ROOT
ATOM      1  S   UNL     1       2.317   1.377  -0.791  0.00  0.00    -0.015 S 
ATOM      2  O   UNL     1      -0.953   2.731   0.511  0.00  0.00    -0.267 OA
ATOM      3  N   UNL     1       1.125   2.535  -0.510  0.00  0.00    -0.292 N 
ATOM      4  C   UNL     1       1.375   0.172   0.048  0.00  0.00    +0.023 A 
ATOM      5  C   UNL     1       0.204   0.631   0.521  0.00  0.00    +0.036 A 
ATOM      6  C   UNL     1       0.030   2.077   0.191  0.00  0.00    +0.259 A 
ATOM      7  H   UNL     1       1.205   3.466  -0.822  0.00  0.00    +0.177 HD
ENDROOT
BRANCH   4   8
ATOM      8  C   UNL     1       1.930  -1.222   0.167  0.00  0.00    +0.026 C 
ATOM      9  C   UNL     1       0.949  -2.181  -0.511  0.00  0.00    +0.005 C 
ATOM     10  C   UNL     1       2.078  -1.571   1.650  0.00  0.00    +0.005 C 
ATOM     11  C   UNL     1       3.293  -1.275  -0.528  0.00  0.00    +0.005 C 
ENDBRANCH   4   8
BRANCH   5  12
ATOM     12  C   UNL     1      -0.864  -0.075   1.279  0.00  0.00    +0.020 C 
BRANCH  12  13
ATOM     13  CA  UNL     1      -2.186  -0.033   0.505  0.00  0.00    +0.040 C 
BRANCH  13  14
ATOM     14  N   UNL     1      -3.224  -0.756   1.238  0.00  0.00    +0.389 N 
ATOM     15  H1  UNL     1      -3.334  -0.345   2.165  0.00  0.00    -0.088 HD
ATOM     16  H2  UNL     1      -2.955  -1.736   1.330  0.00  0.00    -0.088 HD
ATOM     17  H3  UNL     1      -4.106  -0.692   0.731  0.00  0.00    -0.088 HD
ENDBRANCH  13  14
BRANCH  13  19
ATOM     18  OXT UNL     1      -2.276  -1.888  -1.080  0.00  0.00    -0.253 OA
ATOM     19  C   UNL     1      -2.081  -0.700  -0.858  0.00  0.00    +0.293 C 
BRANCH  19  20
ATOM     20  O   UNL     1      -1.718   0.178  -1.831  0.00  0.00    -0.482 OA
ATOM     21  H   UNL     1      -1.578   1.080  -1.619  0.00  0.00    +0.295 HD
ENDBRANCH  19  20
ENDBRANCH  13  19
ENDBRANCH  12  13
ENDBRANCH   5  12
TORSDOF 6
