REMARK  Name = 1750
REMARK  1 active torsions:
REMARK  status: ('A' for Active; 'I' for Inactive)
REMARK    1  A    between atoms: C_4  and  N_13
REMARK                            x       y       z     vdW  Elec       q    Type
REMARK                         _______ _______ _______ _____ _____    ______ ____
ROOT
ATOM      1  O   UNL     1       3.533   0.076  -0.001  0.00  0.00    -0.287 OA
ATOM      2  C   UNL     1       0.081   0.327   0.000  0.00  0.00    +0.026 C 
ATOM      3  C   UNL     1       1.209  -0.484   0.000  0.00  0.00    +0.041 C 
ATOM      4  C   UNL     1      -1.181  -0.238   0.000  0.00  0.00    +0.143 C 
ATOM      5  C   UNL     1       0.495   1.716   0.000  0.00  0.00    +0.005 C 
ATOM      6  C   UNL     1       2.365   0.404   0.000  0.00  0.00    +0.196 C 
ATOM      7  C   UNL     1       1.148  -1.863   0.000  0.00  0.00    +0.003 C 
ATOM      8  C   UNL     1       1.834   1.787   0.000  0.00  0.00    +0.042 C 
ATOM      9  C   UNL     1      -1.278  -1.634   0.000  0.00  0.00    +0.024 C 
ATOM     10  C   UNL     1      -0.122  -2.439   0.000  0.00  0.00    +0.002 C 
ENDROOT
BRANCH   4  13
ATOM     11  O   UNL     1      -3.476  -0.014   0.000  0.00  0.00    -0.126 OA
ATOM     12  O   UNL     1      -2.249   1.806   0.000  0.00  0.00    -0.126 OA
ATOM     13  N   UNL     1      -2.358   0.556   0.000  0.00  0.00    +0.058 N 
ENDBRANCH   4  13
TORSDOF 1
