REMARK  Name = 9600421
REMARK  6 active torsions:
REMARK  status: ('A' for Active; 'I' for Inactive)
REMARK    1  A    between atoms: N_1  and  O_6
REMARK    2  A    between atoms: C_2  and  S_3
REMARK    3  A    between atoms: C_2  and  C_11
REMARK    4  A    between atoms: S_3  and  C_4
REMARK    5  A    between atoms: O_6  and  S_7
REMARK    6  A    between atoms: C_11  and  C_12
REMARK                            x       y       z     vdW  Elec       q    Type
REMARK                         _______ _______ _______ _____ _____    ______ ____
ROOT
ATOM      1  N   UNL     1      -1.016  -0.430   0.567  0.00  0.00    -0.047 NA
ATOM      2  C   UNL     1      -0.210   0.579   0.460  0.00  0.00    +0.129 C 
ENDROOT
BRANCH   2   3
ATOM      3  S   UNL     1      -0.604   1.887  -0.660  0.00  0.00    -0.096 S 
BRANCH   3   4
ATOM      4  C   UNL     1      -1.569   2.979   0.407  0.00  0.00    +0.063 C 
ATOM      5  C   UNL     1      -2.002   4.219  -0.352  0.00  0.00    +0.013 C 
ENDBRANCH   3   4
ENDBRANCH   2   3
BRANCH   1   6
ATOM      6  O   UNL     1      -2.116  -0.296  -0.282  0.00  0.00    -0.205 OA
BRANCH   6   7
ATOM      7  S   UNL     1      -3.133  -1.565  -0.150  0.00  0.00    +0.302 S 
ATOM      8  O   UNL     1      -4.394  -1.113  -1.079  0.00  0.00    -0.103 OA
ATOM      9  O   UNL     1      -3.601  -1.637   1.222  0.00  0.00    -0.011 OA
ATOM     10  O   UNL     1      -2.512  -2.715  -0.781  0.00  0.00    -0.103 OA
ENDBRANCH   6   7
ENDBRANCH   1   6
BRANCH   2  11
ATOM     11  C   UNL     1       1.084   0.770   1.228  0.00  0.00    +0.082 C 
BRANCH  11  12
ATOM     12  C   UNL     1       2.265   0.135   0.536  0.00  0.00    -0.016 C 
ATOM     13  C   UNL     1       2.594  -1.181   0.823  0.00  0.00    -0.004 C 
ATOM     14  C   UNL     1       3.001   0.878  -0.374  0.00  0.00    -0.004 C 
ATOM     15  C   UNL     1       3.686  -1.768   0.184  0.00  0.00    -0.000 C 
ATOM     16  C   UNL     1       4.092   0.291  -1.013  0.00  0.00    -0.000 C 
ATOM     17  C   UNL     1       4.435  -1.032  -0.734  0.00  0.00    -0.000 C 
ENDBRANCH  11  12
ENDBRANCH   2  11
TORSDOF 6
