REMARK  Name = 15081829
REMARK  8 active torsions:
REMARK  status: ('A' for Active; 'I' for Inactive)
REMARK    1  A    between atoms: C_2  and  O_18
REMARK    2  A    between atoms: C_3  and  C_20
REMARK    3  A    between atoms: C_5  and  N_7
REMARK    4  A    between atoms: C_12  and  C_17
REMARK    5  A    between atoms: C_20  and  O_21
REMARK    6  A    between atoms: O_21  and  P_22
REMARK    7  A    between atoms: P_22  and  O_24
REMARK    8  A    between atoms: P_22  and  O_26
REMARK                            x       y       z     vdW  Elec       q    Type
REMARK                         _______ _______ _______ _____ _____    ______ ____
ROOT
ATOM      1  O   UNL     1       0.720  -1.446   1.008  0.00  0.00    -0.334 OA
ATOM      2  C   UNL     1       1.456  -2.872  -0.738  0.00  0.00    +0.144 C 
ATOM      3  C   UNL     1       1.900  -1.824   0.274  0.00  0.00    +0.174 C 
ATOM      4  C   UNL     1       0.018  -2.496  -1.011  0.00  0.00    +0.084 C 
ATOM      5  C   UNL     1      -0.440  -1.953   0.333  0.00  0.00    +0.209 C 
ENDROOT
BRANCH   5   7
ATOM      6  O   UNL     1      -3.188  -2.364   0.392  0.00  0.00    -0.193 OA
ATOM      7  N   UNL     1      -1.411  -0.905   0.206  0.00  0.00    -0.180 N 
ATOM      8  N   UNL     1      -3.703  -0.172   0.122  0.00  0.00    -0.306 NA
ATOM      9  N   UNL     1      -4.266   2.053  -0.152  0.00  0.00    -0.332 N 
ATOM     10  C   UNL     1      -1.002   0.409   0.043  0.00  0.00    +0.087 C 
ATOM     11  C   UNL     1      -2.793  -1.206   0.247  0.00  0.00    +0.275 C 
ATOM     12  C   UNL     1      -1.863   1.422  -0.079  0.00  0.00    +0.102 C 
ATOM     13  C   UNL     1      -3.312   1.068  -0.032  0.00  0.00    +0.196 C 
ATOM     14  H   UNL     1      -5.222   1.819  -0.121  0.00  0.00    +0.145 HD
ATOM     15  H   UNL     1      -3.992   2.991  -0.269  0.00  0.00    +0.145 HD
BRANCH  12  17
ATOM     16  O   UNL     1      -2.023   3.760  -0.368  0.00  0.00    -0.283 OA
ATOM     17  C   UNL     1      -1.314   2.768  -0.246  0.00  0.00    +0.239 C 
ENDBRANCH  12  17
ENDBRANCH   5   7
BRANCH   2  18
ATOM     18  O   UNL     1       1.510  -4.169  -0.147  0.00  0.00    -0.382 OA
ATOM     19  H   UNL     1       2.435  -4.407   0.027  0.00  0.00    +0.210 HD
ENDBRANCH   2  18
BRANCH   3  20
ATOM     20  C   UNL     1       2.465  -0.570  -0.382  0.00  0.00    +0.186 C 
BRANCH  20  21
ATOM     21  O   UNL     1       2.840   0.348   0.632  0.00  0.00    -0.271 OA
BRANCH  21  22
ATOM     22  P   UNL     1       3.473   1.770   0.190  0.00  0.00    +0.473 P 
ATOM     23  O   UNL     1       3.841   2.681   1.324  0.00  0.00    -0.227 OA
BRANCH  22  24
ATOM     24  O   UNL     1       2.388   2.365  -0.851  0.00  0.00    -0.303 OA
ATOM     25  H   UNL     1       2.213   1.711  -1.546  0.00  0.00    +0.222 HD
ENDBRANCH  22  24
BRANCH  22  26
ATOM     26  O   UNL     1       4.704   1.335  -0.764  0.00  0.00    -0.303 OA
ATOM     27  H   UNL     1       4.378   0.750  -1.466  0.00  0.00    +0.222 HD
ENDBRANCH  22  26
ENDBRANCH  21  22
ENDBRANCH  20  21
ENDBRANCH   3  20
TORSDOF 8
