REMARK  Name = 5288133
REMARK  11 active torsions:
REMARK  status: ('A' for Active; 'I' for Inactive)
REMARK    1  A    between atoms: C_2  and  C_24
REMARK    2  A    between atoms: C_9  and  O_16
REMARK    3  A    between atoms: C_12  and  O_18
REMARK    4  A    between atoms: C_13  and  C_20
REMARK    5  A    between atoms: C_20  and  C_22
REMARK    6  A    between atoms: C_24  and  O_25
REMARK    7  A    between atoms: C_24  and  C_28
REMARK    8  A    between atoms: C_28  and  C_29
REMARK    9  A    between atoms: C_29  and  O_30
REMARK   10  A    between atoms: C_29  and  C_32
REMARK   11  A    between atoms: C_32  and  O_34
REMARK                            x       y       z     vdW  Elec       q    Type
REMARK                         _______ _______ _______ _____ _____    ______ ____
ROOT
ATOM      1  O   UNL     1      -0.016   3.356  -0.837  0.00  0.00    -0.291 OA
ATOM      2  C   UNL     1      -2.388   0.741   0.008  0.00  0.00    +0.047 C 
ATOM      3  C   UNL     1      -1.493  -0.132   0.892  0.00  0.00    +0.030 C 
ATOM      4  C   UNL     1      -1.906   2.190   0.053  0.00  0.00    +0.072 C 
ATOM      5  C   UNL     1      -0.045   0.000   0.501  0.00  0.00    -0.016 C 
ATOM      6  C   UNL     1       0.452   1.168  -0.089  0.00  0.00    +0.064 C 
ATOM      7  C   UNL     1      -0.453   2.316  -0.352  0.00  0.00    +0.176 C 
ATOM      8  C   UNL     1       0.840  -1.054   0.772  0.00  0.00    -0.004 C 
ATOM      9  C   UNL     1       1.808   1.270  -0.427  0.00  0.00    +0.139 C 
ATOM     10  C   UNL     1       2.692   0.210  -0.170  0.00  0.00    +0.067 C 
ATOM     11  C   UNL     1       2.202  -0.967   0.440  0.00  0.00    +0.006 C 
ATOM     12  C   UNL     1       4.054   0.295  -0.502  0.00  0.00    +0.132 C 
ATOM     13  C   UNL     1       4.920  -0.766  -0.236  0.00  0.00    +0.011 C 
ATOM     14  C   UNL     1       3.088  -2.025   0.702  0.00  0.00    -0.000 C 
ATOM     15  C   UNL     1       4.438  -1.924   0.365  0.00  0.00    -0.001 C 
ENDROOT
BRANCH   9  16
ATOM     16  O   UNL     1       2.270   2.415  -1.015  0.00  0.00    -0.505 OA
ATOM     17  H   UNL     1       1.681   3.124  -1.187  0.00  0.00    +0.292 HD
ENDBRANCH   9  16
BRANCH  12  18
ATOM     18  O   UNL     1       4.595   1.404  -1.092  0.00  0.00    -0.506 OA
ATOM     19  H   UNL     1       4.053   2.141  -1.290  0.00  0.00    +0.292 HD
ENDBRANCH  12  18
BRANCH  13  20
ATOM     20  C   UNL     1       6.370  -0.684  -0.587  0.00  0.00    +0.025 C 
ATOM     21  C   UNL     1       6.759  -1.745  -1.636  0.00  0.00    +0.005 C 
BRANCH  20  22
ATOM     22  C   UNL     1       7.328  -0.816   0.628  0.00  0.00    +0.004 C 
ATOM     23  C   UNL     1       7.070   0.236   1.699  0.00  0.00    +0.000 C 
ENDBRANCH  20  22
ENDBRANCH  13  20
BRANCH   2  24
ATOM     24  C   UNL     1      -3.847   0.642   0.449  0.00  0.00    +0.175 C 
BRANCH  24  25
ATOM     25  O   UNL     1      -3.914   1.103   1.786  0.00  0.00    -0.346 OA
ATOM     26  C   UNL     1      -5.246   1.075   2.287  0.00  0.00    +0.175 C 
ENDBRANCH  24  25
BRANCH  24  28
ATOM     27  O   UNL     1      -4.218  -1.551   1.345  0.00  0.00    -0.291 OA
ATOM     28  C   UNL     1      -4.355  -0.791   0.384  0.00  0.00    +0.206 C 
BRANCH  28  29
ATOM     29  C   UNL     1      -5.050  -1.257  -0.898  0.00  0.00    +0.197 C 
BRANCH  29  30
ATOM     30  O   UNL     1      -5.355  -2.639  -0.765  0.00  0.00    -0.375 OA
ATOM     31  H   UNL     1      -4.541  -3.134  -0.582  0.00  0.00    +0.211 HD
ENDBRANCH  29  30
BRANCH  29  32
ATOM     32  C   UNL     1      -6.335  -0.476  -1.187  0.00  0.00    +0.145 C 
ATOM     33  C   UNL     1      -7.043  -0.975  -2.442  0.00  0.00    +0.035 C 
BRANCH  32  34
ATOM     34  O   UNL     1      -7.226  -0.615  -0.080  0.00  0.00    -0.382 OA
ATOM     35  H   UNL     1      -6.789  -0.301   0.728  0.00  0.00    +0.210 HD
ENDBRANCH  32  34
ENDBRANCH  29  32
ENDBRANCH  28  29
ENDBRANCH  24  28
ENDBRANCH   2  24
TORSDOF 11
