REMARK  Name = 445840
REMARK  1 active torsions:
REMARK  status: ('A' for Active; 'I' for Inactive)
REMARK    1  A    between atoms: C_10  and  N_15
REMARK                            x       y       z     vdW  Elec       q    Type
REMARK                         _______ _______ _______ _____ _____    ______ ____
ROOT
ATOM      1  O   UNL     1      -5.579  -0.447   0.075  0.00  0.00    -0.270 OA
ATOM      2  N   UNL     1      -3.869   1.148   0.369  0.00  0.00    -0.274 N 
ATOM      3  C   UNL     1      -2.416   1.159   0.408  0.00  0.00    +0.100 C 
ATOM      4  C   UNL     1      -2.079   2.212  -0.636  0.00  0.00    +0.026 C 
ATOM      5  C   UNL     1      -3.195   3.246  -0.413  0.00  0.00    +0.024 C 
ATOM      6  C   UNL     1      -4.431   2.404  -0.085  0.00  0.00    +0.094 C 
ATOM      7  C   UNL     1      -2.090  -0.270   0.161  0.00  0.00    +0.014 C 
ATOM      8  C   UNL     1      -3.267  -1.029   0.114  0.00  0.00    +0.052 C 
ATOM      9  C   UNL     1      -4.417  -0.114   0.211  0.00  0.00    +0.249 C 
ATOM     10  C   UNL     1      -0.859  -0.884   0.033  0.00  0.00    +0.049 C 
ATOM     11  C   UNL     1      -3.265  -2.397  -0.074  0.00  0.00    +0.004 C 
ATOM     12  C   UNL     1      -0.831  -2.270  -0.152  0.00  0.00    +0.014 C 
ATOM     13  C   UNL     1      -2.022  -3.019  -0.204  0.00  0.00    +0.001 C 
ENDROOT
BRANCH  10  15
ATOM     14  O   UNL     1       1.976  -1.802  -0.171  0.00  0.00    -0.252 OA
ATOM     15  N   UNL     1       0.328  -0.157   0.095  0.00  0.00    -0.268 N 
ATOM     16  N   UNL     1       2.559   0.446   0.111  0.00  0.00    -0.253 N 
ATOM     17  C   UNL     1       1.661  -0.627  -0.006  0.00  0.00    +0.309 C 
ATOM     18  H   UNL     1       0.227   0.814   0.227  0.00  0.00    +0.156 HD
ATOM     19  H   UNL     1       2.156   1.334   0.241  0.00  0.00    +0.158 HD
ATOM     20  N   UNL     1       4.565  -0.788  -0.110  0.00  0.00    -0.229 NA
ATOM     21  C   UNL     1       3.973   0.406   0.065  0.00  0.00    +0.135 C 
ATOM     22  C   UNL     1       4.635   1.608   0.207  0.00  0.00    +0.035 C 
ATOM     23  C   UNL     1       6.024   1.580   0.164  0.00  0.00    +0.004 C 
ATOM     24  C   UNL     1       5.916  -0.775  -0.147  0.00  0.00    +0.100 C 
ATOM     25  C   UNL     1       6.685   0.370  -0.016  0.00  0.00    +0.021 C 
ENDBRANCH  10  15
TORSDOF 1
