REMARK  Name = 7047041
REMARK  4 active torsions:
REMARK  status: ('A' for Active; 'I' for Inactive)
REMARK    1  A    between atoms: CA_1  and  N_2
REMARK    2  A    between atoms: CA_1  and  C_8
REMARK    3  A    between atoms: CA_1  and  C_9
REMARK    4  A    between atoms: C_9  and  C_11
REMARK                            x       y       z     vdW  Elec       q    Type
REMARK                         _______ _______ _______ _____ _____    ______ ____
ROOT
ATOM      1  CA  UNL     1      -2.198   0.592   0.355  0.00  0.00    +0.045 C 
ENDROOT
BRANCH   1   2
ATOM      2  N   UNL     1      -3.529   1.220   0.080  0.00  0.00    +0.389 N 
ATOM      3  H1  UNL     1      -3.438   2.236   0.111  0.00  0.00    -0.088 HD
ATOM      4  H2  UNL     1      -4.200   0.918   0.786  0.00  0.00    -0.088 HD
ATOM      5  H3  UNL     1      -3.855   0.936  -0.843  0.00  0.00    -0.088 HD
ENDBRANCH   1   2
BRANCH   1   8
ATOM      6  O   UNL     1      -2.569  -1.432  -0.805  0.00  0.00    -0.248 OA
ATOM      7  OXT UNL     1      -2.023  -1.526   1.413  0.00  0.00    -0.248 OA
ATOM      8  C   UNL     1      -2.273  -0.942   0.322  0.00  0.00    +0.345 C 
ENDBRANCH   1   8
BRANCH   1   9
ATOM      9  C   UNL     1      -1.208   1.141  -0.679  0.00  0.00    +0.016 C 
BRANCH   9  11
ATOM     10  I   UNL     1       4.763  -0.749   0.418  0.00  0.00    -0.043 I 
ATOM     11  C   UNL     1       0.211   0.692  -0.421  0.00  0.00    -0.024 C 
ATOM     12  C   UNL     1       1.029   1.464   0.387  0.00  0.00    -0.004 C 
ATOM     13  C   UNL     1       0.667  -0.483  -0.996  0.00  0.00    -0.004 C 
ATOM     14  C   UNL     1       2.339   1.050   0.627  0.00  0.00    +0.005 C 
ATOM     15  C   UNL     1       1.977  -0.897  -0.756  0.00  0.00    +0.005 C 
ATOM     16  C   UNL     1       2.813  -0.131   0.056  0.00  0.00    +0.030 C 
ENDBRANCH   9  11
ENDBRANCH   1   9
TORSDOF 4
