REMARK  Name = 4437
REMARK  3 active torsions:
REMARK  status: ('A' for Active; 'I' for Inactive)
REMARK    1  A    between atoms: C_3  and  S_11
REMARK    2  A    between atoms: C_4  and  S_15
REMARK    3  A    between atoms: C_9  and  S_19
REMARK                            x       y       z     vdW  Elec       q    Type
REMARK                         _______ _______ _______ _____ _____    ______ ____
ROOT
ATOM      1  C   UNL     1       0.112   0.741   0.000  0.00  0.00    +0.018 C 
ATOM      2  C   UNL     1       0.370  -0.651   0.000  0.00  0.00    +0.004 C 
ATOM      3  C   UNL     1      -1.218   1.192   0.000  0.00  0.00    +0.114 C 
ATOM      4  C   UNL     1      -2.024  -1.083   0.000  0.00  0.00    +0.114 C 
ATOM      5  C   UNL     1      -0.709  -1.550   0.000  0.00  0.00    +0.019 C 
ATOM      6  C   UNL     1      -2.278   0.285   0.000  0.00  0.00    +0.038 C 
ATOM      7  C   UNL     1       1.700  -1.103   0.000  0.00  0.00    +0.019 C 
ATOM      8  C   UNL     1       1.191   1.639   0.000  0.00  0.00    +0.003 C 
ATOM      9  C   UNL     1       2.760  -0.195   0.000  0.00  0.00    +0.112 C 
ATOM     10  C   UNL     1       2.506   1.173   0.000  0.00  0.00    +0.019 C 
ENDROOT
BRANCH   3  11
ATOM     11  S   UNL     1      -1.645   2.897   0.000  0.00  0.00    +0.042 S 
ATOM     12  O   UNL     1      -1.253   3.344  -1.343  0.00  0.00    -0.065 OA
ATOM     13  O   UNL     1      -3.092   2.937   0.244  0.00  0.00    -0.065 OA
ATOM     14  O   UNL     1      -0.840   3.450   1.096  0.00  0.00    -0.065 OA
ENDBRANCH   3  11
BRANCH   4  15
ATOM     15  S   UNL     1      -3.352  -2.218   0.001  0.00  0.00    +0.042 S 
ATOM     16  O   UNL     1      -3.618  -2.445   1.429  0.00  0.00    -0.065 OA
ATOM     17  O   UNL     1      -4.454  -1.546  -0.706  0.00  0.00    -0.065 OA
ATOM     18  O   UNL     1      -2.818  -3.386  -0.716  0.00  0.00    -0.065 OA
ENDBRANCH   4  15
BRANCH   9  19
ATOM     19  S   UNL     1       4.406  -0.777   0.000  0.00  0.00    +0.042 S 
ATOM     20  O   UNL     1       4.736  -0.894  -1.429  0.00  0.00    -0.065 OA
ATOM     21  O   UNL     1       5.193   0.247   0.706  0.00  0.00    -0.065 OA
ATOM     22  O   UNL     1       4.328  -2.058   0.718  0.00  0.00    -0.065 OA
ENDBRANCH   9  19
TORSDOF 3
