REMARK  Name = 439554
REMARK  4 active torsions:
REMARK  status: ('A' for Active; 'I' for Inactive)
REMARK    1  A    between atoms: C_2  and  O_8
REMARK    2  A    between atoms: C_3  and  O_10
REMARK    3  A    between atoms: C_4  and  O_12
REMARK    4  A    between atoms: C_6  and  O_14
REMARK                            x       y       z     vdW  Elec       q    Type
REMARK                         _______ _______ _______ _____ _____    ______ ____
ROOT
ATOM      1  O   UNL     1       0.887  -1.210  -0.609  0.00  0.00    -0.329 OA
ATOM      2  C   UNL     1      -0.704   0.896   0.537  0.00  0.00    +0.171 C 
ATOM      3  C   UNL     1       0.818   1.012   0.404  0.00  0.00    +0.167 C 
ATOM      4  C   UNL     1      -1.265  -0.074  -0.502  0.00  0.00    +0.196 C 
ATOM      5  C   UNL     1       1.465  -0.381   0.411  0.00  0.00    +0.147 C 
ATOM      6  C   UNL     1      -0.521  -1.412  -0.453  0.00  0.00    +0.262 C 
ATOM      7  C   UNL     1       2.966  -0.326   0.154  0.00  0.00    +0.035 C 
ENDROOT
BRANCH   2   8
ATOM      8  O   UNL     1      -1.309   2.175   0.365  0.00  0.00    -0.379 OA
ATOM      9  H   UNL     1      -0.954   2.792   1.024  0.00  0.00    +0.211 HD
ENDBRANCH   2   8
BRANCH   3  10
ATOM     10  O   UNL     1       1.146   1.695  -0.808  0.00  0.00    -0.379 OA
ATOM     11  H   UNL     1       0.734   2.573  -0.805  0.00  0.00    +0.211 HD
ENDBRANCH   3  10
BRANCH   4  12
ATOM     12  O   UNL     1      -2.654  -0.276  -0.259  0.00  0.00    -0.378 OA
ATOM     13  H   UNL     1      -3.115   0.577  -0.293  0.00  0.00    +0.211 HD
ENDBRANCH   4  12
BRANCH   6  14
ATOM     14  O   UNL     1      -0.829  -2.100   0.758  0.00  0.00    -0.358 OA
ATOM     15  H   UNL     1      -0.354  -2.945   0.780  0.00  0.00    +0.213 HD
ENDBRANCH   6  14
TORSDOF 4
