REMARK  Name = 7410
REMARK  1 active torsions:
REMARK  status: ('A' for Active; 'I' for Inactive)
REMARK    1  A    between atoms: C_1  and  C_8
REMARK                            x       y       z     vdW  Elec       q    Type
REMARK                         _______ _______ _______ _____ _____    ______ ____
ROOT
ATOM      1  C   UNL     1       0.286  -0.044   0.000  0.00  0.00    +0.035 C 
ATOM      2  C   UNL     1      -0.363   1.191   0.000  0.00  0.00    +0.003 C 
ATOM      3  C   UNL     1      -0.459  -1.223   0.000  0.00  0.00    +0.003 C 
ATOM      4  C   UNL     1      -1.757   1.246   0.000  0.00  0.00    +0.000 C 
ATOM      5  C   UNL     1      -1.853  -1.168   0.000  0.00  0.00    +0.000 C 
ATOM      6  C   UNL     1      -2.502   0.067   0.000  0.00  0.00    +0.000 C 
ENDROOT
BRANCH   1   8
ATOM      7  O   UNL     1       2.382  -1.163   0.000  0.00  0.00    -0.291 OA
ATOM      8  C   UNL     1       1.738  -0.102   0.000  0.00  0.00    +0.173 C 
ATOM      9  C   UNL     1       2.528   1.196   0.000  0.00  0.00    +0.077 C 
ENDBRANCH   1   8
TORSDOF 1
