REMARK  Name = 5289179
REMARK  4 active torsions:
REMARK  status: ('A' for Active; 'I' for Inactive)
REMARK    1  A    between atoms: C_3  and  C_14
REMARK    2  A    between atoms: C_6  and  C_22
REMARK    3  A    between atoms: C_14  and  C_15
REMARK    4  A    between atoms: C_22  and  C_25
REMARK                            x       y       z     vdW  Elec       q    Type
REMARK                         _______ _______ _______ _____ _____    ______ ____
ROOT
ATOM      1  N   UNL     1      -0.928   1.171   0.053  0.00  0.00    -0.249 N 
ATOM      2  N   UNL     1      -1.565   3.052  -0.976  0.00  0.00    -0.375 NA
ATOM      3  C   UNL     1      -2.277   1.293   0.268  0.00  0.00    +0.208 C 
ATOM      4  C   UNL     1      -0.539   2.268  -0.711  0.00  0.00    +0.189 C 
ATOM      5  C   UNL     1      -0.050   0.177   0.480  0.00  0.00    +0.071 C 
ATOM      6  C   UNL     1       1.247   0.273   0.141  0.00  0.00    +0.054 C 
ATOM      7  C   UNL     1      -2.642   2.454  -0.372  0.00  0.00    +0.182 C 
ATOM      8  C   UNL     1       0.839   2.358  -1.064  0.00  0.00    +0.048 C 
ATOM      9  C   UNL     1       1.698   1.403  -0.657  0.00  0.00    +0.008 C 
ATOM     10  N   UNL     1      -3.887   2.977  -0.429  0.00  0.00    -0.335 N 
ATOM     11  H   UNL     1      -4.046   3.817  -0.916  0.00  0.00    +0.144 HD
ATOM     12  H   UNL     1      -4.635   2.516   0.016  0.00  0.00    +0.144 HD
ENDROOT
BRANCH   3  14
ATOM     13  O   UNL     1      -3.320   0.468   2.236  0.00  0.00    -0.289 OA
ATOM     14  C   UNL     1      -3.090   0.381   1.011  0.00  0.00    +0.200 C 
BRANCH  14  15
ATOM     15  C   UNL     1      -3.765  -0.781   0.346  0.00  0.00    +0.037 C 
ATOM     16  C   UNL     1      -3.575  -0.963  -1.001  0.00  0.00    +0.003 C 
ATOM     17  C   UNL     1      -4.545  -1.609   1.115  0.00  0.00    +0.003 C 
ATOM     18  C   UNL     1      -4.204  -2.044  -1.619  0.00  0.00    +0.000 C 
ATOM     19  C   UNL     1      -5.174  -2.690   0.497  0.00  0.00    +0.000 C 
ATOM     20  C   UNL     1      -5.003  -2.907  -0.871  0.00  0.00    +0.000 C 
ENDBRANCH  14  15
ENDBRANCH   3  14
BRANCH   6  22
ATOM     21  O   UNL     1       1.772  -1.727   1.246  0.00  0.00    -0.286 OA
ATOM     22  C   UNL     1       2.174  -0.766   0.588  0.00  0.00    +0.201 C 
BRANCH  22  25
ATOM     23  F   UNL     1       4.040   0.564   2.205  0.00  0.00    -0.204 F 
ATOM     24  F   UNL     1       3.192  -1.898  -1.768  0.00  0.00    -0.204 F 
ATOM     25  C   UNL     1       3.612  -0.667   0.219  0.00  0.00    +0.094 C 
ATOM     26  C   UNL     1       4.470   0.004   1.065  0.00  0.00    +0.145 C 
ATOM     27  C   UNL     1       4.038  -1.249  -0.956  0.00  0.00    +0.145 C 
ATOM     28  C   UNL     1       5.818   0.097   0.719  0.00  0.00    +0.030 C 
ATOM     29  C   UNL     1       5.386  -1.155  -1.301  0.00  0.00    +0.030 C 
ATOM     30  C   UNL     1       6.276  -0.482  -0.464  0.00  0.00    +0.005 C 
ENDBRANCH  22  25
ENDBRANCH   6  22
TORSDOF 4
