REMARK  Name = 14925
REMARK  8 active torsions:
REMARK  status: ('A' for Active; 'I' for Inactive)
REMARK    1  A    between atoms: C_1  and  C_3
REMARK    2  A    between atoms: C_1  and  C_6
REMARK    3  A    between atoms: C_1  and  C_11
REMARK    4  A    between atoms: C_3  and  O_4
REMARK    5  A    between atoms: C_6  and  C_8
REMARK    6  A    between atoms: C_8  and  O_9
REMARK    7  A    between atoms: C_11  and  C_13
REMARK    8  A    between atoms: C_13  and  O_14
REMARK                            x       y       z     vdW  Elec       q    Type
REMARK                         _______ _______ _______ _____ _____    ______ ____
ROOT
ATOM      1  C   UNL     1       0.106  -0.398  -0.241  0.00  0.00    +0.121 C 
ENDROOT
BRANCH   1   3
ATOM      2  O   UNL     1      -1.212  -1.948   1.069  0.00  0.00    -0.250 OA
ATOM      3  C   UNL     1      -0.932  -1.493  -0.035  0.00  0.00    +0.314 C 
BRANCH   3   4
ATOM      4  O   UNL     1      -1.521  -1.927  -1.175  0.00  0.00    -0.480 OA
ATOM      5  H   UNL     1      -1.279  -1.554  -1.999  0.00  0.00    +0.295 HD
ENDBRANCH   3   4
ENDBRANCH   1   3
BRANCH   1   6
ATOM      6  C   UNL     1      -0.305   0.892   0.480  0.00  0.00    +0.121 C 
BRANCH   6   8
ATOM      7  O   UNL     1      -1.938   1.649  -1.134  0.00  0.00    -0.250 OA
ATOM      8  C   UNL     1      -1.668   1.356   0.024  0.00  0.00    +0.314 C 
BRANCH   8   9
ATOM      9  O   UNL     1      -2.575   1.389   1.032  0.00  0.00    -0.480 OA
ATOM     10  H   UNL     1      -2.317   1.155   1.902  0.00  0.00    +0.295 HD
ENDBRANCH   8   9
ENDBRANCH   6   8
ENDBRANCH   1   6
BRANCH   1  11
ATOM     11  C   UNL     1       1.495  -0.871   0.206  0.00  0.00    +0.121 C 
BRANCH  11  13
ATOM     12  O   UNL     1       2.783   0.624  -1.190  0.00  0.00    -0.250 OA
ATOM     13  C   UNL     1       2.553   0.169  -0.077  0.00  0.00    +0.314 C 
BRANCH  13  14
ATOM     14  O   UNL     1       3.214   0.559   1.041  0.00  0.00    -0.480 OA
ATOM     15  H   UNL     1       2.999   0.178   1.870  0.00  0.00    +0.295 HD
ENDBRANCH  13  14
ENDBRANCH  11  13
ENDBRANCH   1  11
TORSDOF 8
