REMARK  Name = 446165
REMARK  11 active torsions:
REMARK  status: ('A' for Active; 'I' for Inactive)
REMARK    1  A    between atoms: S_1  and  C_4
REMARK    2  A    between atoms: S_1  and  N_18
REMARK    3  A    between atoms: C_5  and  C_10
REMARK    4  A    between atoms: C_15  and  O_16
REMARK    5  A    between atoms: N_18  and  C_20
REMARK    6  A    between atoms: C_20  and  C_22
REMARK    7  A    between atoms: C_20  and  C_25
REMARK    8  A    between atoms: C_22  and  O_23
REMARK    9  A    between atoms: C_25  and  C_26
REMARK   10  A    between atoms: C_27  and  C_28
REMARK   11  A    between atoms: C_28  and  O_29
REMARK                            x       y       z     vdW  Elec       q    Type
REMARK                         _______ _______ _______ _____ _____    ______ ____
ROOT
ATOM      1  S   UNL     1       2.960   1.656   0.897  0.00  0.00    +0.061 S 
ATOM      2  O   UNL     1       3.475   2.526  -0.143  0.00  0.00    -0.153 OA
ATOM      3  O   UNL     1       3.101   2.025   2.292  0.00  0.00    -0.153 OA
ENDROOT
BRANCH   1   4
ATOM      4  C   UNL     1       1.234   1.413   0.600  0.00  0.00    +0.122 C 
ATOM      5  C   UNL     1      -1.468   1.033   0.135  0.00  0.00    +0.000 C 
ATOM      6  C   UNL     1       0.405   1.092   1.661  0.00  0.00    +0.020 C 
ATOM      7  C   UNL     1       0.744   1.549  -0.687  0.00  0.00    +0.020 C 
ATOM      8  C   UNL     1      -0.957   0.900   1.426  0.00  0.00    +0.001 C 
ATOM      9  C   UNL     1      -0.618   1.358  -0.922  0.00  0.00    +0.001 C 
BRANCH   5  10
ATOM     10  C   UNL     1      -2.881   0.834  -0.108  0.00  0.00    +0.000 C 
ATOM     11  C   UNL     1      -3.608  -0.046   0.693  0.00  0.00    +0.003 C 
ATOM     12  C   UNL     1      -3.514   1.523  -1.142  0.00  0.00    +0.003 C 
ATOM     13  C   UNL     1      -4.970  -0.238   0.459  0.00  0.00    +0.037 C 
ATOM     14  C   UNL     1      -4.876   1.332  -1.375  0.00  0.00    +0.037 C 
ATOM     15  C   UNL     1      -5.604   0.451  -0.575  0.00  0.00    +0.139 C 
BRANCH  15  16
ATOM     16  O   UNL     1      -6.933   0.265  -0.802  0.00  0.00    -0.471 OA
ATOM     17  C   UNL     1      -7.616  -0.650   0.054  0.00  0.00    +0.252 C 
ENDBRANCH  15  16
ENDBRANCH   5  10
ENDBRANCH   1   4
BRANCH   1  18
ATOM     18  N   UNL     1       3.577   0.089   0.680  0.00  0.00    -0.169 NA
ATOM     19  H   UNL     1       2.845  -0.559   0.973  0.00  0.00    +0.149 HD
BRANCH  18  20
ATOM     20  C   UNL     1       4.025  -0.348  -0.664  0.00  0.00    +0.186 C 
BRANCH  20  22
ATOM     21  O   UNL     1       6.136   0.614   0.082  0.00  0.00    -0.249 OA
ATOM     22  C   UNL     1       5.468   0.086  -0.798  0.00  0.00    +0.331 C 
BRANCH  22  23
ATOM     23  O   UNL     1       5.965  -0.185  -2.034  0.00  0.00    -0.479 OA
ATOM     24  H   UNL     1       5.420  -0.591  -2.679  0.00  0.00    +0.295 HD
ENDBRANCH  22  23
ENDBRANCH  20  22
BRANCH  20  25
ATOM     25  C   UNL     1       3.894  -1.865  -0.794  0.00  0.00    +0.105 C 
BRANCH  25  26
ATOM     26  C   UNL     1       2.505  -2.311  -0.610  0.00  0.00    -0.087 C 
ATOM     27  C   UNL     1       1.371  -2.676  -0.458  0.00  0.00    -0.058 C 
BRANCH  27  28
ATOM     28  C   UNL     1      -0.011  -3.118  -0.275  0.00  0.00    +0.218 C 
BRANCH  28  29
ATOM     29  O   UNL     1      -0.234  -3.437   1.092  0.00  0.00    -0.337 OA
ATOM     30  C   UNL     1      -1.568  -3.873   1.315  0.00  0.00    +0.176 C 
ENDBRANCH  28  29
ENDBRANCH  27  28
ENDBRANCH  25  26
ENDBRANCH  20  25
ENDBRANCH  18  20
ENDBRANCH   1  18
TORSDOF 11
