REMARK  Name = 1535935
REMARK  3 active torsions:
REMARK  status: ('A' for Active; 'I' for Inactive)
REMARK    1  A    between atoms: N_2  and  CA_8
REMARK    2  A    between atoms: CA_8  and  C_11
REMARK    3  A    between atoms: C_11  and  O_12
REMARK                            x       y       z     vdW  Elec       q    Type
REMARK                         _______ _______ _______ _____ _____    ______ ____
ROOT
ATOM      1  O   UNL     1       2.249   0.856  -0.866  0.00  0.00    -0.253 OA
ATOM      2  N   UNL     1       0.604  -0.300   0.305  0.00  0.00    -0.281 N 
ATOM      3  N   UNL     1       2.796  -1.001   0.368  0.00  0.00    -0.313 N 
ATOM      4  C   ACE A   0       1.905  -0.066  -0.128  0.00  0.00    +0.298 C 
ATOM      5  H   UNL     1       0.441  -1.070   0.896  0.00  0.00    +0.151 HD
ATOM      6  H   UNL     1       3.750  -0.945   0.134  0.00  0.00    +0.146 HD
ATOM      7  H   UNL     1       2.475  -1.723   0.956  0.00  0.00    +0.146 HD
ENDROOT
BRANCH   2   8
ATOM      8  CA  UNL     1      -0.517   0.524  -0.064  0.00  0.00    +0.172 C 
ATOM      9  CB  UNL     1      -0.693   1.657   0.936  0.00  0.00    +0.033 C 
BRANCH   8  11
ATOM     10  OXT UNL     1      -2.865   0.202  -0.542  0.00  0.00    -0.248 OA
ATOM     11  C   UNL     1      -1.800  -0.284  -0.178  0.00  0.00    +0.332 C 
BRANCH  11  12
ATOM     12  O   UNL     1      -1.680  -1.588   0.168  0.00  0.00    -0.479 OA
ATOM     13  H   UNL     1      -0.850  -1.926   0.442  0.00  0.00    +0.295 HD
ENDBRANCH  11  12
ENDBRANCH   8  11
ENDBRANCH   2   8
TORSDOF 3
