REMARK  Name = 100684
REMARK  0 active torsions:
REMARK  status: ('A' for Active; 'I' for Inactive)
REMARK                            x       y       z     vdW  Elec       q    Type
REMARK                         _______ _______ _______ _____ _____    ______ ____
ROOT
ATOM      1  O   UNL     1      -0.242   2.622   0.000  0.00  0.00    -0.208 OA
ATOM      2  N   UNL     1      -0.710  -1.431  -0.001  0.00  0.00    -0.274 N 
ATOM      3  N   UNL     1       2.038   0.703   0.001  0.00  0.00    -0.301 N 
ATOM      4  N   UNL     1      -1.651   0.796   0.000  0.00  0.00    -0.301 NA
ATOM      5  N   UNL     1      -2.990  -1.127   0.001  0.00  0.00    -0.320 N 
ATOM      6  C   UNL     1       0.525  -0.901   0.000  0.00  0.00    +0.078 C 
ATOM      7  C   UNL     1       0.690   0.462   0.000  0.00  0.00    +0.158 C 
ATOM      8  C   UNL     1       1.786  -1.519   0.000  0.00  0.00    +0.033 C 
ATOM      9  C   UNL     1       2.714  -0.496   0.000  0.00  0.00    +0.064 C 
ATOM     10  C   UNL     1      -0.400   1.407   0.000  0.00  0.00    +0.222 C 
ATOM     11  C   UNL     1      -1.759  -0.515   0.000  0.00  0.00    +0.248 C 
ATOM     12  H   UNL     1      -0.863  -2.404  -0.001  0.00  0.00    +0.156 HD
ATOM     13  H   UNL     1       2.458   1.594   0.002  0.00  0.00    +0.153 HD
ATOM     14  H   UNL     1      -3.052  -2.109   0.001  0.00  0.00    +0.146 HD
ATOM     15  H   UNL     1      -3.810  -0.582   0.001  0.00  0.00    +0.146 HD
ENDROOT
TORSDOF 0
