REMARK  Name = 5288545
REMARK  7 active torsions:
REMARK  status: ('A' for Active; 'I' for Inactive)
REMARK    1  A    between atoms: C_1  and  C_13
REMARK    2  A    between atoms: C_3  and  O_7
REMARK    3  A    between atoms: C_5  and  O_9
REMARK    4  A    between atoms: C_6  and  O_11
REMARK    5  A    between atoms: C_14  and  C_15
REMARK    6  A    between atoms: C_15  and  O_16
REMARK    7  A    between atoms: C_15  and  O_18
REMARK                            x       y       z     vdW  Elec       q    Type
REMARK                         _______ _______ _______ _____ _____    ______ ____
ROOT
ATOM      1  C   UNL     1      -0.255   0.616   0.145  0.00  0.00    +0.006 C 
ATOM      2  C   UNL     1       0.251  -0.675   0.293  0.00  0.00    +0.040 C 
ATOM      3  C   UNL     1       1.628  -0.893   0.261  0.00  0.00    +0.175 C 
ATOM      4  C   UNL     1       0.616   1.690  -0.035  0.00  0.00    +0.040 C 
ATOM      5  C   UNL     1       2.500   0.181   0.081  0.00  0.00    +0.202 C 
ATOM      6  C   UNL     1       1.994   1.473  -0.068  0.00  0.00    +0.171 C 
ENDROOT
BRANCH   3   7
ATOM      7  O   UNL     1       2.110  -2.159   0.407  0.00  0.00    -0.468 OA
ATOM      8  C   UNL     1       2.283  -2.927  -0.782  0.00  0.00    +0.253 C 
ENDBRANCH   3   7
BRANCH   5   9
ATOM      9  O   UNL     1       3.846  -0.031   0.049  0.00  0.00    -0.501 OA
ATOM     10  H   UNL     1       4.186  -0.899   0.149  0.00  0.00    +0.292 HD
ENDBRANCH   5   9
BRANCH   6  11
ATOM     11  O   UNL     1       2.834   2.530  -0.244  0.00  0.00    -0.503 OA
ATOM     12  H   UNL     1       2.486   3.394  -0.343  0.00  0.00    +0.292 HD
ENDBRANCH   6  11
BRANCH   1  13
ATOM     13  C   UNL     1      -1.691   0.843   0.179  0.00  0.00    +0.001 C 
ATOM     14  C   UNL     1      -2.646  -0.092  -0.034  0.00  0.00    +0.034 C 
BRANCH  14  15
ATOM     15  C   UNL     1      -4.117   0.192   0.002  0.00  0.00    +0.253 C 
BRANCH  15  16
ATOM     16  O   UNL     1      -4.695  -0.616   1.018  0.00  0.00    -0.357 OA
ATOM     17  H   UNL     1      -4.312  -0.379   1.877  0.00  0.00    +0.213 HD
ENDBRANCH  15  16
BRANCH  15  18
ATOM     18  O   UNL     1      -4.659  -0.132  -1.272  0.00  0.00    -0.357 OA
ATOM     19  H   UNL     1      -4.251   0.430  -1.949  0.00  0.00    +0.213 HD
ENDBRANCH  15  18
ENDBRANCH  14  15
ENDBRANCH   1  13
TORSDOF 7
