REMARK  Name = 71166
REMARK  4 active torsions:
REMARK  status: ('A' for Active; 'I' for Inactive)
REMARK    1  A    between atoms: N_2  and  C_10
REMARK    2  A    between atoms: N_3  and  C_24
REMARK    3  A    between atoms: C_12  and  N_18
REMARK    4  A    between atoms: C_26  and  N_32
REMARK                            x       y       z     vdW  Elec       q    Type
REMARK                         _______ _______ _______ _____ _____    ______ ____
ROOT
ATOM      1  O   UNL     1       0.007  -1.640   0.000  0.00  0.00    -0.252 OA
ATOM      2  N   UNL     1      -1.156   0.394  -0.001  0.00  0.00    -0.268 N 
ATOM      3  N   UNL     1       1.154   0.398   0.000  0.00  0.00    -0.268 N 
ATOM      4  C   UNL     1       0.008  -0.413   0.000  0.00  0.00    +0.308 C 
ATOM      5  H   UNL     1      -1.002   1.366  -0.002  0.00  0.00    +0.156 HD
ATOM      6  H   UNL     1       0.995   1.370   0.000  0.00  0.00    +0.156 HD
ENDROOT
BRANCH   2  10
ATOM      7  N   UNL     1      -6.475  -1.238   0.000  0.00  0.00    -0.410 NA
ATOM      8  C   UNL     1      -4.856   0.547  -0.001  0.00  0.00    +0.111 C 
ATOM      9  C   UNL     1      -5.194  -0.822  -0.001  0.00  0.00    +0.118 C 
ATOM     10  C   UNL     1      -2.493  -0.006  -0.002  0.00  0.00    +0.048 C 
ATOM     11  C   UNL     1      -3.508   0.946  -0.002  0.00  0.00    +0.001 C 
ATOM     12  C   UNL     1      -5.898   1.484   0.000  0.00  0.00    +0.031 C 
ATOM     13  C   UNL     1      -4.158  -1.753  -0.001  0.00  0.00    +0.029 C 
ATOM     14  C   UNL     1      -2.818  -1.357  -0.002  0.00  0.00    +0.017 C 
ATOM     15  C   UNL     1      -7.451  -0.302   0.001  0.00  0.00    +0.110 C 
ATOM     16  C   UNL     1      -7.219   1.059   0.001  0.00  0.00    +0.038 C 
ATOM     17  C   UNL     1      -8.856  -0.805   0.003  0.00  0.00    +0.066 C 
BRANCH  12  18
ATOM     18  N   UNL     1      -5.648   2.877   0.000  0.00  0.00    -0.360 N 
ATOM     19  H   UNL     1      -4.722   3.211  -0.001  0.00  0.00    +0.142 HD
ATOM     20  H   UNL     1      -6.400   3.512   0.001  0.00  0.00    +0.142 HD
ENDBRANCH  12  18
ENDBRANCH   2  10
BRANCH   3  24
ATOM     21  N   UNL     1       6.471  -1.238   0.000  0.00  0.00    -0.410 NA
ATOM     22  C   UNL     1       4.854   0.548   0.001  0.00  0.00    +0.111 C 
ATOM     23  C   UNL     1       5.191  -0.822   0.001  0.00  0.00    +0.118 C 
ATOM     24  C   UNL     1       2.509  -0.008   0.002  0.00  0.00    +0.048 C 
ATOM     25  C   UNL     1       3.507   0.948   0.002  0.00  0.00    +0.001 C 
ATOM     26  C   UNL     1       5.897   1.484   0.001  0.00  0.00    +0.031 C 
ATOM     27  C   UNL     1       4.154  -1.751   0.001  0.00  0.00    +0.029 C 
ATOM     28  C   UNL     1       2.814  -1.354   0.001  0.00  0.00    +0.017 C 
ATOM     29  C   UNL     1       7.448  -0.303  -0.001  0.00  0.00    +0.110 C 
ATOM     30  C   UNL     1       7.217   1.058  -0.001  0.00  0.00    +0.038 C 
ATOM     31  C   UNL     1       8.852  -0.808  -0.002  0.00  0.00    +0.066 C 
BRANCH  26  32
ATOM     32  N   UNL     1       5.648   2.877   0.001  0.00  0.00    -0.360 N 
ATOM     33  H   UNL     1       4.722   3.212   0.001  0.00  0.00    +0.142 HD
ATOM     34  H   UNL     1       6.401   3.512   0.000  0.00  0.00    +0.142 HD
ENDBRANCH  26  32
ENDBRANCH   3  24
TORSDOF 4
