REMARK  Name = 71360
REMARK  8 active torsions:
REMARK  status: ('A' for Active; 'I' for Inactive)
REMARK    1  A    between atoms: N_1  and  C_18
REMARK    2  A    between atoms: C_2  and  C_11
REMARK    3  A    between atoms: C_18  and  C_19
REMARK    4  A    between atoms: C_19  and  C_20
REMARK    5  A    between atoms: C_20  and  O_21
REMARK    6  A    between atoms: O_21  and  C_22
REMARK    7  A    between atoms: C_23  and  O_31
REMARK    8  A    between atoms: C_27  and  C_29
REMARK                            x       y       z     vdW  Elec       q    Type
REMARK                         _______ _______ _______ _____ _____    ______ ____
ROOT
ATOM      1  N   UNL     1      -0.369  -2.295   0.063  0.00  0.00    +0.387 N 
ATOM      2  C   UNL     1       2.277  -1.028   0.063  0.00  0.00    +0.039 C 
ATOM      3  C   UNL     1       1.231  -0.754   1.155  0.00  0.00    -0.017 C 
ATOM      4  C   UNL     1       1.576  -1.476  -1.230  0.00  0.00    -0.017 C 
ATOM      5  C   UNL     1       0.286  -1.946   1.331  0.00  0.00    -0.077 C 
ATOM      6  C   UNL     1       0.620  -2.642  -0.968  0.00  0.00    -0.077 C 
ATOM      7  H   UNL     1      -0.886  -1.477  -0.260  0.00  0.00    -0.080 HD
ENDROOT
BRANCH   2  11
ATOM      8  F   UNL     1       8.505   1.506   0.195  0.00  0.00    -0.204 F 
ATOM      9  O   UNL     1       3.818   2.144  -0.677  0.00  0.00    -0.354 OA
ATOM     10  N   UNL     1       2.719   1.300  -0.580  0.00  0.00    -0.081 NA
ATOM     11  C   UNL     1       3.213   0.140  -0.155  0.00  0.00    +0.100 A 
ATOM     12  C   UNL     1       4.602   0.171   0.036  0.00  0.00    +0.054 A 
ATOM     13  C   UNL     1       4.941   1.468  -0.308  0.00  0.00    +0.179 A 
ATOM     14  C   UNL     1       5.612  -0.710   0.451  0.00  0.00    +0.007 C 
ATOM     15  C   UNL     1       6.236   1.975  -0.276  0.00  0.00    +0.070 C 
ATOM     16  C   UNL     1       6.930  -0.232   0.496  0.00  0.00    +0.030 C 
ATOM     17  C   UNL     1       7.234   1.086   0.139  0.00  0.00    +0.143 C 
ENDBRANCH   2  11
BRANCH   1  18
ATOM     18  C   UNL     1      -1.310  -3.398   0.260  0.00  0.00    -0.074 C 
BRANCH  18  19
ATOM     19  C   UNL     1      -2.074  -3.678  -1.029  0.00  0.00    +0.025 C 
BRANCH  19  20
ATOM     20  C   UNL     1      -2.849  -2.454  -1.497  0.00  0.00    +0.203 C 
BRANCH  20  21
ATOM     21  O   UNL     1      -3.787  -2.092  -0.493  0.00  0.00    -0.472 OA
BRANCH  21  22
ATOM     22  C   UNL     1      -4.095  -0.761  -0.385  0.00  0.00    +0.172 C 
ATOM     23  C   UNL     1      -3.853  -0.081   0.804  0.00  0.00    +0.172 C 
ATOM     24  C   UNL     1      -4.652  -0.103  -1.476  0.00  0.00    +0.040 C 
ATOM     25  C   UNL     1      -4.171   1.274   0.902  0.00  0.00    +0.043 C 
ATOM     26  C   UNL     1      -4.970   1.252  -1.378  0.00  0.00    +0.006 C 
ATOM     27  C   UNL     1      -4.730   1.940  -0.189  0.00  0.00    +0.038 C 
BRANCH  27  29
ATOM     28  O   UNL     1      -5.561   3.975  -1.046  0.00  0.00    -0.291 OA
ATOM     29  C   UNL     1      -5.061   3.353  -0.087  0.00  0.00    +0.174 C 
ATOM     30  C   UNL     1      -4.801   4.111   1.210  0.00  0.00    +0.077 C 
ENDBRANCH  27  29
BRANCH  23  31
ATOM     31  O   UNL     1      -3.307  -0.720   1.876  0.00  0.00    -0.468 OA
ATOM     32  C   UNL     1      -4.210  -1.328   2.797  0.00  0.00    +0.253 C 
ENDBRANCH  23  31
ENDBRANCH  21  22
ENDBRANCH  20  21
ENDBRANCH  19  20
ENDBRANCH  18  19
ENDBRANCH   1  18
TORSDOF 8
