REMARK  Name = 5288260
REMARK  6 active torsions:
REMARK  status: ('A' for Active; 'I' for Inactive)
REMARK    1  A    between atoms: C_1  and  N_7
REMARK    2  A    between atoms: C_2  and  N_15
REMARK    3  A    between atoms: N_7  and  C_9
REMARK    4  A    between atoms: N_15  and  C_17
REMARK    5  A    between atoms: C_18  and  C_23
REMARK    6  A    between atoms: C_18  and  C_26
REMARK                            x       y       z     vdW  Elec       q    Type
REMARK                         _______ _______ _______ _____ _____    ______ ____
ROOT
ATOM      1  C   UNL     1      -2.353  -0.982   0.300  0.00  0.00    +0.048 C 
ATOM      2  C   UNL     1       0.408  -0.598   0.148  0.00  0.00    +0.048 C 
ATOM      3  C   UNL     1      -1.508  -2.066   0.057  0.00  0.00    +0.016 C 
ATOM      4  C   UNL     1      -1.814   0.295   0.467  0.00  0.00    +0.016 C 
ATOM      5  C   UNL     1      -0.129  -1.874  -0.019  0.00  0.00    +0.016 C 
ATOM      6  C   UNL     1      -0.434   0.487   0.391  0.00  0.00    +0.016 C 
ENDROOT
BRANCH   1   7
ATOM      7  N   UNL     1      -3.746  -1.175   0.377  0.00  0.00    -0.313 N 
ATOM      8  H   UNL     1      -4.004  -2.065   0.710  0.00  0.00    +0.152 HD
BRANCH   7   9
ATOM      9  C   UNL     1      -4.844  -0.345   0.070  0.00  0.00    +0.048 C 
ATOM     10  C   UNL     1      -6.042  -0.486   0.770  0.00  0.00    +0.015 C 
ATOM     11  C   UNL     1      -4.732   0.618  -0.933  0.00  0.00    +0.015 C 
ATOM     12  C   UNL     1      -7.127   0.336   0.468  0.00  0.00    +0.001 C 
ATOM     13  C   UNL     1      -5.817   1.440  -1.236  0.00  0.00    +0.001 C 
ATOM     14  C   UNL     1      -7.016   1.299  -0.535  0.00  0.00    +0.000 C 
ENDBRANCH   7   9
ENDBRANCH   1   7
BRANCH   2  15
ATOM     15  N   UNL     1       1.803  -0.404   0.071  0.00  0.00    -0.310 N 
ATOM     16  H   UNL     1       2.337  -1.212  -0.103  0.00  0.00    +0.152 HD
BRANCH  15  17
ATOM     17  C   UNL     1       2.504   0.744   0.203  0.00  0.00    +0.083 C 
ATOM     18  C   UNL     1       3.831   0.952   0.125  0.00  0.00    +0.148 C 
BRANCH  18  23
ATOM     19  N   UNL     1       4.526  -1.365  -0.289  0.00  0.00    -0.109 NA
ATOM     20  N   UNL     1       6.104   0.255  -0.170  0.00  0.00    -0.086 NA
ATOM     21  N   UNL     1       5.779  -1.809  -0.461  0.00  0.00    -0.140 N 
ATOM     22  N   UNL     1       6.747  -0.883  -0.398  0.00  0.00    -0.022 NA
ATOM     23  C   UNL     1       4.800  -0.086  -0.115  0.00  0.00    +0.085 C 
ATOM     24  H   UNL     1       5.977  -2.760  -0.623  0.00  0.00    +0.197 HD
ENDBRANCH  18  23
BRANCH  18  26
ATOM     25  N   UNL     1       4.731   3.363   0.423  0.00  0.00    -0.190 NA
ATOM     26  C   UNL     1       4.326   2.284   0.289  0.00  0.00    +0.112 C 
ENDBRANCH  18  26
ENDBRANCH  15  17
ENDBRANCH   2  15
TORSDOF 6
