REMARK  Name = 71301
REMARK  8 active torsions:
REMARK  status: ('A' for Active; 'I' for Inactive)
REMARK    1  A    between atoms: N_1  and  C_4
REMARK    2  A    between atoms: N_1  and  C_19
REMARK    3  A    between atoms: C_4  and  C_5
REMARK    4  A    between atoms: C_5  and  C_8
REMARK    5  A    between atoms: C_5  and  O_17
REMARK    6  A    between atoms: C_19  and  C_20
REMARK    7  A    between atoms: C_20  and  C_23
REMARK    8  A    between atoms: C_20  and  O_32
REMARK                            x       y       z     vdW  Elec       q    Type
REMARK                         _______ _______ _______ _____ _____    ______ ____
ROOT
ATOM      1  N   UNL     1       0.000   0.000   0.936  0.00  0.00    +0.387 N 
ATOM      2  H   UNL     1       0.677  -0.485   0.347  0.00  0.00    -0.084 HD
ATOM      3  H   UNL     1      -0.685   0.491   0.362  0.00  0.00    -0.084 HD
ENDROOT
BRANCH   1   4
ATOM      4  C   UNL     1       0.699   0.976   1.761  0.00  0.00    -0.048 C 
BRANCH   4   5
ATOM      5  C   UNL     1       1.478   1.989   0.920  0.00  0.00    +0.129 C 
BRANCH   5   8
ATOM      6  F   UNL     1       7.939  -1.530  -1.408  0.00  0.00    -0.204 F 
ATOM      7  O   UNL     1       3.360   0.529   0.835  0.00  0.00    -0.477 OA
ATOM      8  C   UNL     1       2.512   1.340   0.008  0.00  0.00    +0.191 C 
ATOM      9  C   UNL     1       3.317   2.400  -0.742  0.00  0.00    +0.051 C 
ATOM     10  C   UNL     1       4.297   1.710  -1.681  0.00  0.00    +0.033 C 
ATOM     11  C   UNL     1       4.998   0.585  -0.975  0.00  0.00    +0.014 C 
ATOM     12  C   UNL     1       4.491   0.057   0.220  0.00  0.00    +0.135 C 
ATOM     13  C   UNL     1       6.162   0.032  -1.525  0.00  0.00    +0.028 C 
ATOM     14  C   UNL     1       5.162  -0.980   0.874  0.00  0.00    +0.039 C 
ATOM     15  C   UNL     1       6.823  -1.012  -0.877  0.00  0.00    +0.140 C 
ATOM     16  C   UNL     1       6.325  -1.515   0.323  0.00  0.00    +0.033 C 
ENDBRANCH   5   8
BRANCH   5  17
ATOM     17  O   UNL     1       2.173   2.875   1.797  0.00  0.00    -0.383 OA
ATOM     18  H   UNL     1       2.671   3.523   1.275  0.00  0.00    +0.210 HD
ENDBRANCH   5  17
ENDBRANCH   4   5
ENDBRANCH   1   4
BRANCH   1  19
ATOM     19  C   UNL     1      -0.699  -0.976   1.761  0.00  0.00    -0.048 C 
BRANCH  19  20
ATOM     20  C   UNL     1      -1.478  -1.990   0.920  0.00  0.00    +0.129 C 
BRANCH  20  23
ATOM     21  F   UNL     1      -7.939   1.530  -1.408  0.00  0.00    -0.204 F 
ATOM     22  O   UNL     1      -3.360  -0.529   0.835  0.00  0.00    -0.477 OA
ATOM     23  C   UNL     1      -2.512  -1.340   0.008  0.00  0.00    +0.191 C 
ATOM     24  C   UNL     1      -3.317  -2.400  -0.742  0.00  0.00    +0.051 C 
ATOM     25  C   UNL     1      -4.298  -1.709  -1.681  0.00  0.00    +0.033 C 
ATOM     26  C   UNL     1      -4.998  -0.585  -0.975  0.00  0.00    +0.014 C 
ATOM     27  C   UNL     1      -4.491  -0.057   0.220  0.00  0.00    +0.135 C 
ATOM     28  C   UNL     1      -6.162  -0.032  -1.525  0.00  0.00    +0.028 C 
ATOM     29  C   UNL     1      -5.162   0.980   0.874  0.00  0.00    +0.039 C 
ATOM     30  C   UNL     1      -6.823   1.012  -0.877  0.00  0.00    +0.140 C 
ATOM     31  C   UNL     1      -6.325   1.515   0.323  0.00  0.00    +0.033 C 
ENDBRANCH  20  23
BRANCH  20  32
ATOM     32  O   UNL     1      -2.173  -2.876   1.797  0.00  0.00    -0.383 OA
ATOM     33  H   UNL     1      -2.671  -3.523   1.275  0.00  0.00    +0.210 HD
ENDBRANCH  20  32
ENDBRANCH  19  20
ENDBRANCH   1  19
TORSDOF 8
