REMARK  Name = 5326927
REMARK  6 active torsions:
REMARK  status: ('A' for Active; 'I' for Inactive)
REMARK    1  A    between atoms: C_5  and  O_9
REMARK    2  A    between atoms: C_6  and  O_22
REMARK    3  A    between atoms: O_9  and  C_10
REMARK    4  A    between atoms: C_13  and  C_18
REMARK    5  A    between atoms: O_22  and  C_23
REMARK    6  A    between atoms: C_28  and  C_31
REMARK                            x       y       z     vdW  Elec       q    Type
REMARK                         _______ _______ _______ _____ _____    ______ ____
ROOT
ATOM      1  O   UNL     1       0.026   2.068   0.053  0.00  0.00    -0.346 OA
ATOM      2  O   UNL     1       0.135  -0.930   0.649  0.00  0.00    -0.346 OA
ATOM      3  C   UNL     1       0.862  -0.123  -0.297  0.00  0.00    +0.188 C 
ATOM      4  C   UNL     1      -0.103   0.927  -0.812  0.00  0.00    +0.188 C 
ATOM      5  C   UNL     1       1.921   0.688   0.406  0.00  0.00    +0.225 C 
ATOM      6  C   UNL     1      -1.440   0.248  -0.646  0.00  0.00    +0.225 C 
ATOM      7  C   UNL     1       1.130   1.861   0.950  0.00  0.00    +0.188 C 
ATOM      8  C   UNL     1      -1.244  -0.531   0.636  0.00  0.00    +0.188 C 
ENDROOT
BRANCH   5   9
ATOM      9  O   UNL     1       2.865   1.175  -0.541  0.00  0.00    -0.474 OA
BRANCH   9  10
ATOM     10  C   UNL     1       4.183   0.894  -0.297  0.00  0.00    +0.139 C 
ATOM     11  C   UNL     1       4.601  -0.430  -0.215  0.00  0.00    +0.040 C 
ATOM     12  C   UNL     1       5.090   1.935  -0.135  0.00  0.00    +0.037 C 
ATOM     13  C   UNL     1       5.944  -0.716   0.034  0.00  0.00    +0.034 C 
ATOM     14  C   UNL     1       6.432   1.649   0.114  0.00  0.00    +0.003 C 
ATOM     15  C   UNL     1       6.859   0.324   0.199  0.00  0.00    +0.003 C 
BRANCH  13  18
ATOM     16  N   UNL     1       7.723  -2.414   0.371  0.00  0.00    -0.343 N 
ATOM     17  N   UNL     1       5.521  -3.080  -0.037  0.00  0.00    -0.285 NA
ATOM     18  C   UNL     1       6.389  -2.097   0.123  0.00  0.00    +0.117 C 
ATOM     19  H   UNL     1       8.003  -3.357   0.427  0.00  0.00    +0.144 HD
ATOM     20  H   UNL     1       8.386  -1.696   0.490  0.00  0.00    +0.144 HD
ATOM     21  H   UNL     1       5.820  -4.016   0.022  0.00  0.00    +0.188 HD
ENDBRANCH  13  18
ENDBRANCH   9  10
ENDBRANCH   5   9
BRANCH   6  22
ATOM     22  O   UNL     1      -2.511   1.161  -0.574  0.00  0.00    -0.474 OA
BRANCH  22  23
ATOM     23  C   UNL     1      -3.769   0.643  -0.370  0.00  0.00    +0.139 C 
ATOM     24  C   UNL     1      -4.489   1.021   0.754  0.00  0.00    +0.037 C 
ATOM     25  C   UNL     1      -4.298  -0.249  -1.292  0.00  0.00    +0.037 C 
ATOM     26  C   UNL     1      -5.765   0.496   0.961  0.00  0.00    +0.006 C 
ATOM     27  C   UNL     1      -5.574  -0.774  -1.086  0.00  0.00    +0.006 C 
ATOM     28  C   UNL     1      -6.307  -0.401   0.041  0.00  0.00    +0.031 C 
BRANCH  28  31
ATOM     29  N   UNL     1      -8.395  -0.595   1.371  0.00  0.00    -0.343 N 
ATOM     30  N   UNL     1      -8.147  -1.801  -0.616  0.00  0.00    -0.285 NA
ATOM     31  C   UNL     1      -7.638  -0.948   0.255  0.00  0.00    +0.117 C 
ATOM     32  H   UNL     1      -9.294  -0.977   1.496  0.00  0.00    +0.144 HD
ATOM     33  H   UNL     1      -8.032   0.037   2.033  0.00  0.00    +0.144 HD
ATOM     34  H   UNL     1      -9.047  -2.172  -0.472  0.00  0.00    +0.188 HD
ENDBRANCH  28  31
ENDBRANCH  22  23
ENDBRANCH   6  22
TORSDOF 6
