REMARK  Name = 17754108
REMARK  8 active torsions:
REMARK  status: ('A' for Active; 'I' for Inactive)
REMARK    1  A    between atoms: N_2  and  C_8
REMARK    2  A    between atoms: C_3  and  C_19
REMARK    3  A    between atoms: C_19  and  S_20
REMARK    4  A    between atoms: S_20  and  C_21
REMARK    5  A    between atoms: C_21  and  C_22
REMARK    6  A    between atoms: C_22  and  N_23
REMARK    7  A    between atoms: C_22  and  C_28
REMARK    8  A    between atoms: C_28  and  O_29
REMARK                            x       y       z     vdW  Elec       q    Type
REMARK                         _______ _______ _______ _____ _____    ______ ____
ROOT
ATOM      1  O   UNK     1       0.455   2.865  -0.639  0.00  0.00    -0.274 OA
ATOM      2  N   UNK     1       0.340   0.759   0.403  0.00  0.00    -0.283 N 
ATOM      3  C   UNK     1       0.971   1.928  -0.035  0.00  0.00    +0.237 C 
ATOM      4  H   UNK     1       0.914   0.104   0.862  0.00  0.00    +0.155 HD
ENDROOT
BRANCH   2   8
ATOM      5  N   UNK     1      -3.194  -2.529  -0.074  0.00  0.00    -0.242 NA
ATOM      6  N   UNK     1      -5.044  -0.515  -0.126  0.00  0.00    -0.242 NA
ATOM      7  C   UNK     1      -1.421  -0.927   0.163  0.00  0.00    +0.033 C 
ATOM      8  C   UNK     1      -1.008   0.404   0.268  0.00  0.00    +0.052 C 
ATOM      9  C   UNK     1      -2.791  -1.245   0.029  0.00  0.00    +0.100 C 
ATOM     10  C   UNK     1      -3.305   1.123   0.110  0.00  0.00    +0.020 C 
ATOM     11  C   UNK     1      -3.734  -0.219   0.002  0.00  0.00    +0.099 C 
ATOM     12  C   UNK     1      -1.946   1.425   0.242  0.00  0.00    +0.016 C 
ATOM     13  C   UNK     1      -0.488  -1.973   0.188  0.00  0.00    +0.004 C 
ATOM     14  C   UNK     1      -4.268   2.140   0.081  0.00  0.00    +0.003 C 
ATOM     15  C   UNK     1      -0.910  -3.289   0.082  0.00  0.00    +0.021 C 
ATOM     16  C   UNK     1      -5.612   1.827  -0.051  0.00  0.00    +0.021 C 
ATOM     17  C   UNK     1      -2.264  -3.511  -0.046  0.00  0.00    +0.099 C 
ATOM     18  C   UNK     1      -5.944   0.494  -0.150  0.00  0.00    +0.099 C 
ENDBRANCH   2   8
BRANCH   3  19
ATOM     19  C   UNK     1       2.448   1.949   0.297  0.00  0.00    +0.143 C 
BRANCH  19  20
ATOM     20  S   UNK     1       3.365   1.218  -1.081  0.00  0.00    -0.132 S 
BRANCH  20  21
ATOM     21  C   UNK     1       5.036   1.381  -0.409  0.00  0.00    +0.047 C 
BRANCH  21  22
ATOM     22  C   UNK     1       5.382   0.237   0.546  0.00  0.00    +0.047 C 
BRANCH  22  23
ATOM     23  N   UNK     1       6.512   0.618   1.396  0.00  0.00    +0.389 N 
ATOM     24  H   UNK     1       6.280   1.469   1.908  0.00  0.00    -0.088 HD
ATOM     25  H   UNK     1       7.334   0.784   0.815  0.00  0.00    -0.088 HD
ATOM     26  H   UNK     1       6.709  -0.133   2.057  0.00  0.00    -0.088 HD
ENDBRANCH  22  23
BRANCH  22  28
ATOM     27  O   UNK     1       6.918  -1.270  -0.559  0.00  0.00    -0.253 OA
ATOM     28  C   UNK     1       5.773  -1.029  -0.193  0.00  0.00    +0.294 C 
BRANCH  28  29
ATOM     29  O   UNK     1       4.731  -1.861  -0.444  0.00  0.00    -0.482 OA
ATOM     30  H   UNK     1       3.871  -1.638  -0.146  0.00  0.00    +0.295 HD
ENDBRANCH  28  29
ENDBRANCH  22  28
ENDBRANCH  21  22
ENDBRANCH  20  21
ENDBRANCH  19  20
ENDBRANCH   3  19
TORSDOF 8
