REMARK  Name = 205225
REMARK  2 active torsions:
REMARK  status: ('A' for Active; 'I' for Inactive)
REMARK    1  A    between atoms: C_2  and  C_7
REMARK    2  A    between atoms: C_7  and  S_8
REMARK                            x       y       z     vdW  Elec       q    Type
REMARK                         _______ _______ _______ _____ _____    ______ ____
ROOT
ATOM      1  N   UNL     1      -1.512  -1.213   0.124  0.00  0.00    -0.243 NA
ATOM      2  C   UNL     1       0.520   0.015  -0.335  0.00  0.00    +0.008 C 
ATOM      3  C   UNL     1      -0.159   1.216  -0.167  0.00  0.00    -0.000 C 
ATOM      4  C   UNL     1      -0.196  -1.162  -0.180  0.00  0.00    +0.095 C 
ATOM      5  C   UNL     1      -1.514   1.205   0.146  0.00  0.00    +0.020 C 
ATOM      6  C   UNL     1      -2.139  -0.025   0.280  0.00  0.00    +0.099 C 
ENDROOT
BRANCH   2   7
ATOM      7  C   UNL     1       1.968  -0.006  -0.672  0.00  0.00    +0.081 C 
BRANCH   7   8
ATOM      8  S   UNL     1       3.031  -0.030   0.805  0.00  0.00    -0.163 S 
ATOM      9  H   UNL     1       4.337  -0.049   0.425  0.00  0.00    +0.103 HD
ENDBRANCH   7   8
ENDBRANCH   2   7
TORSDOF 2
