REMARK  Name = 1237170
REMARK  2 active torsions:
REMARK  status: ('A' for Active; 'I' for Inactive)
REMARK    1  A    between atoms: C_1  and  C_8
REMARK    2  A    between atoms: C_6  and  N_12
REMARK                            x       y       z     vdW  Elec       q    Type
REMARK                         _______ _______ _______ _____ _____    ______ ____
ROOT
ATOM      1  C   UNL     1      -1.337   0.013  -0.325  0.00  0.00    +0.007 C 
ATOM      2  C   UNL     1      -0.638   1.218  -0.250  0.00  0.00    -0.000 C 
ATOM      3  C   UNL     1      -0.648  -1.198  -0.248  0.00  0.00    -0.000 C 
ATOM      4  C   UNL     1       0.749   1.212  -0.100  0.00  0.00    +0.024 C 
ATOM      5  C   UNL     1       0.739  -1.204  -0.098  0.00  0.00    +0.024 C 
ATOM      6  C   UNL     1       1.437   0.002  -0.024  0.00  0.00    +0.143 C 
ENDROOT
BRANCH   1   8
ATOM      7  O   UNL     1      -3.567  -0.737   0.467  0.00  0.00    -0.346 OA
ATOM      8  C   UNL     1      -2.818   0.019  -0.485  0.00  0.00    +0.167 C 
ATOM      9  C   UNL     1      -3.671   0.691   0.542  0.00  0.00    +0.177 C 
ENDBRANCH   1   8
BRANCH   6  12
ATOM     10  O   UNL     1       3.457   1.092   0.194  0.00  0.00    -0.126 OA
ATOM     11  O   UNL     1       3.449  -1.103   0.197  0.00  0.00    -0.126 OA
ATOM     12  N   UNL     1       2.849  -0.004   0.129  0.00  0.00    +0.058 N 
ENDBRANCH   6  12
TORSDOF 2
