REMARK  Name = 736104
REMARK  6 active torsions:
REMARK  status: ('A' for Active; 'I' for Inactive)
REMARK    1  A    between atoms: N_2  and  CA_5
REMARK    2  A    between atoms: C_3  and  O_11
REMARK    3  A    between atoms: CA_5  and  C_8
REMARK    4  A    between atoms: C_8  and  O_9
REMARK    5  A    between atoms: O_11  and  C_12
REMARK    6  A    between atoms: C_12  and  C_13
REMARK                            x       y       z     vdW  Elec       q    Type
REMARK                         _______ _______ _______ _____ _____    ______ ____
ROOT
ATOM      1  O   UNL     1      -1.177   1.869   1.056  0.00  0.00    -0.226 OA
ATOM      2  N   UNL     1      -1.963   0.064  -0.170  0.00  0.00    -0.262 N 
ATOM      3  C   ACE A   0      -0.985   0.853   0.397  0.00  0.00    +0.402 C 
ATOM      4  H   UNL     1      -1.682  -0.730  -0.679  0.00  0.00    +0.153 HD
ENDROOT
BRANCH   2   5
ATOM      5  CA  UNL     1      -3.378   0.337  -0.060  0.00  0.00    +0.174 C 
ATOM      6  CB  UNL     1      -3.842   1.226  -1.204  0.00  0.00    +0.033 C 
BRANCH   5   8
ATOM      7  OXT UNL     1      -5.412  -0.953   0.141  0.00  0.00    -0.248 OA
ATOM      8  C   UNL     1      -4.196  -0.943  -0.019  0.00  0.00    +0.332 C 
BRANCH   8   9
ATOM      9  O   UNL     1      -3.475  -2.080  -0.161  0.00  0.00    -0.479 OA
ATOM     10  H   UNL     1      -2.547  -2.035  -0.282  0.00  0.00    +0.295 HD
ENDBRANCH   8   9
ENDBRANCH   5   8
ENDBRANCH   2   5
BRANCH   3  11
ATOM     11  O   UNL     1       0.247   0.333   0.115  0.00  0.00    -0.430 OA
BRANCH  11  12
ATOM     12  C   UNL     1       1.366   1.053   0.644  0.00  0.00    +0.237 C 
BRANCH  12  13
ATOM     13  C   UNL     1       2.632   0.354   0.245  0.00  0.00    +0.021 C 
ATOM     14  C   UNL     1       3.163  -0.631   1.071  0.00  0.00    -0.001 C 
ATOM     15  C   UNL     1       3.262   0.696  -0.946  0.00  0.00    -0.001 C 
ATOM     16  C   UNL     1       4.340  -1.282   0.700  0.00  0.00    -0.000 C 
ATOM     17  C   UNL     1       4.439   0.046  -1.316  0.00  0.00    -0.000 C 
ATOM     18  C   UNL     1       4.978  -0.943  -0.493  0.00  0.00    -0.000 C 
ENDBRANCH  12  13
ENDBRANCH  11  12
ENDBRANCH   3  11
TORSDOF 6
