REMARK  Name = 66184
REMARK  0 active torsions:
REMARK  status: ('A' for Active; 'I' for Inactive)
REMARK                            x       y       z     vdW  Elec       q    Type
REMARK                         _______ _______ _______ _____ _____    ______ ____
ROOT
ATOM      1  O   UNL     1      -2.517   2.799   0.001  0.00  0.00    -0.266 OA
ATOM      2  O   UNL     1      -4.814  -1.182  -0.002  0.00  0.00    -0.193 OA
ATOM      3  N   UNL     1      -0.158  -1.421   0.001  0.00  0.00    -0.256 N 
ATOM      4  N   UNL     1      -0.203   1.412   0.000  0.00  0.00    -0.396 NA
ATOM      5  N   UNL     1      -2.541  -1.305   0.000  0.00  0.00    -0.303 NA
ATOM      6  N   UNL     1      -3.699   0.794  -0.001  0.00  0.00    -0.196 N 
ATOM      7  C   UNL     1       1.058  -0.703   0.000  0.00  0.00    +0.079 C 
ATOM      8  C   UNL     1       1.010   0.706   0.000  0.00  0.00    +0.127 C 
ATOM      9  C   UNL     1      -1.370  -0.740   0.000  0.00  0.00    +0.236 C 
ATOM     10  C   UNL     1       3.500  -0.563   0.000  0.00  0.00    -0.028 C 
ATOM     11  C   UNL     1       2.325  -1.318   0.000  0.00  0.00    +0.012 C 
ATOM     12  C   UNL     1       3.437   0.824   0.000  0.00  0.00    -0.041 C 
ATOM     13  C   UNL     1       2.197   1.455   0.000  0.00  0.00    +0.082 C 
ATOM     14  C   UNL     1      -1.322   0.763   0.000  0.00  0.00    +0.230 C 
ATOM     15  C   UNL     1      -0.097  -2.882   0.001  0.00  0.00    +0.120 C 
ATOM     16  C   UNL     1       4.816  -1.271  -0.001  0.00  0.00    +0.030 C 
ATOM     17  C   UNL     1       4.677   1.655  -0.002  0.00  0.00    +0.026 C 
ATOM     18  C   UNL     1      -2.572   1.581   0.001  0.00  0.00    +0.293 C 
ATOM     19  C   UNL     1      -3.726  -0.601  -0.001  0.00  0.00    +0.273 C 
ATOM     20  H   UNL     1      -4.568   1.257  -0.002  0.00  0.00    +0.169 HD
ENDROOT
TORSDOF 0
