REMARK  Name = 4098
REMARK  5 active torsions:
REMARK  status: ('A' for Active; 'I' for Inactive)
REMARK    1  A    between atoms: N_1  and  C_8
REMARK    2  A    between atoms: N_1  and  C_14
REMARK    3  A    between atoms: C_8  and  C_9
REMARK    4  A    between atoms: C_9  and  N_10
REMARK    5  A    between atoms: C_14  and  C_16
REMARK                            x       y       z     vdW  Elec       q    Type
REMARK                         _______ _______ _______ _____ _____    ______ ____
ROOT
ATOM      1  N   UNL     1       0.242  -0.529   0.388  0.00  0.00    -0.291 N 
ATOM      2  N   UNL     1      -0.630   1.587   1.048  0.00  0.00    -0.229 NA
ATOM      3  C   UNL     1       0.087   0.846   0.163  0.00  0.00    +0.132 C 
ATOM      4  C   UNL     1       0.683   1.389  -0.971  0.00  0.00    +0.034 C 
ATOM      5  C   UNL     1       0.538   2.752  -1.208  0.00  0.00    +0.004 C 
ATOM      6  C   UNL     1      -0.750   2.907   0.785  0.00  0.00    +0.100 C 
ATOM      7  C   UNL     1      -0.191   3.532  -0.317  0.00  0.00    +0.021 C 
ENDROOT
BRANCH   1   8
ATOM      8  C   UNL     1       1.411  -1.240  -0.073  0.00  0.00    +0.070 C 
BRANCH   8   9
ATOM      9  C   UNL     1       2.661  -0.621   0.541  0.00  0.00    -0.056 C 
BRANCH   9  10
ATOM     10  N   UNL     1       3.854  -1.347   0.106  0.00  0.00    +0.385 N 
ATOM     11  C   UNL     1       5.051  -0.779   0.724  0.00  0.00    -0.101 C 
ATOM     12  C   UNL     1       3.968  -1.316  -1.352  0.00  0.00    -0.101 C 
ATOM     13  H   UNL     1       3.768  -2.319   0.403  0.00  0.00    -0.080 HD
ENDBRANCH   9  10
ENDBRANCH   8   9
ENDBRANCH   1   8
BRANCH   1  14
ATOM     14  C   UNL     1      -0.800  -1.278   1.092  0.00  0.00    +0.125 C 
BRANCH  14  16
ATOM     15  S   UNL     1      -3.476  -0.607   1.140  0.00  0.00    -0.089 S 
ATOM     16  C   UNL     1      -2.111  -1.244   0.352  0.00  0.00    +0.027 C 
ATOM     17  C   UNL     1      -2.362  -1.673  -0.915  0.00  0.00    +0.004 C 
ATOM     18  C   UNL     1      -3.729  -1.475  -1.265  0.00  0.00    +0.007 C 
ATOM     19  C   UNL     1      -4.448  -0.903  -0.238  0.00  0.00    +0.035 C 
ENDBRANCH  14  16
ENDBRANCH   1  14
TORSDOF 5
