REMARK  Name = 42548
REMARK  11 active torsions:
REMARK  status: ('A' for Active; 'I' for Inactive)
REMARK    1  A    between atoms: N_1  and  C_4
REMARK    2  A    between atoms: N_1  and  C_16
REMARK    3  A    between atoms: C_10  and  O_14
REMARK    4  A    between atoms: C_16  and  C_17
REMARK    5  A    between atoms: C_17  and  C_18
REMARK    6  A    between atoms: C_18  and  C_19
REMARK    7  A    between atoms: C_19  and  C_20
REMARK    8  A    between atoms: C_20  and  C_21
REMARK    9  A    between atoms: C_21  and  N_22
REMARK   10  A    between atoms: N_22  and  C_24
REMARK   11  A    between atoms: N_22  and  C_26
REMARK                            x       y       z     vdW  Elec       q    Type
REMARK                         _______ _______ _______ _____ _____    ______ ____
ROOT
ATOM      1  N   UNL     1       1.325  -0.472  -0.074  0.00  0.00    -0.331 N 
ATOM      2  H   UNL     1       1.212  -1.450  -0.037  0.00  0.00    +0.147 HD
ENDROOT
BRANCH   1   4
ATOM      3  N   UNL     1       3.514  -2.152   0.090  0.00  0.00    -0.243 NA
ATOM      4  C   UNL     1       2.613   0.039  -0.043  0.00  0.00    +0.066 C 
ATOM      5  C   UNL     1       3.705  -0.821   0.041  0.00  0.00    +0.094 C 
ATOM      6  C   UNL     1       4.996  -0.252   0.072  0.00  0.00    +0.018 C 
ATOM      7  C   UNL     1       2.775   1.425  -0.097  0.00  0.00    +0.053 C 
ATOM      8  C   UNL     1       6.095  -1.117   0.156  0.00  0.00    -0.019 C 
ATOM      9  C   UNL     1       5.159   1.142   0.018  0.00  0.00    +0.038 C 
ATOM     10  C   UNL     1       4.049   1.978  -0.066  0.00  0.00    +0.140 C 
ATOM     11  C   UNL     1       5.901  -2.490   0.207  0.00  0.00    +0.016 C 
ATOM     12  C   UNL     1       7.504  -0.615   0.196  0.00  0.00    +0.031 C 
ATOM     13  C   UNL     1       4.602  -2.952   0.172  0.00  0.00    +0.099 C 
BRANCH  10  14
ATOM     14  O   UNL     1       4.210   3.328  -0.118  0.00  0.00    -0.471 OA
ATOM     15  C   UNL     1       3.027   4.122  -0.203  0.00  0.00    +0.252 C 
ENDBRANCH  10  14
ENDBRANCH   1   4
BRANCH   1  16
ATOM     16  C   UNL     1       0.140   0.347  -0.159  0.00  0.00    +0.087 C 
BRANCH  16  17
ATOM     17  C   UNL     1      -1.106  -0.534  -0.144  0.00  0.00    +0.021 C 
BRANCH  17  18
ATOM     18  C   UNL     1      -2.383   0.305  -0.222  0.00  0.00    +0.002 C 
BRANCH  18  19
ATOM     19  C   UNL     1      -3.629  -0.584  -0.245  0.00  0.00    -0.002 C 
BRANCH  19  20
ATOM     20  C   UNL     1      -4.941   0.208  -0.250  0.00  0.00    -0.023 C 
BRANCH  20  21
ATOM     21  C   UNL     1      -6.182  -0.682  -0.300  0.00  0.00    -0.077 C 
BRANCH  21  22
ATOM     22  N   UNL     1      -7.389   0.139  -0.293  0.00  0.00    +0.387 N 
ATOM     23  H   UNL     1      -7.218   0.962  -0.869  0.00  0.00    -0.080 HD
BRANCH  22  24
ATOM     24  C   UNL     1      -7.703   0.580   1.067  0.00  0.00    -0.077 C 
ATOM     25  C   UNL     1      -8.920   1.488   1.083  0.00  0.00    -0.025 C 
ENDBRANCH  22  24
BRANCH  22  26
ATOM     26  C   UNL     1      -8.517  -0.601  -0.860  0.00  0.00    -0.077 C 
ATOM     27  C   UNL     1      -8.844  -1.829  -0.028  0.00  0.00    -0.025 C 
ENDBRANCH  22  26
ENDBRANCH  21  22
ENDBRANCH  20  21
ENDBRANCH  19  20
ENDBRANCH  18  19
ENDBRANCH  17  18
ENDBRANCH  16  17
ENDBRANCH   1  16
TORSDOF 11
