REMARK  Name = 447767
REMARK  2 active torsions:
REMARK  status: ('A' for Active; 'I' for Inactive)
REMARK    1  A    between atoms: N_2  and  C_10
REMARK    2  A    between atoms: C_8  and  C_24
REMARK                            x       y       z     vdW  Elec       q    Type
REMARK                         _______ _______ _______ _____ _____    ______ ____
ROOT
ATOM      1  O   UNL     1       2.905   2.832  -1.298  0.00  0.00    -0.270 OA
ATOM      2  N   UNL     1      -1.662   1.652   0.313  0.00  0.00    +0.396 N 
ATOM      3  N   UNL     1       1.165   2.014   0.032  0.00  0.00    -0.280 N 
ATOM      4  C   UNL     1      -0.741   0.535   0.571  0.00  0.00    -0.054 C 
ATOM      5  C   UNL     1      -1.123   2.530  -0.735  0.00  0.00    -0.054 C 
ATOM      6  C   UNL     1       0.637   1.044   0.999  0.00  0.00    +0.071 C 
ATOM      7  C   UNL     1       0.239   3.086  -0.324  0.00  0.00    +0.071 C 
ATOM      8  C   UNL     1       2.462   2.019  -0.488  0.00  0.00    +0.249 C 
ATOM      9  H   UNL     1      -1.758   2.195   1.171  0.00  0.00    -0.079 HD
ENDROOT
BRANCH   2  10
ATOM     10  C   UNL     1      -2.983   1.152  -0.065  0.00  0.00    -0.011 C 
ATOM     11  C   UNL     1      -3.605   0.288   1.024  0.00  0.00    -0.038 C 
ATOM     12  C   UNL     1      -2.916   0.170  -1.227  0.00  0.00    -0.038 C 
ATOM     13  C   UNL     1      -3.857  -1.015   0.538  0.00  0.00    -0.006 C 
ATOM     14  C   UNL     1      -3.434  -1.087  -0.844  0.00  0.00    -0.006 C 
ATOM     15  C   UNL     1      -3.931   0.646   2.322  0.00  0.00    -0.006 C 
ATOM     16  C   UNL     1      -2.451   0.394  -2.513  0.00  0.00    -0.006 C 
ATOM     17  C   UNL     1      -4.429  -1.975   1.357  0.00  0.00    -0.000 C 
ATOM     18  C   UNL     1      -3.479  -2.137  -1.747  0.00  0.00    -0.000 C 
ATOM     19  C   UNL     1      -4.507  -0.321   3.147  0.00  0.00    -0.000 C 
ATOM     20  C   UNL     1      -2.496  -0.664  -3.423  0.00  0.00    -0.000 C 
ATOM     21  C   UNL     1      -4.753  -1.619   2.670  0.00  0.00    -0.000 C 
ATOM     22  C   UNL     1      -3.004  -1.917  -3.043  0.00  0.00    -0.000 C 
ENDBRANCH   2  10
BRANCH   8  24
ATOM     23  N   UNL     1       5.934  -2.080   1.035  0.00  0.00    -0.312 N 
ATOM     24  C   UNL     1       3.395   0.978  -0.036  0.00  0.00    +0.054 C 
ATOM     25  C   UNL     1       3.469  -0.228  -0.738  0.00  0.00    +0.006 C 
ATOM     26  C   UNL     1       4.191   1.209   1.081  0.00  0.00    +0.006 C 
ATOM     27  C   UNL     1       4.367  -1.220  -0.300  0.00  0.00    +0.015 C 
ATOM     28  C   UNL     1       5.156  -0.965   0.824  0.00  0.00    +0.048 C 
ATOM     29  C   UNL     1       5.090   0.239   1.534  0.00  0.00    +0.015 C 
ATOM     30  C   UNL     1       4.700  -2.527  -0.755  0.00  0.00    +0.017 C 
ATOM     31  C   UNL     1       5.665  -3.030   0.086  0.00  0.00    +0.062 C 
ATOM     32  H   UNL     1       6.589  -2.181   1.763  0.00  0.00    +0.152 HD
ENDBRANCH   8  24
TORSDOF 2
