REMARK  Name = 4472
REMARK  7 active torsions:
REMARK  status: ('A' for Active; 'I' for Inactive)
REMARK    1  A    between atoms: C_1  and  N_2
REMARK    2  A    between atoms: C_1  and  C_14
REMARK    3  A    between atoms: N_2  and  N_5
REMARK    4  A    between atoms: C_6  and  C_9
REMARK    5  A    between atoms: C_14  and  C_17
REMARK    6  A    between atoms: N_16  and  C_19
REMARK    7  A    between atoms: C_19  and  C_20
REMARK                            x       y       z     vdW  Elec       q    Type
REMARK                         _______ _______ _______ _____ _____    ______ ____
ROOT
ATOM      1  C   UNL     1       0.432   1.061  -0.087  0.00  0.00    +0.097 C 
ENDROOT
BRANCH   1   2
ATOM      2  N   UNL     1       1.522   1.325   0.844  0.00  0.00    -0.229 NA
ATOM      3  H   UNL     1       1.535   2.319   1.075  0.00  0.00    +0.145 HD
BRANCH   2   5
ATOM      4  O   UNL     1       3.234  -0.540   1.959  0.00  0.00    -0.269 OA
ATOM      5  N   UNL     1       2.735   0.972   0.271  0.00  0.00    -0.246 N 
ATOM      6  C   UNL     1       3.521   0.027   0.908  0.00  0.00    +0.259 C 
ATOM      7  H   UNL     1       3.030   1.385  -0.572  0.00  0.00    +0.169 HD
BRANCH   6   9
ATOM      8  N   UNL     1       7.218  -0.864  -0.987  0.00  0.00    -0.242 NA
ATOM      9  C   UNL     1       4.814  -0.284   0.245  0.00  0.00    +0.058 C 
ATOM     10  C   UNL     1       5.864  -0.732   1.011  0.00  0.00    +0.025 C 
ATOM     11  C   UNL     1       4.922  -0.116  -1.115  0.00  0.00    +0.025 C 
ATOM     12  C   UNL     1       7.047  -1.008   0.346  0.00  0.00    +0.099 C 
ATOM     13  C   UNL     1       6.148  -0.420  -1.685  0.00  0.00    +0.099 C 
ENDBRANCH   6   9
ENDBRANCH   2   5
ENDBRANCH   1   2
BRANCH   1  14
ATOM     14  C   UNL     1      -0.896   1.514   0.509  0.00  0.00    +0.104 C 
BRANCH  14  17
ATOM     15  O   UNL     1      -1.945   0.723  -1.526  0.00  0.00    -0.275 OA
ATOM     16  N   UNL     1      -3.268   1.662   0.133  0.00  0.00    -0.300 N 
ATOM     17  C   UNL     1      -2.067   1.245  -0.421  0.00  0.00    +0.224 C 
ATOM     18  H   UNL     1      -3.263   2.071   1.029  0.00  0.00    +0.150 HD
BRANCH  16  19
ATOM     19  C   UNL     1      -4.525   1.514  -0.561  0.00  0.00    +0.116 C 
BRANCH  19  20
ATOM     20  C   UNL     1      -5.184   0.200  -0.256  0.00  0.00    -0.003 C 
ATOM     21  C   UNL     1      -4.910  -0.907  -1.050  0.00  0.00    -0.003 C 
ATOM     22  C   UNL     1      -6.062   0.104   0.818  0.00  0.00    -0.003 C 
ATOM     23  C   UNL     1      -5.522  -2.128  -0.766  0.00  0.00    -0.000 C 
ATOM     24  C   UNL     1      -6.674  -1.117   1.101  0.00  0.00    -0.000 C 
ATOM     25  C   UNL     1      -6.404  -2.233   0.309  0.00  0.00    -0.000 C 
ENDBRANCH  19  20
ENDBRANCH  16  19
ENDBRANCH  14  17
ENDBRANCH   1  14
TORSDOF 7
