REMARK  Name = 205131
REMARK  3 active torsions:
REMARK  status: ('A' for Active; 'I' for Inactive)
REMARK    1  A    between atoms: C_1  and  C_6
REMARK    2  A    between atoms: C_1  and  C_12
REMARK    3  A    between atoms: C_12  and  N_13
REMARK                            x       y       z     vdW  Elec       q    Type
REMARK                         _______ _______ _______ _____ _____    ______ ____
ROOT
ATOM      1  C   UNL     1       1.061  -0.413  -0.163  0.00  0.00    -0.001 C 
ATOM      2  C   UNL     1       1.736   0.353  -1.325  0.00  0.00    +0.002 C 
ATOM      3  C   UNL     1       1.934   0.093   1.010  0.00  0.00    +0.002 C 
ATOM      4  C   UNL     1       1.988   1.755  -0.771  0.00  0.00    +0.000 C 
ATOM      5  C   UNL     1       2.159   1.579   0.737  0.00  0.00    +0.000 C 
ENDROOT
BRANCH   1   6
ATOM      6  C   UNL     1      -0.439  -0.092  -0.075  0.00  0.00    -0.025 C 
ATOM      7  C   UNL     1      -1.275  -0.372  -1.154  0.00  0.00    -0.004 C 
ATOM      8  C   UNL     1      -0.961   0.478   1.085  0.00  0.00    -0.004 C 
ATOM      9  C   UNL     1      -2.637  -0.080  -1.074  0.00  0.00    -0.000 C 
ATOM     10  C   UNL     1      -2.322   0.770   1.166  0.00  0.00    -0.000 C 
ATOM     11  C   UNL     1      -3.160   0.491   0.086  0.00  0.00    -0.000 C 
ENDBRANCH   1   6
BRANCH   1  12
ATOM     12  C   UNL     1       1.237  -1.933  -0.319  0.00  0.00    -0.082 C 
BRANCH  12  13
ATOM     13  N   UNL     1       0.680  -2.629   0.799  0.00  0.00    +0.381 N 
ATOM     14  H   UNL     1       0.809  -3.633   0.673  0.00  0.00    -0.089 HD
ATOM     15  H   UNL     1      -0.316  -2.420   0.868  0.00  0.00    -0.089 HD
ATOM     16  H   UNL     1       1.150  -2.330   1.654  0.00  0.00    -0.089 HD
ENDBRANCH  12  13
ENDBRANCH   1  12
TORSDOF 3
