REMARK  Name = 151194
REMARK  3 active torsions:
REMARK  status: ('A' for Active; 'I' for Inactive)
REMARK    1  A    between atoms: N_1  and  C_14
REMARK    2  A    between atoms: C_6  and  C_20
REMARK    3  A    between atoms: C_20  and  C_22
REMARK                            x       y       z     vdW  Elec       q    Type
REMARK                         _______ _______ _______ _____ _____    ______ ____
ROOT
ATOM      1  N   UNL     1       2.200   0.939   0.535  0.00  0.00    -0.297 N 
ATOM      2  N   UNL     1      -1.147  -0.386   0.227  0.00  0.00    -0.151 NA
ATOM      3  N   UNL     1       0.197  -0.301   0.409  0.00  0.00    -0.133 NA
ATOM      4  C   UNL     1      -1.277   2.000  -0.103  0.00  0.00    +0.018 A 
ATOM      5  C   UNL     1       0.111   2.088   0.085  0.00  0.00    +0.035 A 
ATOM      6  C   UNL     1      -1.854   0.738  -0.021  0.00  0.00    +0.085 A 
ATOM      7  C   UNL     1       0.798   0.907   0.338  0.00  0.00    +0.154 A 
ATOM      8  C   UNL     1      -2.019   3.165  -0.362  0.00  0.00    +0.001 C 
ATOM      9  C   UNL     1       0.743   3.341   0.012  0.00  0.00    +0.003 C 
ATOM     10  C   UNL     1      -1.381   4.404  -0.432  0.00  0.00    +0.000 C 
ATOM     11  C   UNL     1      -0.002   4.492  -0.245  0.00  0.00    +0.000 C 
ATOM     12  H   UNL     1       2.525   1.779   0.932  0.00  0.00    +0.154 HD
ENDROOT
BRANCH   1  14
ATOM     13 CL   UNL     1       6.483  -3.000  -0.559  0.00  0.00    -0.082 Cl
ATOM     14  C   UNL     1       3.216   0.005   0.275  0.00  0.00    +0.049 C 
ATOM     15  C   UNL     1       4.364  -0.025   1.071  0.00  0.00    +0.016 C 
ATOM     16  C   UNL     1       3.085  -0.900  -0.782  0.00  0.00    +0.016 C 
ATOM     17  C   UNL     1       5.373  -0.953   0.814  0.00  0.00    +0.013 C 
ATOM     18  C   UNL     1       4.094  -1.829  -1.040  0.00  0.00    +0.013 C 
ATOM     19  C   UNL     1       5.238  -1.855  -0.242  0.00  0.00    +0.058 C 
ENDBRANCH   1  14
BRANCH   6  20
ATOM     20  C   UNL     1      -3.322   0.529  -0.204  0.00  0.00    +0.074 C 
BRANCH  20  22
ATOM     21  N   UNL     1      -4.552  -3.561   0.155  0.00  0.00    -0.242 NA
ATOM     22  C   UNL     1      -3.756  -0.916  -0.077  0.00  0.00    -0.013 C 
ATOM     23  C   UNL     1      -4.118  -1.405   1.160  0.00  0.00    +0.017 C 
ATOM     24  C   UNL     1      -3.781  -1.714  -1.202  0.00  0.00    +0.017 C 
ATOM     25  C   UNL     1      -4.508  -2.733   1.223  0.00  0.00    +0.099 C 
ATOM     26  C   UNL     1      -4.186  -3.028  -1.033  0.00  0.00    +0.099 C 
ENDBRANCH  20  22
ENDBRANCH   6  20
TORSDOF 3
