REMARK  Name = 6102758
REMARK  10 active torsions:
REMARK  status: ('A' for Active; 'I' for Inactive)
REMARK    1  A    between atoms: C_1  and  C_17
REMARK    2  A    between atoms: C_3  and  O_7
REMARK    3  A    between atoms: C_4  and  O_9
REMARK    4  A    between atoms: C_4  and  C_14
REMARK    5  A    between atoms: C_5  and  O_11
REMARK    6  A    between atoms: C_14  and  O_15
REMARK    7  A    between atoms: C_17  and  C_18
REMARK    8  A    between atoms: C_18  and  C_19
REMARK    9  A    between atoms: C_19  and  O_20
REMARK   10  A    between atoms: O_20  and  C_21
REMARK                            x       y       z     vdW  Elec       q    Type
REMARK                         _______ _______ _______ _____ _____    ______ ____
ROOT
ATOM      1  C   UNL     1       1.530  -0.786  -0.199  0.00  0.00    +0.032 C 
ATOM      2  C   UNL     1       2.058   0.572   0.294  0.00  0.00    +0.040 C 
ATOM      3  C   UNL     1       2.528  -1.915   0.121  0.00  0.00    +0.137 C 
ATOM      4  C   UNL     1       3.455   0.880  -0.252  0.00  0.00    +0.179 C 
ATOM      5  C   UNL     1       3.932  -1.603  -0.407  0.00  0.00    +0.140 C 
ATOM      6  C   UNL     1       4.437  -0.242   0.072  0.00  0.00    +0.070 C 
ENDROOT
BRANCH   3   7
ATOM      7  O   UNL     1       2.098  -3.130  -0.494  0.00  0.00    -0.382 OA
ATOM      8  H   UNL     1       1.208  -3.355  -0.179  0.00  0.00    +0.210 HD
ENDBRANCH   3   7
BRANCH   4   9
ATOM      9  O   UNL     1       3.407   1.063  -1.662  0.00  0.00    -0.376 OA
ATOM     10  H   UNL     1       3.075   0.254  -2.082  0.00  0.00    +0.211 HD
ENDBRANCH   4   9
BRANCH   5  11
ATOM     11  O   UNL     1       4.826  -2.615   0.059  0.00  0.00    -0.382 OA
ATOM     12  H   UNL     1       4.515  -3.484  -0.240  0.00  0.00    +0.210 HD
ENDBRANCH   5  11
BRANCH   4  14
ATOM     13  O   UNL     1       4.285   3.151  -0.349  0.00  0.00    -0.248 OA
ATOM     14  C   UNL     1       3.974   2.171   0.312  0.00  0.00    +0.338 C 
BRANCH  14  15
ATOM     15  O   UNL     1       4.056   2.104   1.663  0.00  0.00    -0.479 OA
ATOM     16  H   UNL     1       3.801   1.321   2.110  0.00  0.00    +0.295 HD
ENDBRANCH  14  15
ENDBRANCH   4  14
BRANCH   1  17
ATOM     17  C   UNL     1       0.150  -1.059   0.408  0.00  0.00    +0.006 C 
BRANCH  17  18
ATOM     18  C   UNL     1      -0.837   0.039   0.039  0.00  0.00    +0.047 C 
BRANCH  18  19
ATOM     19  C   UNL     1      -2.220  -0.249   0.606  0.00  0.00    +0.205 C 
BRANCH  19  20
ATOM     20  O   UNL     1      -3.101   0.797   0.219  0.00  0.00    -0.475 OA
BRANCH  20  21
ATOM     21  C   UNL     1      -4.425   0.469   0.075  0.00  0.00    +0.139 C 
ATOM     22  C   UNL     1      -4.968  -0.551   0.847  0.00  0.00    +0.037 C 
ATOM     23  C   UNL     1      -5.208   1.160  -0.842  0.00  0.00    +0.037 C 
ATOM     24  C   UNL     1      -6.315  -0.885   0.700  0.00  0.00    +0.003 C 
ATOM     25  C   UNL     1      -6.554   0.826  -0.989  0.00  0.00    +0.003 C 
ATOM     26  C   UNL     1      -7.108  -0.197  -0.218  0.00  0.00    +0.000 C 
ENDBRANCH  20  21
ENDBRANCH  19  20
ENDBRANCH  18  19
ENDBRANCH  17  18
ENDBRANCH   1  17
TORSDOF 10
