REMARK  Name = 447960
REMARK  3 active torsions:
REMARK  status: ('A' for Active; 'I' for Inactive)
REMARK    1  A    between atoms: N_1  and  C_18
REMARK    2  A    between atoms: C_4  and  C_12
REMARK    3  A    between atoms: C_23  and  O_24
REMARK                            x       y       z     vdW  Elec       q    Type
REMARK                         _______ _______ _______ _____ _____    ______ ____
ROOT
ATOM      1  N   UNL     1      -2.395  -1.628  -0.119  0.00  0.00    -0.247 N 
ATOM      2  N   UNL     1      -0.117  -1.069  -0.066  0.00  0.00    -0.341 NA
ATOM      3  N   UNL     1      -0.824  -3.368  -0.202  0.00  0.00    -0.170 NA
ATOM      4  C   UNL     1       1.161  -1.500  -0.077  0.00  0.00    +0.140 C 
ATOM      5  C   UNL     1      -1.049  -2.041  -0.130  0.00  0.00    +0.148 C 
ATOM      6  C   UNL     1       1.522  -2.830  -0.148  0.00  0.00    +0.051 C 
ATOM      7  C   UNL     1       0.476  -3.729  -0.210  0.00  0.00    +0.114 C 
ATOM      8  H   UNL     1      -3.038  -2.373  -0.167  0.00  0.00    +0.165 HD
ENDROOT
BRANCH   4  12
ATOM      9  S   UNL     1       2.749   0.245  -1.457  0.00  0.00    -0.054 S 
ATOM     10  N   UNL     1       3.681   1.129   0.786  0.00  0.00    -0.388 NA
ATOM     11  N   UNL     1       4.569   2.159  -1.147  0.00  0.00    -0.302 N 
ATOM     12  C   UNL     1       2.150  -0.457  -0.009  0.00  0.00    +0.156 C 
ATOM     13  C   UNL     1       2.760   0.140   1.076  0.00  0.00    +0.106 C 
ATOM     14  C   UNL     1       3.756   1.269  -0.519  0.00  0.00    +0.207 C 
ATOM     15  C   UNL     1       2.518  -0.181   2.499  0.00  0.00    +0.063 C 
ATOM     16  C   UNL     1       5.470   3.082  -0.466  0.00  0.00    +0.111 C 
ATOM     17  H   UNL     1       4.549   2.181  -2.131  0.00  0.00    +0.150 HD
ENDBRANCH   4  12
BRANCH   1  18
ATOM     18  C   UNL     1      -3.004  -0.357  -0.054  0.00  0.00    +0.058 C 
ATOM     19  C   UNL     1      -4.243  -0.146  -0.660  0.00  0.00    +0.018 C 
ATOM     20  C   UNL     1      -2.367   0.688   0.615  0.00  0.00    +0.018 C 
ATOM     21  C   UNL     1      -4.844   1.111  -0.597  0.00  0.00    +0.038 C 
ATOM     22  C   UNL     1      -2.969   1.945   0.678  0.00  0.00    +0.038 C 
ATOM     23  C   UNL     1      -4.207   2.156   0.073  0.00  0.00    +0.134 C 
BRANCH  23  24
ATOM     24  O   UNL     1      -4.795   3.382   0.136  0.00  0.00    -0.506 OA
ATOM     25  H   UNL     1      -5.627   3.525  -0.271  0.00  0.00    +0.292 HD
ENDBRANCH  23  24
ENDBRANCH   1  18
TORSDOF 3
