REMARK  Name = 17753799
REMARK  5 active torsions:
REMARK  status: ('A' for Active; 'I' for Inactive)
REMARK    1  A    between atoms: C_2  and  C_12
REMARK    2  A    between atoms: C_8  and  C_26
REMARK    3  A    between atoms: C_14  and  C_20
REMARK    4  A    between atoms: C_15  and  O_18
REMARK    5  A    between atoms: C_20  and  C_23
REMARK                            x       y       z     vdW  Elec       q    Type
REMARK                         _______ _______ _______ _____ _____    ______ ____
ROOT
ATOM      1  N   UNL     1       0.595   0.713   0.662  0.00  0.00    -0.312 N 
ATOM      2  C   UNL     1       0.068  -0.312  -0.076  0.00  0.00    +0.051 C 
ATOM      3  C   UNL     1       2.317  -0.334  -0.295  0.00  0.00    +0.015 C 
ATOM      4  C   UNL     1       1.967   0.724   0.547  0.00  0.00    +0.048 C 
ATOM      5  C   UNL     1       1.109  -0.979  -0.680  0.00  0.00    +0.016 C 
ATOM      6  C   UNL     1       3.680  -0.549  -0.582  0.00  0.00    +0.004 C 
ATOM      7  C   UNL     1       2.915   1.581   1.118  0.00  0.00    +0.015 C 
ATOM      8  C   UNL     1       4.639   0.300  -0.019  0.00  0.00    +0.031 C 
ATOM      9  C   UNL     1       4.260   1.348   0.818  0.00  0.00    +0.004 C 
ATOM     10  H   UNL     1       0.069   1.350   1.198  0.00  0.00    +0.152 HD
ENDROOT
BRANCH   2  12
ATOM     11 BR   UNL     1      -4.032  -3.631   0.790  0.00  0.00    -0.046 Br
ATOM     12  C   UNL     1      -1.353  -0.560  -0.136  0.00  0.00    +0.047 C 
ATOM     13  C   UNL     1      -2.193   0.438  -0.629  0.00  0.00    +0.001 C 
ATOM     14  C   UNL     1      -3.569   0.220  -0.697  0.00  0.00    -0.010 C 
ATOM     15  C   UNL     1      -1.889  -1.775   0.290  0.00  0.00    +0.141 C 
ATOM     16  C   UNL     1      -4.105  -0.996  -0.271  0.00  0.00    +0.006 C 
ATOM     17  C   UNL     1      -3.265  -1.993   0.222  0.00  0.00    +0.068 C 
BRANCH  15  18
ATOM     18  O   UNL     1      -1.062  -2.750   0.773  0.00  0.00    -0.505 OA
ATOM     19  H   UNL     1      -0.138  -2.601   0.818  0.00  0.00    +0.292 HD
ENDBRANCH  15  18
BRANCH  14  20
ATOM     20  C   UNL     1      -4.468   1.287  -1.225  0.00  0.00    +0.140 C 
BRANCH  20  23
ATOM     21  O   UNL     1      -4.005   2.810   0.518  0.00  0.00    -0.245 OA
ATOM     22  O   UNL     1      -6.173   2.189   0.137  0.00  0.00    -0.245 OA
ATOM     23  C   UNL     1      -4.927   2.186  -0.078  0.00  0.00    +0.369 C 
ENDBRANCH  20  23
ENDBRANCH  14  20
ENDBRANCH   2  12
BRANCH   8  26
ATOM     24  N   UNL     1       7.034   0.906   0.230  0.00  0.00    -0.343 N 
ATOM     25  N   UNL     1       6.409  -0.906  -1.108  0.00  0.00    -0.285 NA
ATOM     26  C   UNL     1       6.048   0.084  -0.311  0.00  0.00    +0.117 C 
ATOM     27  H   UNL     1       7.982   0.742   0.018  0.00  0.00    +0.144 HD
ATOM     28  H   UNL     1       6.784   1.650   0.823  0.00  0.00    +0.144 HD
ATOM     29  H   UNL     1       7.362  -1.054  -1.307  0.00  0.00    +0.188 HD
ENDBRANCH   8  26
TORSDOF 5
