REMARK  Name = 439314
REMARK  2 active torsions:
REMARK  status: ('A' for Active; 'I' for Inactive)
REMARK    1  A    between atoms: C_1  and  C_4
REMARK    2  A    between atoms: C_1  and  O_6
REMARK                            x       y       z     vdW  Elec       q    Type
REMARK                         _______ _______ _______ _____ _____    ______ ____
ROOT
ATOM      1  C   UNL     1      -0.723  -0.156  -0.401  0.00  0.00    +0.167 C 
ATOM      2  C   UNL     1      -1.296  -1.267   0.461  0.00  0.00    +0.040 C 
ENDROOT
BRANCH   1   4
ATOM      3  O   UNL     1       1.075   1.237   0.405  0.00  0.00    -0.294 OA
ATOM      4  C   UNL     1       0.724   0.143  -0.036  0.00  0.00    +0.178 C 
ATOM      5  C   UNL     1       1.726  -0.967  -0.231  0.00  0.00    +0.075 C 
ENDBRANCH   1   4
BRANCH   1   6
ATOM      6  O   UNL     1      -1.505   1.010  -0.197  0.00  0.00    -0.377 OA
ATOM      7  H   UNL     1      -1.155   1.733  -0.741  0.00  0.00    +0.211 HD
ENDBRANCH   1   6
TORSDOF 2
