REMARK  Name = 18807
REMARK  3 active torsions:
REMARK  status: ('A' for Active; 'I' for Inactive)
REMARK    1  A    between atoms: C_2  and  O_10
REMARK    2  A    between atoms: C_3  and  O_8
REMARK    3  A    between atoms: O_10  and  C_12
REMARK                            x       y       z     vdW  Elec       q    Type
REMARK                         _______ _______ _______ _____ _____    ______ ____
ROOT
ATOM      1 CL   UNL     1      -4.851  -1.741   0.350  0.00  0.00    -0.082 Cl
ATOM      2  C   UNL     1      -1.079   0.556  -0.452  0.00  0.00    +0.179 C 
ATOM      3  C   UNL     1      -2.032   1.097   0.392  0.00  0.00    +0.169 C 
ATOM      4  C   UNL     1      -1.260  -0.677  -1.054  0.00  0.00    +0.042 C 
ATOM      5  C   UNL     1      -3.205   0.384   0.641  0.00  0.00    +0.051 C 
ATOM      6  C   UNL     1      -2.432  -1.390  -0.805  0.00  0.00    +0.015 C 
ATOM      7  C   UNL     1      -3.404  -0.860   0.043  0.00  0.00    +0.061 C 
ENDROOT
BRANCH   3   8
ATOM      8  O   UNL     1      -1.849   2.312   0.982  0.00  0.00    -0.503 OA
ATOM      9  H   UNL     1      -1.064   2.797   0.820  0.00  0.00    +0.292 HD
ENDBRANCH   3   8
BRANCH   2  10
ATOM     10  O   UNL     1       0.088   1.255  -0.708  0.00  0.00    -0.450 OA
BRANCH  10  12
ATOM     11 CL   UNL     1       5.173  -1.292   0.751  0.00  0.00    -0.082 Cl
ATOM     12  C   UNL     1       1.267   0.665  -0.370  0.00  0.00    +0.145 C 
ATOM     13  C   UNL     1       1.402   0.037   0.868  0.00  0.00    +0.038 C 
ATOM     14  C   UNL     1       2.339   0.687  -1.262  0.00  0.00    +0.038 C 
ATOM     15  C   UNL     1       2.610  -0.568   1.215  0.00  0.00    +0.015 C 
ATOM     16  C   UNL     1       3.547   0.082  -0.915  0.00  0.00    +0.015 C 
ATOM     17  C   UNL     1       3.683  -0.546   0.323  0.00  0.00    +0.058 C 
ENDBRANCH  10  12
ENDBRANCH   2  10
TORSDOF 3
