REMARK  Name = 5288675
REMARK  14 active torsions:
REMARK  status: ('A' for Active; 'I' for Inactive)
REMARK    1  A    between atoms: S_1  and  C_2
REMARK    2  A    between atoms: S_1  and  C_14
REMARK    3  A    between atoms: C_2  and  C_3
REMARK    4  A    between atoms: C_3  and  O_4
REMARK    5  A    between atoms: C_3  and  C_6
REMARK    6  A    between atoms: C_6  and  O_7
REMARK    7  A    between atoms: C_6  and  C_10
REMARK    8  A    between atoms: C_10  and  C_11
REMARK    9  A    between atoms: C_11  and  O_12
REMARK   10  A    between atoms: C_14  and  C_15
REMARK   11  A    between atoms: C_15  and  C_16
REMARK   12  A    between atoms: C_16  and  N_17
REMARK   13  A    between atoms: C_16  and  C_22
REMARK   14  A    between atoms: C_22  and  O_23
REMARK                            x       y       z     vdW  Elec       q    Type
REMARK                         _______ _______ _______ _____ _____    ______ ____
ROOT
ATOM      1  S   UNK     1      -0.819   2.108   0.335  0.00  0.00    -0.138 S 
ENDROOT
BRANCH   1   2
ATOM      2  C   UNK     1       0.737   1.231   0.695  0.00  0.00    +0.090 C 
BRANCH   2   3
ATOM      3  C   UNK     1       1.748   1.266  -0.461  0.00  0.00    +0.155 C 
BRANCH   3   4
ATOM      4  O   UNK     1       1.994   2.626  -0.825  0.00  0.00    -0.381 OA
ATOM      5  H   UNK     1       2.632   2.655  -1.554  0.00  0.00    +0.210 HD
ENDBRANCH   3   4
BRANCH   3   6
ATOM      6  C   UNK     1       3.095   0.580  -0.188  0.00  0.00    +0.198 C 
BRANCH   6   7
ATOM      7  O   UNK     1       3.731   1.155   0.947  0.00  0.00    -0.375 OA
ATOM      8  H   UNK     1       3.856   2.105   0.800  0.00  0.00    +0.211 HD
ENDBRANCH   6   7
BRANCH   6  10
ATOM      9  O   UNK     1       3.225  -1.388   1.210  0.00  0.00    -0.291 OA
ATOM     10  C   UNK     1       2.932  -0.912   0.113  0.00  0.00    +0.209 C 
BRANCH  10  11
ATOM     11  C   UNK     1       2.368  -1.781  -0.996  0.00  0.00    +0.205 C 
BRANCH  11  12
ATOM     12  O   UNK     1       2.275  -3.125  -0.569  0.00  0.00    -0.375 OA
ATOM     13  H   UNK     1       1.914  -3.668  -1.287  0.00  0.00    +0.211 HD
ENDBRANCH  11  12
ENDBRANCH  10  11
ENDBRANCH   6  10
ENDBRANCH   3   6
ENDBRANCH   2   3
ENDBRANCH   1   2
BRANCH   1  14
ATOM     14  C   UNK     1      -1.385   1.073  -1.034  0.00  0.00    +0.056 C 
BRANCH  14  15
ATOM     15  C   UNK     1      -1.586  -0.393  -0.638  0.00  0.00    +0.001 C 
BRANCH  15  16
ATOM     16  C   UNK     1      -2.595  -0.640   0.492  0.00  0.00    +0.037 C 
BRANCH  16  17
ATOM     17  N   UNK     1      -2.743  -2.084   0.700  0.00  0.00    +0.389 N 
ATOM     18  H   UNK     1      -1.840  -2.486   0.952  0.00  0.00    -0.088 HD
ATOM     19  H   UNK     1      -3.080  -2.519  -0.159  0.00  0.00    -0.088 HD
ATOM     20  H   UNK     1      -3.411  -2.253   1.452  0.00  0.00    -0.088 HD
ENDBRANCH  16  17
BRANCH  16  22
ATOM     21  O   UNK     1      -4.808  -0.730  -0.526  0.00  0.00    -0.253 OA
ATOM     22  C   UNK     1      -3.971  -0.115   0.123  0.00  0.00    +0.293 C 
BRANCH  22  23
ATOM     23  O   UNK     1      -4.199   1.129   0.620  0.00  0.00    -0.482 OA
ATOM     24  H   UNK     1      -3.532   1.566   1.112  0.00  0.00    +0.295 HD
ENDBRANCH  22  23
ENDBRANCH  16  22
ENDBRANCH  15  16
ENDBRANCH  14  15
ENDBRANCH   1  14
TORSDOF 14
