REMARK  Name = 449076
REMARK  8 active torsions:
REMARK  status: ('A' for Active; 'I' for Inactive)
REMARK    1  A    between atoms: C_2  and  O_16
REMARK    2  A    between atoms: C_3  and  C_18
REMARK    3  A    between atoms: C_4  and  N_7
REMARK    4  A    between atoms: C_11  and  O_14
REMARK    5  A    between atoms: C_18  and  O_19
REMARK    6  A    between atoms: O_19  and  P_20
REMARK    7  A    between atoms: P_20  and  O_22
REMARK    8  A    between atoms: P_20  and  O_24
REMARK                            x       y       z     vdW  Elec       q    Type
REMARK                         _______ _______ _______ _____ _____    ______ ____
ROOT
ATOM      1  O   UNL     1      -0.329   1.205   1.013  0.00  0.00    -0.335 OA
ATOM      2  C   UNL     1      -0.730   2.725  -0.762  0.00  0.00    +0.144 C 
ATOM      3  C   UNL     1      -1.395   1.796   0.244  0.00  0.00    +0.174 C 
ATOM      4  C   UNL     1       0.924   1.468   0.366  0.00  0.00    +0.202 C 
ATOM      5  C   UNL     1       0.614   2.074  -0.993  0.00  0.00    +0.083 C 
ENDROOT
BRANCH   4   7
ATOM      6  O   UNL     1       3.723   1.339   0.500  0.00  0.00    -0.252 OA
ATOM      7  N   UNL     1       1.675   0.250   0.274  0.00  0.00    -0.219 N 
ATOM      8  N   UNL     1       3.745  -0.927   0.257  0.00  0.00    -0.263 N 
ATOM      9  C   UNL     1       3.086   0.292   0.352  0.00  0.00    +0.311 C 
ATOM     10  C   UNL     1       1.008  -0.956   0.109  0.00  0.00    +0.071 C 
ATOM     11  C   UNL     1       3.126  -2.228   0.070  0.00  0.00    +0.214 C 
ATOM     12  C   UNL     1       1.642  -2.127   0.008  0.00  0.00    +0.040 C 
ATOM     13  H   UNL     1       4.727  -0.907   0.324  0.00  0.00    +0.153 HD
BRANCH  11  14
ATOM     14  O   UNL     1       3.606  -2.788  -1.143  0.00  0.00    -0.364 OA
ATOM     15  H   UNL     1       4.573  -2.856  -1.107  0.00  0.00    +0.213 HD
ENDBRANCH  11  14
ENDBRANCH   4   7
BRANCH   2  16
ATOM     16  O   UNL     1      -0.545   4.015  -0.183  0.00  0.00    -0.382 OA
ATOM     17  H   UNL     1      -1.410   4.430  -0.036  0.00  0.00    +0.210 HD
ENDBRANCH   2  16
BRANCH   3  18
ATOM     18  C   UNL     1      -2.176   0.668  -0.417  0.00  0.00    +0.186 C 
BRANCH  18  19
ATOM     19  O   UNL     1      -2.748  -0.147   0.594  0.00  0.00    -0.271 OA
BRANCH  19  20
ATOM     20  P   UNL     1      -3.634  -1.425   0.144  0.00  0.00    +0.473 P 
ATOM     21  O   UNL     1      -4.201  -2.232   1.274  0.00  0.00    -0.227 OA
BRANCH  20  22
ATOM     22  O   UNL     1      -2.660  -2.232  -0.863  0.00  0.00    -0.303 OA
ATOM     23  H   UNL     1      -2.343  -1.633  -1.557  0.00  0.00    +0.222 HD
ENDBRANCH  20  22
BRANCH  20  24
ATOM     24  O   UNL     1      -4.732  -0.770  -0.846  0.00  0.00    -0.303 OA
ATOM     25  H   UNL     1      -4.281  -0.269  -1.543  0.00  0.00    +0.222 HD
ENDBRANCH  20  24
ENDBRANCH  19  20
ENDBRANCH  18  19
ENDBRANCH   3  18
TORSDOF 8
