REMARK  Name = 4622
REMARK  5 active torsions:
REMARK  status: ('A' for Active; 'I' for Inactive)
REMARK    1  A    between atoms: N_4  and  C_10
REMARK    2  A    between atoms: C_7  and  O_18
REMARK    3  A    between atoms: C_12  and  O_16
REMARK    4  A    between atoms: O_18  and  C_19
REMARK    5  A    between atoms: C_19  and  C_20
REMARK                            x       y       z     vdW  Elec       q    Type
REMARK                         _______ _______ _______ _____ _____    ______ ____
ROOT
ATOM      1  N   UNL     1       0.726   1.031   0.392  0.00  0.00    -0.302 N 
ATOM      2  N   UNL     1       1.553  -0.959  -0.154  0.00  0.00    -0.302 N 
ATOM      3  C   UNL     1      -0.359   0.198   0.291  0.00  0.00    +0.063 C 
ATOM      4  C   UNL     1       0.183  -1.038  -0.050  0.00  0.00    +0.060 C 
ATOM      5  C   UNL     1      -2.566  -0.689   0.278  0.00  0.00    +0.140 C 
ATOM      6  C   UNL     1      -1.726   0.414   0.464  0.00  0.00    +0.052 C 
ATOM      7  C   UNL     1      -0.675  -2.135  -0.233  0.00  0.00    +0.019 C 
ATOM      8  C   UNL     1       1.845   0.294   0.117  0.00  0.00    +0.229 C 
ATOM      9  C   UNL     1      -2.051  -1.942  -0.065  0.00  0.00    +0.038 C 
ATOM     10  H   UNL     1       0.704   1.988   0.620  0.00  0.00    +0.150 HD
ATOM     11  H   UNL     1       2.179  -1.684  -0.381  0.00  0.00    +0.150 HD
ENDROOT
BRANCH   8  13
ATOM     12  O   UNL     1       4.516  -0.903  -0.406  0.00  0.00    -0.226 OA
ATOM     13  N   UNL     1       3.084   0.878   0.144  0.00  0.00    -0.240 N 
ATOM     14  C   UNL     1       4.313   0.268  -0.111  0.00  0.00    +0.404 C 
ATOM     15  H   UNL     1       3.110   1.837   0.367  0.00  0.00    +0.156 HD
BRANCH  14  16
ATOM     16  O   UNL     1       5.314   1.195   0.018  0.00  0.00    -0.431 OA
ATOM     17  C   UNL     1       6.646   0.720  -0.214  0.00  0.00    +0.257 C 
ENDBRANCH  14  16
ENDBRANCH   8  13
BRANCH   5  18
ATOM     18  O   UNL     1      -3.912  -0.538   0.434  0.00  0.00    -0.475 OA
BRANCH  18  19
ATOM     19  C   UNL     1      -4.458   0.744   0.131  0.00  0.00    +0.205 C 
BRANCH  19  20
ATOM     20  C   UNL     1      -5.894   0.567  -0.340  0.00  0.00    +0.047 C 
ATOM     21  C   UNL     1      -6.538   1.895  -0.697  0.00  0.00    +0.004 C 
ENDBRANCH  19  20
ENDBRANCH  18  19
ENDBRANCH   5  18
TORSDOF 5
