REMARK  Name = 115260
REMARK  13 active torsions:
REMARK  status: ('A' for Active; 'I' for Inactive)
REMARK    1  A    between atoms: N_2  and  CA_5
REMARK    2  A    between atoms: C_3  and  C_18
REMARK    3  A    between atoms: CA_5  and  C_8
REMARK    4  A    between atoms: CA_5  and  CB_15
REMARK    5  A    between atoms: N_7  and  CA_10
REMARK    6  A    between atoms: CA_10  and  C_12
REMARK    7  A    between atoms: C_12  and  O_13
REMARK    8  A    between atoms: CB_15  and  SG_16
REMARK    9  A    between atoms: C_18  and  C_19
REMARK   10  A    between atoms: C_19  and  CA_20
REMARK   11  A    between atoms: CA_20  and  N_21
REMARK   12  A    between atoms: CA_20  and  C_26
REMARK   13  A    between atoms: C_26  and  O_27
REMARK                            x       y       z     vdW  Elec       q    Type
REMARK                         _______ _______ _______ _____ _____    ______ ____
ROOT
ATOM      1  O   UNL     1      -1.398  -0.408  -2.181  0.00  0.00    -0.275 OA
ATOM      2  N   UNL     1      -0.089  -0.285  -0.266  0.00  0.00    -0.298 N 
ATOM      3  C   UNL     1      -1.285  -0.407  -0.958  0.00  0.00    +0.223 C 
ATOM      4  H   UNL     1      -0.111  -0.296   0.718  0.00  0.00    +0.150 HD
ENDROOT
BRANCH   2   5
ATOM      5  CA  UNL     1       1.188  -0.144  -0.928  0.00  0.00    +0.159 C 
BRANCH   5   8
ATOM      6  O   UNL     1       2.027  -1.363   0.995  0.00  0.00    -0.273 OA
ATOM      7  N   UNL     1       3.490  -0.866  -0.735  0.00  0.00    -0.294 N 
ATOM      8  C   ACE A   1       2.253  -0.866  -0.106  0.00  0.00    +0.242 C 
ATOM      9  H   UNL     1       3.571  -0.441  -1.619  0.00  0.00    +0.150 HD
BRANCH   7  10
ATOM     10  CA  UNL     1       4.664  -1.466  -0.145  0.00  0.00    +0.200 C 
BRANCH  10  12
ATOM     11  OXT UNL     1       6.485  -0.810   1.286  0.00  0.00    -0.248 OA
ATOM     12  C   UNL     1       5.452  -0.503   0.704  0.00  0.00    +0.334 C 
BRANCH  12  13
ATOM     13  O   UNL     1       4.908   0.735   0.764  0.00  0.00    -0.479 OA
ATOM     14  H   UNL     1       4.115   0.921   0.301  0.00  0.00    +0.295 HD
ENDBRANCH  12  13
ENDBRANCH  10  12
ENDBRANCH   7  10
ENDBRANCH   5   8
BRANCH   5  15
ATOM     15  CB  UNL     1       1.533   1.319  -1.220  0.00  0.00    +0.086 C 
BRANCH  15  16
ATOM     16  SG  UNL     1       1.721   2.342   0.277  0.00  0.00    -0.137 S 
ATOM     17  C   UNL     1       2.026   3.927  -0.533  0.00  0.00    +0.069 C 
ENDBRANCH  15  16
ENDBRANCH   5  15
ENDBRANCH   2   5
BRANCH   3  18
ATOM     18  C   UNL     1      -2.467  -0.531  -0.012  0.00  0.00    +0.083 C 
BRANCH  18  19
ATOM     19  C   UNL     1      -3.798  -0.667  -0.755  0.00  0.00    -0.001 C 
BRANCH  19  20
ATOM     20  CA  UNL     1      -4.989  -0.866   0.188  0.00  0.00    +0.036 C 
BRANCH  20  21
ATOM     21  N   UNL     1      -6.220  -0.986  -0.596  0.00  0.00    +0.389 N 
ATOM     22  H1  UNL     1      -6.143  -1.781  -1.231  0.00  0.00    -0.088 HD
ATOM     23  H2  UNL     1      -6.364  -0.133  -1.136  0.00  0.00    -0.088 HD
ATOM     24  H3  UNL     1      -7.011  -1.128   0.032  0.00  0.00    -0.088 HD
ENDBRANCH  20  21
BRANCH  20  26
ATOM     25  OXT UNL     1      -5.810   1.338   0.828  0.00  0.00    -0.253 OA
ATOM     26  C   UNL     1      -5.172   0.330   1.105  0.00  0.00    +0.293 C 
BRANCH  26  27
ATOM     27  O   UNL     1      -4.519   0.178   2.287  0.00  0.00    -0.482 OA
ATOM     28  H   UNL     1      -4.042  -0.610   2.460  0.00  0.00    +0.295 HD
ENDBRANCH  26  27
ENDBRANCH  20  26
ENDBRANCH  19  20
ENDBRANCH  18  19
ENDBRANCH   3  18
TORSDOF 13
