REMARK  Name = 6918248
REMARK  5 active torsions:
REMARK  status: ('A' for Active; 'I' for Inactive)
REMARK    1  A    between atoms: N_1  and  C_18
REMARK    2  A    between atoms: N_2  and  C_8
REMARK    3  A    between atoms: C_11  and  C_17
REMARK    4  A    between atoms: C_18  and  C_19
REMARK    5  A    between atoms: C_19  and  N_21
REMARK                            x       y       z     vdW  Elec       q    Type
REMARK                         _______ _______ _______ _____ _____    ______ ____
ROOT
ATOM      1  N   UNL     1      -0.673   1.375  -0.095  0.00  0.00    +0.391 N 
ATOM      2  N   UNL     1       2.159   1.006  -0.183  0.00  0.00    -0.312 N 
ATOM      3  C   UNL     1      -0.059   0.192   0.520  0.00  0.00    -0.055 C 
ATOM      4  C   UNL     1       0.093   1.774  -1.283  0.00  0.00    -0.055 C 
ATOM      5  C   UNL     1       1.382   0.480   0.947  0.00  0.00    +0.068 C 
ATOM      6  C   UNL     1       1.539   2.114  -0.916  0.00  0.00    +0.068 C 
ATOM      7  H   UNL     1      -0.658   2.142   0.578  0.00  0.00    -0.079 HD
ENDROOT
BRANCH   2   8
ATOM      8  C   UNL     1       3.553   0.904  -0.126  0.00  0.00    +0.048 C 
ATOM      9  C   UNL     1       4.186  -0.351  -0.027  0.00  0.00    +0.018 C 
ATOM     10  C   UNL     1       4.367   2.054  -0.167  0.00  0.00    +0.015 C 
ATOM     11  C   UNL     1       5.576  -0.452   0.029  0.00  0.00    +0.073 C 
ATOM     12  C   UNL     1       5.757   1.953  -0.112  0.00  0.00    +0.001 C 
ATOM     13  C   UNL     1       6.362   0.700  -0.013  0.00  0.00    +0.004 C 
BRANCH  11  17
ATOM     14  F   UNL     1       7.587  -1.738   0.181  0.00  0.00    -0.166 F 
ATOM     15  F   UNL     1       5.856  -2.489   1.250  0.00  0.00    -0.166 F 
ATOM     16  F   UNL     1       5.924  -2.604  -0.920  0.00  0.00    -0.166 F 
ATOM     17  C   UNL     1       6.223  -1.791   0.135  0.00  0.00    +0.419 C 
ENDBRANCH  11  17
ENDBRANCH   2   8
BRANCH   1  18
ATOM     18  C   UNL     1      -2.066   1.105  -0.449  0.00  0.00    -0.052 C 
BRANCH  18  19
ATOM     19  C   UNL     1      -2.874   0.776   0.797  0.00  0.00    +0.088 C 
BRANCH  19  21
ATOM     20  O   UNL     1      -5.181   2.718   0.662  0.00  0.00    -0.247 OA
ATOM     21  N   UNL     1      -4.254   0.535   0.474  0.00  0.00    -0.282 N 
ATOM     22  N   UNL     1      -6.472   0.827   0.073  0.00  0.00    -0.305 N 
ATOM     23  C   UNL     1      -4.811  -0.712   0.145  0.00  0.00    +0.079 A 
ATOM     24  C   UNL     1      -5.282   1.521   0.435  0.00  0.00    +0.328 A 
ATOM     25  C   UNL     1      -6.170  -0.525  -0.099  0.00  0.00    +0.076 A 
ATOM     26  C   UNL     1      -4.226  -1.958   0.049  0.00  0.00    +0.019 C 
ATOM     27  C   UNL     1      -7.008  -1.561  -0.449  0.00  0.00    +0.019 C 
ATOM     28  C   UNL     1      -5.057  -3.026  -0.305  0.00  0.00    +0.002 C 
ATOM     29  C   UNL     1      -6.432  -2.830  -0.551  0.00  0.00    +0.002 C 
ATOM     30  H   UNL     1      -7.361   1.234  -0.038  0.00  0.00    +0.170 HD
ENDBRANCH  19  21
ENDBRANCH  18  19
ENDBRANCH   1  18
TORSDOF 5
