REMARK  Name = 5289389
REMARK  8 active torsions:
REMARK  status: ('A' for Active; 'I' for Inactive)
REMARK    1  A    between atoms: N_2  and  S_15
REMARK    2  A    between atoms: C_4  and  C_11
REMARK    3  A    between atoms: C_8  and  O_26
REMARK    4  A    between atoms: N_10  and  O_13
REMARK    5  A    between atoms: S_15  and  C_18
REMARK    6  A    between atoms: C_23  and  O_24
REMARK    7  A    between atoms: O_26  and  C_27
REMARK    8  A    between atoms: C_27  and  C_28
REMARK                            x       y       z     vdW  Elec       q    Type
REMARK                         _______ _______ _______ _____ _____    ______ ____
ROOT
ATOM      1  O   UNL     1      -2.313  -0.613  -2.659  0.00  0.00    -0.226 OA
ATOM      2  N   UNL     1       1.256  -0.890   0.852  0.00  0.00    -0.145 NA
ATOM      3  N   UNL     1      -0.972  -0.189  -0.807  0.00  0.00    -0.243 N 
ATOM      4  C   UNL     1       1.156  -1.449  -0.527  0.00  0.00    +0.177 C 
ATOM      5  C   UNL     1       0.268  -0.619  -1.451  0.00  0.00    +0.124 C 
ATOM      6  C   UNL     1       0.564   0.410   1.050  0.00  0.00    +0.118 C 
ATOM      7  C   UNL     1      -0.876   0.288   0.573  0.00  0.00    +0.116 C 
ATOM      8  C   UNL     1      -2.184  -0.221  -1.501  0.00  0.00    +0.405 C 
ENDROOT
BRANCH   4  11
ATOM      9  O   UNL     1      -0.532  -2.994   0.128  0.00  0.00    -0.271 OA
ATOM     10  N   UNL     1       1.458  -3.814  -0.718  0.00  0.00    -0.196 N 
ATOM     11  C   UNL     1       0.596  -2.822  -0.330  0.00  0.00    +0.262 C 
ATOM     12  H   UNL     1       2.353  -3.618  -1.079  0.00  0.00    +0.182 HD
BRANCH  10  13
ATOM     13  O   UNL     1       0.984  -5.124  -0.568  0.00  0.00    -0.295 OA
ATOM     14  H   UNL     1       1.663  -5.749  -0.868  0.00  0.00    +0.241 HD
ENDBRANCH  10  13
ENDBRANCH   4  11
BRANCH   2  15
ATOM     15  S   UNL     1       2.758  -1.073   1.648  0.00  0.00    +0.064 S 
ATOM     16  O   UNL     1       3.372  -2.313   1.222  0.00  0.00    -0.153 OA
ATOM     17  O   UNL     1       2.586  -0.771   3.053  0.00  0.00    -0.153 OA
BRANCH  15  18
ATOM     18  C   UNL     1       3.661   0.255   0.914  0.00  0.00    +0.122 C 
ATOM     19  C   UNL     1       3.643   1.519   1.502  0.00  0.00    +0.023 C 
ATOM     20  C   UNL     1       4.393   0.038  -0.254  0.00  0.00    +0.023 C 
ATOM     21  C   UNL     1       4.356   2.568   0.921  0.00  0.00    +0.038 C 
ATOM     22  C   UNL     1       5.106   1.087  -0.834  0.00  0.00    +0.038 C 
ATOM     23  C   UNL     1       5.087   2.352  -0.246  0.00  0.00    +0.139 C 
BRANCH  23  24
ATOM     24  O   UNL     1       5.783   3.376  -0.813  0.00  0.00    -0.471 OA
ATOM     25  C   UNL     1       6.508   3.086  -2.007  0.00  0.00    +0.252 C 
ENDBRANCH  23  24
ENDBRANCH  15  18
ENDBRANCH   2  15
BRANCH   8  26
ATOM     26  O   UNL     1      -3.230   0.233  -0.740  0.00  0.00    -0.430 OA
BRANCH  26  27
ATOM     27  C   UNL     1      -4.515   0.231  -1.371  0.00  0.00    +0.237 C 
BRANCH  27  28
ATOM     28  C   UNL     1      -5.536   0.755  -0.405  0.00  0.00    +0.021 C 
ATOM     29  C   UNL     1      -6.206  -0.125   0.446  0.00  0.00    -0.001 C 
ATOM     30  C   UNL     1      -5.816   2.120  -0.357  0.00  0.00    -0.001 C 
ATOM     31  C   UNL     1      -7.156   0.362   1.345  0.00  0.00    -0.000 C 
ATOM     32  C   UNL     1      -6.765   2.607   0.542  0.00  0.00    -0.000 C 
ATOM     33  C   UNL     1      -7.435   1.728   1.393  0.00  0.00    -0.000 C 
ENDBRANCH  27  28
ENDBRANCH  26  27
ENDBRANCH   8  26
TORSDOF 8
