REMARK  Name = 5330608
REMARK  5 active torsions:
REMARK  status: ('A' for Active; 'I' for Inactive)
REMARK    1  A    between atoms: C_6  and  C_11
REMARK    2  A    between atoms: C_11  and  C_14
REMARK    3  A    between atoms: N_20  and  C_22
REMARK    4  A    between atoms: C_23  and  S_28
REMARK    5  A    between atoms: S_28  and  N_31
REMARK                            x       y       z     vdW  Elec       q    Type
REMARK                         _______ _______ _______ _____ _____    ______ ____
ROOT
ATOM      1  N   UNL     1      -0.794  -1.321   0.036  0.00  0.00    -0.253 N 
ATOM      2  N   UNL     1       0.999   0.015  -0.026  0.00  0.00    -0.374 NA
ATOM      3  C   UNL     1      -0.318  -0.013  -0.017  0.00  0.00    +0.189 C 
ATOM      4  C   UNL     1       1.389  -1.299   0.022  0.00  0.00    +0.183 C 
ATOM      5  C   UNL     1       0.304  -2.143   0.061  0.00  0.00    +0.173 C 
ATOM      6  C   UNL     1      -3.053  -0.658   0.024  0.00  0.00    +0.054 C 
ATOM      7  C   UNL     1      -2.147  -1.650   0.057  0.00  0.00    +0.071 C 
ATOM      8  C   UNL     1      -1.290   1.030  -0.052  0.00  0.00    +0.048 C 
ATOM      9  C   UNL     1      -2.601   0.724  -0.032  0.00  0.00    +0.008 C 
ATOM     10  N   UNL     1       2.684  -1.682   0.030  0.00  0.00    -0.290 N 
ATOM     11  H   UNL     1       2.792  -2.659   0.066  0.00  0.00    +0.154 HD
ENDROOT
BRANCH  10  12
ATOM     12  C   UNL     1       3.950  -0.976  -0.004  0.00  0.00    +0.050 C 
ATOM     13  C   UNL     1       6.352   0.362  -0.068  0.00  0.00    +0.122 C 
ATOM     14  C   UNL     1       5.113  -1.710   0.019  0.00  0.00    +0.016 C 
ATOM     15  C   UNL     1       3.936   0.398  -0.057  0.00  0.00    +0.016 C 
ATOM     16  C   UNL     1       6.331  -1.031  -0.014  0.00  0.00    +0.021 C 
ATOM     17  C   UNL     1       5.154   1.077  -0.090  0.00  0.00    +0.021 C 
BRANCH  13  18
ATOM     18  S   UNL     1       7.876   1.212  -0.110  0.00  0.00    +0.057 S 
ATOM     19  O   UNL     1       8.888   0.314  -0.650  0.00  0.00    -0.153 OA
ATOM     20  O   UNL     1       7.663   2.515  -0.726  0.00  0.00    -0.153 OA
BRANCH  18  21
ATOM     21  N   UNL     1       8.171   1.436   1.558  0.00  0.00    -0.203 NA
ATOM     22  H   UNL     1       9.053   1.932   1.684  0.00  0.00    +0.144 HD
ATOM     23  H   UNL     1       8.224   0.527   2.018  0.00  0.00    +0.144 HD
ENDBRANCH  18  21
ENDBRANCH  13  18
ENDBRANCH  10  12
BRANCH   6  25
ATOM     24  O   UNL     1      -4.840  -2.172   0.113  0.00  0.00    -0.286 OA
ATOM     25  C   UNL     1      -4.475  -0.998   0.045  0.00  0.00    +0.198 C 
BRANCH  25  28
ATOM     26 CL   UNL     1      -5.329   0.129   2.739  0.00  0.00    -0.082 Cl
ATOM     27 CL   UNL     1      -5.442  -0.156  -2.713  0.00  0.00    -0.082 Cl
ATOM     28  C   UNL     1      -5.486   0.094   0.009  0.00  0.00    +0.060 C 
ATOM     29  C   UNL     1      -5.918   0.648   1.199  0.00  0.00    +0.062 C 
ATOM     30  C   UNL     1      -5.967   0.522  -1.213  0.00  0.00    +0.062 C 
ATOM     31  C   UNL     1      -6.867   1.670   1.165  0.00  0.00    +0.012 C 
ATOM     32  C   UNL     1      -6.916   1.544  -1.247  0.00  0.00    +0.012 C 
ATOM     33  C   UNL     1      -7.366   2.118  -0.058  0.00  0.00    +0.002 C 
ENDBRANCH  25  28
ENDBRANCH   6  25
TORSDOF 5
