REMARK  Name = 7264
REMARK  2 active torsions:
REMARK  status: ('A' for Active; 'I' for Inactive)
REMARK    1  A    between atoms: C_2  and  N_8
REMARK    2  A    between atoms: C_5  and  O_11
REMARK                            x       y       z     vdW  Elec       q    Type
REMARK                         _______ _______ _______ _____ _____    ______ ____
ROOT
ATOM      1  C   UNL     1       1.556  -0.081   0.000  0.00  0.00    -0.020 C 
ATOM      2  C   UNL     1      -0.753  -0.791   0.000  0.00  0.00    +0.075 C 
ATOM      3  C   UNL     1       0.607  -1.103   0.000  0.00  0.00    +0.013 C 
ATOM      4  C   UNL     1       1.146   1.252   0.000  0.00  0.00    -0.001 C 
ATOM      5  C   UNL     1      -1.163   0.542   0.000  0.00  0.00    +0.146 C 
ATOM      6  C   UNL     1      -0.214   1.563   0.000  0.00  0.00    +0.038 C 
ATOM      7  C   UNL     1       3.010  -0.413   0.000  0.00  0.00    +0.031 C 
ENDROOT
BRANCH   2   8
ATOM      8  N   UNL     1      -1.703  -1.836   0.000  0.00  0.00    -0.355 N 
ATOM      9  H   UNL     1      -1.404  -2.774   0.000  0.00  0.00    +0.142 HD
ATOM     10  H   UNL     1      -2.665  -1.626   0.001  0.00  0.00    +0.142 HD
ENDBRANCH   2   8
BRANCH   5  11
ATOM     11  O   UNL     1      -2.487   0.867  -0.001  0.00  0.00    -0.504 OA
ATOM     12  H   UNL     1      -3.135   0.190  -0.001  0.00  0.00    +0.292 HD
ENDBRANCH   5  11
TORSDOF 2
