REMARK  Name = 5459373
REMARK  4 active torsions:
REMARK  status: ('A' for Active; 'I' for Inactive)
REMARK    1  A    between atoms: N_1  and  C_21
REMARK    2  A    between atoms: C_8  and  C_12
REMARK    3  A    between atoms: C_15  and  C_19
REMARK    4  A    between atoms: C_21  and  C_22
REMARK                            x       y       z     vdW  Elec       q    Type
REMARK                         _______ _______ _______ _____ _____    ______ ____
ROOT
ATOM      1  N   UNL     1      -3.017  -2.092   0.398  0.00  0.00    -0.317 N 
ATOM      2  N   UNL     1      -1.533   1.087  -0.037  0.00  0.00    -0.170 N 
ATOM      3  N   UNL     1      -1.624  -0.233   0.274  0.00  0.00    -0.158 NA
ATOM      4  N   UNL     1      -2.103   3.138  -0.698  0.00  0.00    -0.226 NA
ATOM      5  C   UNL     1      -2.815  -0.761   0.112  0.00  0.00    +0.147 C 
ATOM      6  C   UNL     1      -3.990   0.037  -0.381  0.00  0.00    +0.039 C 
ATOM      7  C   UNL     1      -2.541   1.911  -0.496  0.00  0.00    +0.155 C 
ATOM      8  C   UNL     1      -0.398   1.850   0.051  0.00  0.00    +0.095 C 
ATOM      9  C   UNL     1      -3.815   1.331  -0.665  0.00  0.00    +0.039 C 
ATOM     10  C   UNL     1      -0.775   3.106  -0.360  0.00  0.00    +0.117 C 
ATOM     11  H   UNL     1      -3.915  -2.476   0.273  0.00  0.00    +0.148 HD
ENDROOT
BRANCH   8  12
ATOM     12  C   UNL     1       0.882   1.355   0.495  0.00  0.00    +0.017 C 
ATOM     13  C   UNL     1       1.785   0.828  -0.428  0.00  0.00    +0.004 C 
ATOM     14  C   UNL     1       1.218   1.404   1.849  0.00  0.00    +0.001 C 
ATOM     15  C   UNL     1       3.022   0.349   0.001  0.00  0.00    +0.035 C 
ATOM     16  C   UNL     1       2.455   0.925   2.278  0.00  0.00    +0.000 C 
ATOM     17  C   UNL     1       3.358   0.398   1.354  0.00  0.00    +0.003 C 
BRANCH  15  19
ATOM     18  O   UNL     1       5.078  -0.637  -0.605  0.00  0.00    -0.291 OA
ATOM     19  C   UNL     1       3.965  -0.202  -0.960  0.00  0.00    +0.173 C 
ATOM     20  C   UNL     1       3.606  -0.259  -2.441  0.00  0.00    +0.077 C 
ENDBRANCH  15  19
ENDBRANCH   8  12
BRANCH   1  21
ATOM     21  C   UNL     1      -1.966  -2.933   0.872  0.00  0.00    +0.088 C 
BRANCH  21  22
ATOM     22  C   UNL     1      -1.115  -3.403  -0.263  0.00  0.00    +0.020 C 
ATOM     23  C   UNL     1       0.036  -4.313   0.026  0.00  0.00    +0.002 C 
ATOM     24  C   UNL     1       0.286  -2.889  -0.377  0.00  0.00    +0.002 C 
ENDBRANCH  21  22
ENDBRANCH   1  21
TORSDOF 4
