REMARK  Name = 448999
REMARK  8 active torsions:
REMARK  status: ('A' for Active; 'I' for Inactive)
REMARK    1  A    between atoms: N_2  and  C_15
REMARK    2  A    between atoms: C_15  and  C_16
REMARK    3  A    between atoms: C_16  and  C_17
REMARK    4  A    between atoms: C_17  and  C_18
REMARK    5  A    between atoms: C_18  and  C_21
REMARK    6  A    between atoms: C_21  and  P_22
REMARK    7  A    between atoms: P_22  and  O_24
REMARK    8  A    between atoms: P_22  and  O_26
REMARK                            x       y       z     vdW  Elec       q    Type
REMARK                         _______ _______ _______ _____ _____    ______ ____
ROOT
ATOM      1  O   UNL     1       3.998   1.698   1.536  0.00  0.00    -0.208 OA
ATOM      2  N   UNL     1       1.757  -1.842  -0.118  0.00  0.00    -0.232 NA
ATOM      3  N   UNL     1       1.531   0.243  -1.342  0.00  0.00    -0.279 N 
ATOM      4  N   UNL     1       3.113  -1.114   1.494  0.00  0.00    -0.241 NA
ATOM      5  N   UNL     1       2.760   2.073  -0.387  0.00  0.00    -0.301 NA
ATOM      6  N   UNL     1       1.465   2.327  -2.340  0.00  0.00    -0.320 N 
ATOM      7  C   UNL     1       1.984  -0.540  -0.360  0.00  0.00    +0.189 C 
ATOM      8  C   UNL     1       2.457  -2.157   1.014  0.00  0.00    +0.203 C 
ATOM      9  C   UNL     1       2.814  -0.100   0.629  0.00  0.00    +0.183 C 
ATOM     10  C   UNL     1       3.254   1.281   0.657  0.00  0.00    +0.224 C 
ATOM     11  C   UNL     1       1.958   1.569  -1.308  0.00  0.00    +0.245 C 
ATOM     12  H   UNL     1       0.932  -0.095  -2.047  0.00  0.00    +0.152 HD
ATOM     13  H   UNL     1       0.869   1.919  -3.010  0.00  0.00    +0.146 HD
ATOM     14  H   UNL     1       1.706   3.279  -2.411  0.00  0.00    +0.146 HD
ENDROOT
BRANCH   2  15
ATOM     15  C   UNL     1       0.932  -2.760  -0.895  0.00  0.00    +0.076 C 
BRANCH  15  16
ATOM     16  C   UNL     1      -0.530  -2.812  -0.444  0.00  0.00    +0.018 C 
BRANCH  16  17
ATOM     17  C   UNL     1      -1.236  -1.457  -0.548  0.00  0.00    +0.008 C 
BRANCH  17  18
ATOM     18  C   UNL     1      -2.710  -1.568  -0.163  0.00  0.00    +0.079 C 
BRANCH  18  21
ATOM     19  F   UNL     1      -4.730  -0.408   0.121  0.00  0.00    -0.191 F 
ATOM     20  F   UNL     1      -3.407   0.283  -1.468  0.00  0.00    -0.191 F 
ATOM     21  C   UNL     1      -3.434  -0.248  -0.229  0.00  0.00    +0.354 C 
BRANCH  21  22
ATOM     22  P   UNL     1      -2.975   1.108   0.781  0.00  0.00    +0.397 P 
ATOM     23  O   UNL     1      -1.567   1.587   0.586  0.00  0.00    -0.253 OA
BRANCH  22  24
ATOM     24  O   UNL     1      -3.318   0.613   2.282  0.00  0.00    -0.320 OA
ATOM     25  H   UNL     1      -3.091   1.314   2.913  0.00  0.00    +0.220 HD
ENDBRANCH  22  24
BRANCH  22  26
ATOM     26  O   UNL     1      -4.114   2.223   0.504  0.00  0.00    -0.320 OA
ATOM     27  H   UNL     1      -3.927   3.014   1.034  0.00  0.00    +0.220 HD
ENDBRANCH  22  26
ENDBRANCH  21  22
ENDBRANCH  18  21
ENDBRANCH  17  18
ENDBRANCH  16  17
ENDBRANCH  15  16
ENDBRANCH   2  15
TORSDOF 8
