REMARK  Name = 448976
REMARK  5 active torsions:
REMARK  status: ('A' for Active; 'I' for Inactive)
REMARK    1  A    between atoms: N_2  and  C_14
REMARK    2  A    between atoms: C_6  and  C_18
REMARK    3  A    between atoms: C_14  and  C_15
REMARK    4  A    between atoms: C_15  and  C_16
REMARK    5  A    between atoms: C_18  and  C_21
REMARK                            x       y       z     vdW  Elec       q    Type
REMARK                         _______ _______ _______ _____ _____    ______ ____
ROOT
ATOM      1  F   UNL     1       5.307   2.379   0.197  0.00  0.00    -0.098 F 
ATOM      2  N   UNL     1       1.720  -0.625   0.510  0.00  0.00    -0.238 N 
ATOM      3  N   UNL     1       0.188   0.860  -0.136  0.00  0.00    -0.383 NA
ATOM      4  N   UNL     1       3.712   0.761   0.411  0.00  0.00    -0.299 NA
ATOM      5  N   UNL     1       3.177   3.031  -0.309  0.00  0.00    -0.300 NA
ATOM      6  C   UNL     1       0.425  -0.356   0.242  0.00  0.00    +0.170 C 
ATOM      7  C   UNL     1       2.396   0.539   0.280  0.00  0.00    +0.237 C 
ATOM      8  C   UNL     1       1.428   1.448  -0.119  0.00  0.00    +0.222 C 
ATOM      9  C   UNL     1       1.860   2.736  -0.419  0.00  0.00    +0.225 C 
ATOM     10  C   UNL     1       4.010   2.040   0.094  0.00  0.00    +0.300 C 
ATOM     11  N   UNL     1       0.947   3.720  -0.834  0.00  0.00    -0.330 N 
ATOM     12  H   UNL     1       1.264   4.628  -1.044  0.00  0.00    +0.145 HD
ATOM     13  H   UNL     1      -0.010   3.502  -0.915  0.00  0.00    +0.145 HD
ENDROOT
BRANCH   2  14
ATOM     14  C   UNL     1       2.299  -1.874   0.948  0.00  0.00    +0.100 C 
BRANCH  14  15
ATOM     15  C   UNL     1       2.727  -2.752  -0.228  0.00  0.00    +0.022 C 
BRANCH  15  16
ATOM     16  C   UNL     1       3.325  -4.071   0.258  0.00  0.00    +0.002 C 
ATOM     17  C   UNL     1       3.717  -4.967  -0.906  0.00  0.00    +0.000 C 
ENDBRANCH  15  16
ENDBRANCH  14  15
ENDBRANCH   2  14
BRANCH   6  18
ATOM     18  C   UNL     1      -0.634  -1.430   0.386  0.00  0.00    +0.102 C 
BRANCH  18  21
ATOM     19  O   UNL     1      -5.010   0.559   1.513  0.00  0.00    -0.435 OA
ATOM     20  O   UNL     1      -5.808   0.374  -0.754  0.00  0.00    -0.435 OA
ATOM     21  C   UNL     1      -2.009  -0.959   0.047  0.00  0.00    -0.011 C 
ATOM     22  C   UNL     1      -2.821  -0.414   1.044  0.00  0.00    +0.036 C 
ATOM     23  C   UNL     1      -2.474  -1.067  -1.276  0.00  0.00    -0.000 C 
ATOM     24  C   UNL     1      -4.084   0.008   0.682  0.00  0.00    +0.176 C 
ATOM     25  C   UNL     1      -4.540  -0.098  -0.612  0.00  0.00    +0.176 C 
ATOM     26  C   UNL     1      -3.758  -0.632  -1.616  0.00  0.00    +0.040 C 
ATOM     27  C   UNL     1      -6.100   0.789   0.596  0.00  0.00    +0.429 C 
ENDBRANCH  18  21
ENDBRANCH   6  18
TORSDOF 5
