5287648
  -OEChem-10051720303D

 22 21  0     0  0  0  0  0  0999 V2000
   -2.1788   -1.9496    0.0881 O   0  0  0  0  0  0  0  0  0  0  0  0
    3.8580   -0.7898   -0.0868 N   0  3  0  0  0  0  0  0  0  0  0  0
   -0.3662    0.0551    0.2099 N   0  0  0  0  0  0  0  0  0  0  0  0
   -2.5978   -0.6381    0.0262 N   0  0  0  0  0  0  0  0  0  0  0  0
   -2.1477    1.5558   -0.3509 N   0  0  0  0  0  0  0  0  0  0  0  0
    1.9828    0.6771    0.4855 C   0  0  0  0  0  0  0  0  0  0  0  0
    2.4784   -0.4014   -0.4694 C   0  0  0  0  0  0  0  0  0  0  0  0
    0.5842    1.1651    0.1255 C   0  0  0  0  0  0  0  0  0  0  0  0
   -1.6128    0.3257   -0.0281 C   0  0  0  0  0  0  0  0  0  0  0  0
    1.9804    0.2859    1.5107 H   0  0  0  0  0  0  0  0  0  0  0  0
    2.6705    1.5315    0.4704 H   0  0  0  0  0  0  0  0  0  0  0  0
    2.5257   -0.0428   -1.5018 H   0  0  0  0  0  0  0  0  0  0  0  0
    1.8739   -1.3116   -0.4227 H   0  0  0  0  0  0  0  0  0  0  0  0
    0.5966    1.5836   -0.8882 H   0  0  0  0  0  0  0  0  0  0  0  0
    0.3061    1.9600    0.8280 H   0  0  0  0  0  0  0  0  0  0  0  0
    3.8950   -1.1637    0.8709 H   0  0  0  0  0  0  0  0  0  0  0  0
    4.5044    0.0091   -0.1345 H   0  0  0  0  0  0  0  0  0  0  0  0
    4.2248   -1.5179   -0.7140 H   0  0  0  0  0  0  0  0  0  0  0  0
   -3.5563   -0.4724   -0.2609 H   0  0  0  0  0  0  0  0  0  0  0  0
   -3.1427    1.6646   -0.5154 H   0  0  0  0  0  0  0  0  0  0  0  0
   -1.5773    2.3893   -0.4380 H   0  0  0  0  0  0  0  0  0  0  0  0
   -2.9037   -2.3666    0.5839 H   0  0  0  0  0  0  0  0  0  0  0  0
  1  4  1  0  0  0  0
  1 22  1  0  0  0  0
  2  7  1  0  0  0  0
  2 16  1  0  0  0  0
  2 17  1  0  0  0  0
  2 18  1  0  0  0  0
  3  8  1  0  0  0  0
  3  9  2  0  0  0  0
  4  9  1  0  0  0  0
  4 19  1  0  0  0  0
  5  9  1  0  0  0  0
  5 20  1  0  0  0  0
  5 21  1  0  0  0  0
  6  7  1  0  0  0  0
  6  8  1  0  0  0  0
  6 10  1  0  0  0  0
  6 11  1  0  0  0  0
  7 12  1  0  0  0  0
  7 13  1  0  0  0  0
  8 14  1  0  0  0  0
  8 15  1  0  0  0  0
M  CHG  1   2   1
M  END
> <DATABASE_ID>
DB04197

> <DATABASE_NAME>
drugbank

> <ORIGINAL_SOURCE>
PUBCHEM

> <ORIGINAL_SOURCE_URL>
https://pubchem.ncbi.nlm.nih.gov/rest/pug/compound/inchikey/HYBLXYGPQAIGPY-UHFFFAOYSA-O/SDF?record_type=3d

> <SMILES>
N\C(NO)=N/CCC[NH3+]

> <INCHI_IDENTIFIER>
InChI=1S/C4H12N4O/c5-2-1-3-7-4(6)8-9/h9H,1-3,5H2,(H3,6,7,8)/p+1

> <INCHI_KEY>
HYBLXYGPQAIGPY-UHFFFAOYSA-O

> <FORMULA>
C4H13N4O

> <MOLECULAR_WEIGHT>
133.1722

> <EXACT_MASS>
133.108936058

> <JCHEM_ACCEPTOR_COUNT>
4

> <JCHEM_AVERAGE_POLARIZABILITY>
14.413357379869652

> <JCHEM_BIOAVAILABILITY>
1

> <JCHEM_DONOR_COUNT>
4

> <JCHEM_FORMAL_CHARGE>
1

> <JCHEM_GHOSE_FILTER>
0

> <JCHEM_IUPAC>
(E)-2-(3-azaniumylpropyl)-1-hydroxyguanidine

> <ALOGPS_LOGP>
-2.93

> <JCHEM_LOGP>
-1.6885354129999999

> <ALOGPS_LOGS>
-1.57

> <JCHEM_MDDR_LIKE_RULE>
0

> <JCHEM_NUMBER_OF_RINGS>
0

> <JCHEM_PHYSIOLOGICAL_CHARGE>
2

> <JCHEM_PKA_STRONGEST_ACIDIC>
14.81972196958484

> <JCHEM_PKA_STRONGEST_BASIC>
10.306646562250027

> <JCHEM_POLAR_SURFACE_AREA>
98.28

> <JCHEM_REFRACTIVITY>
56.706

> <JCHEM_ROTATABLE_BOND_COUNT>
3

> <JCHEM_RULE_OF_FIVE>
1

> <ALOGPS_SOLUBILITY>
4.52e+00 g/l

> <JCHEM_TRADITIONAL_IUPAC>
(E)-2-(3-ammoniopropyl)-1-hydroxyguanidine

> <JCHEM_VEBER_RULE>
0

> <DRUGBANK_ID>
DB04197

> <SECONDARY_ACCESSION_NUMBERS>
EXPT00467

> <DRUG_GROUPS>
experimental

> <GENERIC_NAME>
Descarboxy-nor-N(Omega)-Hydroxy-L-Arginine

$$$$
