REMARK  Name = 40632
REMARK  1 active torsions:
REMARK  status: ('A' for Active; 'I' for Inactive)
REMARK    1  A    between atoms: N_2  and  C_9
REMARK                            x       y       z     vdW  Elec       q    Type
REMARK                         _______ _______ _______ _____ _____    ______ ____
ROOT
ATOM      1  O   UNL     1       0.315   2.412  -0.376  0.00  0.00    -0.269 OA
ATOM      2  N   UNL     1       0.390   0.074  -0.003  0.00  0.00    -0.233 N 
ATOM      3  C   UNL     1       1.241  -1.028   0.116  0.00  0.00    +0.068 C 
ATOM      4  C   UNL     1       2.578  -0.925   0.117  0.00  0.00    -0.006 C 
ATOM      5  C   UNL     1       0.936   1.371  -0.165  0.00  0.00    +0.257 C 
ATOM      6  C   UNL     1       3.180   0.378  -0.003  0.00  0.00    +0.002 C 
ATOM      7  C   UNL     1       2.426   1.472  -0.126  0.00  0.00    +0.058 C 
ATOM      8  C   UNL     1       3.494  -2.100   0.260  0.00  0.00    +0.032 C 
ENDROOT
BRANCH   2   9
ATOM      9  C   UNL     1      -1.050  -0.105   0.014  0.00  0.00    +0.058 C 
ATOM     10  C   UNL     1      -1.603  -1.286  -0.469  0.00  0.00    +0.015 C 
ATOM     11  C   UNL     1      -1.863   0.907   0.512  0.00  0.00    +0.015 C 
ATOM     12  C   UNL     1      -2.987  -1.458  -0.452  0.00  0.00    +0.001 C 
ATOM     13  C   UNL     1      -3.248   0.735   0.529  0.00  0.00    +0.001 C 
ATOM     14  C   UNL     1      -3.809  -0.448   0.047  0.00  0.00    +0.000 C 
ENDBRANCH   2   9
TORSDOF 1
