REMARK  Name = 2788
REMARK  1 active torsions:
REMARK  status: ('A' for Active; 'I' for Inactive)
REMARK    1  A    between atoms: C_6  and  O_13
REMARK                            x       y       z     vdW  Elec       q    Type
REMARK                         _______ _______ _______ _____ _____    ______ ____
ROOT
ATOM      1  I   UNL     1      -4.028   0.402  -0.001  0.00  0.00    -0.039 I 
ATOM      2 CL   UNL     1       0.205  -3.324  -0.001  0.00  0.00    -0.082 Cl
ATOM      3  N   UNL     1       1.232   1.748   0.000  0.00  0.00    -0.241 NA
ATOM      4  C   UNL     1       0.746  -0.612   0.000  0.00  0.00    +0.031 C 
ATOM      5  C   UNL     1       0.341   0.739   0.000  0.00  0.00    +0.116 C 
ATOM      6  C   UNL     1      -1.024   1.013   0.001  0.00  0.00    +0.156 C 
ATOM      7  C   UNL     1      -0.212  -1.641   0.001  0.00  0.00    +0.060 C 
ATOM      8  C   UNL     1       2.120  -0.889   0.000  0.00  0.00    +0.004 C 
ATOM      9  C   UNL     1      -1.977  -0.009   0.001  0.00  0.00    +0.066 C 
ATOM     10  C   UNL     1      -1.570  -1.337   0.001  0.00  0.00    +0.020 C 
ATOM     11  C   UNL     1       3.041   0.148   0.000  0.00  0.00    +0.021 C 
ATOM     12  C   UNL     1       2.549   1.438   0.000  0.00  0.00    +0.099 C 
ENDROOT
BRANCH   6  13
ATOM     13  O   UNL     1      -1.423   2.324   0.000  0.00  0.00    -0.504 OA
ATOM     14  H   UNL     1      -0.783   3.008   0.000  0.00  0.00    +0.292 HD
ENDBRANCH   6  13
TORSDOF 1
