REMARK  Name = 445009
REMARK  11 active torsions:
REMARK  status: ('A' for Active; 'I' for Inactive)
REMARK    1  A    between atoms: C_2  and  C_10
REMARK    2  A    between atoms: C_3  and  C_21
REMARK    3  A    between atoms: C_4  and  O_8
REMARK    4  A    between atoms: C_10  and  N_11
REMARK    5  A    between atoms: N_11  and  C_14
REMARK    6  A    between atoms: C_14  and  C_18
REMARK    7  A    between atoms: C_18  and  O_19
REMARK    8  A    between atoms: C_21  and  O_22
REMARK    9  A    between atoms: O_22  and  P_23
REMARK   10  A    between atoms: P_23  and  O_25
REMARK   11  A    between atoms: P_23  and  O_27
REMARK                            x       y       z     vdW  Elec       q    Type
REMARK                         _______ _______ _______ _____ _____    ______ ____
ROOT
ATOM      1  N   UNL     1       0.811  -3.689   0.402  0.00  0.00    -0.245 NA
ATOM      2  C   UNL     1      -0.248  -1.155  -0.053  0.00  0.00    -0.009 C 
ATOM      3  C   UNL     1       1.047  -1.283   0.423  0.00  0.00    +0.024 C 
ATOM      4  C   UNL     1      -1.020  -2.277  -0.304  0.00  0.00    +0.141 C 
ATOM      5  C   UNL     1      -0.447  -3.515  -0.062  0.00  0.00    +0.092 C 
ATOM      6  C   UNL     1       1.527  -2.566   0.633  0.00  0.00    +0.096 C 
ATOM      7  C   UNL     1      -1.227  -4.764  -0.312  0.00  0.00    +0.055 C 
ENDROOT
BRANCH   4   8
ATOM      8  O   UNL     1      -2.291  -2.171  -0.771  0.00  0.00    -0.505 OA
ATOM      9  H   UNL     1      -2.664  -1.326  -0.930  0.00  0.00    +0.292 HD
ENDBRANCH   4   8
BRANCH   2  10
ATOM     10  C   UNL     1      -0.824   0.214  -0.300  0.00  0.00    -0.050 C 
BRANCH  10  11
ATOM     11  N   UNL     1      -1.493   0.741   0.877  0.00  0.00    +0.396 N 
ATOM     12  H   UNL     1      -2.251   0.111   1.141  0.00  0.00    -0.083 HD
ATOM     13  H   UNL     1      -0.815   0.815   1.635  0.00  0.00    -0.083 HD
BRANCH  11  14
ATOM     14  C   UNL     1      -2.045   2.071   0.605  0.00  0.00    +0.046 C 
ATOM     15  C   UNL     1      -2.730   2.595   1.872  0.00  0.00    -0.011 C 
ATOM     16  C   UNL     1      -0.923   3.018   0.174  0.00  0.00    -0.011 C 
BRANCH  14  18
ATOM     17  O   UNL     1      -2.972   2.537  -1.600  0.00  0.00    -0.253 OA
ATOM     18  C   UNL     1      -3.054   1.941  -0.532  0.00  0.00    +0.295 C 
BRANCH  18  19
ATOM     19  O   UNL     1      -4.049   1.051  -0.274  0.00  0.00    -0.482 OA
ATOM     20  H   UNL     1      -4.082   0.613   0.553  0.00  0.00    +0.295 HD
ENDBRANCH  18  19
ENDBRANCH  14  18
ENDBRANCH  11  14
ENDBRANCH  10  11
ENDBRANCH   2  10
BRANCH   3  21
ATOM     21  C   UNL     1       1.913  -0.106   0.707  0.00  0.00    +0.181 C 
BRANCH  21  22
ATOM     22  O   UNL     1       2.649   0.235  -0.462  0.00  0.00    -0.268 OA
BRANCH  22  23
ATOM     23  P   UNL     1       3.664   1.491  -0.390  0.00  0.00    +0.473 P 
ATOM     24  O   UNL     1       4.402   1.786  -1.663  0.00  0.00    -0.227 OA
BRANCH  23  25
ATOM     25  O   UNL     1       4.596   1.160   0.889  0.00  0.00    -0.303 OA
ATOM     26  H   UNL     1       4.036   0.984   1.661  0.00  0.00    +0.222 HD
ENDBRANCH  23  25
BRANCH  23  27
ATOM     27  O   UNL     1       2.714   2.686   0.141  0.00  0.00    -0.303 OA
ATOM     28  H   UNL     1       2.278   2.412   0.963  0.00  0.00    +0.222 HD
ENDBRANCH  23  27
ENDBRANCH  22  23
ENDBRANCH  21  22
ENDBRANCH   3  21
TORSDOF 11
