REMARK  Name = 49866943
REMARK  11 active torsions:
REMARK  status: ('A' for Active; 'I' for Inactive)
REMARK    1  A    between atoms: C_2  and  O_18
REMARK    2  A    between atoms: C_3  and  O_16
REMARK    3  A    between atoms: C_4  and  N_8
REMARK    4  A    between atoms: C_5  and  C_26
REMARK    5  A    between atoms: O_18  and  C_19
REMARK    6  A    between atoms: C_19  and  C_20
REMARK    7  A    between atoms: C_20  and  N_21
REMARK    8  A    between atoms: C_26  and  O_27
REMARK    9  A    between atoms: O_27  and  P_28
REMARK   10  A    between atoms: P_28  and  O_30
REMARK   11  A    between atoms: P_28  and  O_32
REMARK                            x       y       z     vdW  Elec       q    Type
REMARK                         _______ _______ _______ _____ _____    ______ ____
ROOT
ATOM      1  O   UNL     1      -1.473  -0.725  -1.568  0.00  0.00    -0.333 OA
ATOM      2  C   UNL     1       0.292  -1.359  -0.119  0.00  0.00    +0.191 C 
ATOM      3  C   UNL     1      -0.541  -2.584  -0.433  0.00  0.00    +0.171 C 
ATOM      4  C   UNL     1      -0.111  -0.409  -1.234  0.00  0.00    +0.230 C 
ATOM      5  C   UNL     1      -1.842  -1.967  -0.928  0.00  0.00    +0.176 C 
ENDROOT
BRANCH   4   8
ATOM      6  O   UNL     1       2.122   1.311  -1.659  0.00  0.00    -0.252 OA
ATOM      7  O   UNL     1       0.002   4.853   0.368  0.00  0.00    -0.270 OA
ATOM      8  N   UNL     1      -0.036   0.967  -0.836  0.00  0.00    -0.217 N 
ATOM      9  N   UNL     1       1.053   3.069  -0.646  0.00  0.00    -0.236 N 
ATOM     10  C   UNL     1      -1.128   1.534  -0.187  0.00  0.00    +0.071 C 
ATOM     11  C   UNL     1       1.118   1.744  -1.090  0.00  0.00    +0.315 C 
ATOM     12  C   UNL     1      -1.187   2.802   0.237  0.00  0.00    +0.047 C 
ATOM     13  C   UNL     1      -0.009   3.680   0.004  0.00  0.00    +0.250 C 
ATOM     14  C   UNL     1      -2.374   3.388   0.931  0.00  0.00    +0.037 C 
ATOM     15  H   UNL     1       1.846   3.628  -0.813  0.00  0.00    +0.159 HD
ENDBRANCH   4   8
BRANCH   3  16
ATOM     16  O   UNL     1       0.040  -3.313  -1.514  0.00  0.00    -0.379 OA
ATOM     17  H   UNL     1       0.872  -3.717  -1.222  0.00  0.00    +0.211 HD
ENDBRANCH   3  16
BRANCH   2  18
ATOM     18  O   UNL     1       1.677  -1.638  -0.118  0.00  0.00    -0.348 OA
BRANCH  18  19
ATOM     19  C   UNL     1       2.093  -2.247   1.101  0.00  0.00    +0.164 C 
BRANCH  19  20
ATOM     20  C   UNL     1       3.594  -2.514   1.056  0.00  0.00    +0.129 C 
BRANCH  20  21
ATOM     21  N   UNL     1       4.394  -1.254   0.830  0.00  0.00    -0.265 N 
ATOM     22  N   UNL     1       5.599   0.286  -0.223  0.00  0.00    -0.225 NA
ATOM     23  C   UNL     1       4.680  -0.299   1.765  0.00  0.00    +0.088 C 
ATOM     24  C   UNL     1       4.967  -0.860  -0.347  0.00  0.00    +0.168 C 
ATOM     25  C   UNL     1       5.424   0.641   1.091  0.00  0.00    +0.117 C 
ENDBRANCH  20  21
ENDBRANCH  19  20
ENDBRANCH  18  19
ENDBRANCH   2  18
BRANCH   5  26
ATOM     26  C   UNL     1      -2.823  -1.650   0.192  0.00  0.00    +0.186 C 
BRANCH  26  27
ATOM     27  O   UNL     1      -3.987  -1.073  -0.373  0.00  0.00    -0.271 OA
BRANCH  27  28
ATOM     28  P   UNL     1      -5.194  -0.643   0.616  0.00  0.00    +0.473 P 
ATOM     29  O   UNL     1      -6.388  -0.041  -0.066  0.00  0.00    -0.227 OA
BRANCH  28  30
ATOM     30  O   UNL     1      -4.474   0.304   1.711  0.00  0.00    -0.303 OA
ATOM     31  H   UNL     1      -3.718  -0.166   2.097  0.00  0.00    +0.222 HD
ENDBRANCH  28  30
BRANCH  28  32
ATOM     32  O   UNL     1      -5.491  -2.003   1.438  0.00  0.00    -0.303 OA
ATOM     33  H   UNL     1      -4.670  -2.322   1.844  0.00  0.00    +0.222 HD
ENDBRANCH  28  32
ENDBRANCH  27  28
ENDBRANCH  26  27
ENDBRANCH   5  26
TORSDOF 11
