REMARK  Name = 5326887
REMARK  9 active torsions:
REMARK  status: ('A' for Active; 'I' for Inactive)
REMARK    1  A    between atoms: N_3  and  C_19
REMARK    2  A    between atoms: C_6  and  C_11
REMARK    3  A    between atoms: C_17  and  O_24
REMARK    4  A    between atoms: O_24  and  C_25
REMARK    5  A    between atoms: C_25  and  C_26
REMARK    6  A    between atoms: C_26  and  C_27
REMARK    7  A    between atoms: C_27  and  C_28
REMARK    8  A    between atoms: C_28  and  C_30
REMARK    9  A    between atoms: C_30  and  O_31
REMARK                            x       y       z     vdW  Elec       q    Type
REMARK                         _______ _______ _______ _____ _____    ______ ____
ROOT
ATOM      1  O   UNL     1       1.782  -2.752   0.818  0.00  0.00    -0.252 OA
ATOM      2  O   UNL     1       4.437  -1.935   0.948  0.00  0.00    -0.270 OA
ATOM      3  N   UNL     1       0.385  -1.153  -0.196  0.00  0.00    -0.268 N 
ATOM      4  N   UNL     1       2.653  -0.741   0.046  0.00  0.00    -0.236 N 
ATOM      5  C   UNL     1       1.612  -1.663   0.276  0.00  0.00    +0.310 C 
ATOM      6  C   UNL     1       3.989  -0.935   0.394  0.00  0.00    +0.253 C 
ATOM      7  H   UNL     1       0.422  -0.258  -0.605  0.00  0.00    +0.156 HD
ATOM      8  H   UNL     1       2.418   0.107  -0.396  0.00  0.00    +0.159 HD
ENDROOT
BRANCH   6  11
ATOM      9 CL   UNL     1       5.593   0.438   2.649  0.00  0.00    -0.082 Cl
ATOM     10 CL   UNL     1       7.698   3.474  -1.263  0.00  0.00    -0.082 Cl
ATOM     11  C   UNL     1       4.917   0.162   0.020  0.00  0.00    +0.064 C 
ATOM     12  C   UNL     1       5.682   0.839   0.971  0.00  0.00    +0.063 C 
ATOM     13  C   UNL     1       5.013   0.509  -1.327  0.00  0.00    +0.006 C 
ATOM     14  C   UNL     1       6.542   1.862   0.574  0.00  0.00    +0.023 C 
ATOM     15  C   UNL     1       5.873   1.533  -1.724  0.00  0.00    +0.012 C 
ATOM     16  C   UNL     1       6.638   2.209  -0.774  0.00  0.00    +0.059 C 
ENDBRANCH   6  11
BRANCH   3  19
ATOM     17  C   UNL     1      -3.246  -1.718  -0.623  0.00  0.00    +0.136 C 
ATOM     18  C   UNL     1      -1.996  -1.101  -0.673  0.00  0.00    +0.026 C 
ATOM     19  C   UNL     1      -0.876  -1.753  -0.157  0.00  0.00    +0.050 C 
ATOM     20  C   UNL     1      -3.376  -2.986  -0.058  0.00  0.00    +0.037 C 
ATOM     21  C   UNL     1      -1.006  -3.021   0.409  0.00  0.00    +0.015 C 
ATOM     22  C   UNL     1      -1.867   0.260  -1.281  0.00  0.00    +0.036 C 
ATOM     23  C   UNL     1      -2.256  -3.638   0.458  0.00  0.00    +0.004 C 
BRANCH  17  24
ATOM     24  O   UNL     1      -4.359  -1.093  -1.125  0.00  0.00    -0.476 OA
BRANCH  24  25
ATOM     25  C   UNL     1      -5.600  -1.401  -0.508  0.00  0.00    +0.205 C 
BRANCH  25  26
ATOM     26  C   UNL     1      -6.537  -0.202  -0.598  0.00  0.00    +0.048 C 
BRANCH  26  27
ATOM     27  C   UNL     1      -5.968   1.031   0.116  0.00  0.00    +0.015 C 
BRANCH  27  28
ATOM     28  C   UNL     1      -6.890   2.246   0.007  0.00  0.00    +0.109 C 
BRANCH  28  30
ATOM     29  O   UNL     1      -5.263   3.551   1.266  0.00  0.00    -0.250 OA
ATOM     30  C   UNL     1      -6.345   3.474   0.703  0.00  0.00    +0.314 C 
BRANCH  30  31
ATOM     31  O   UNL     1      -7.228   4.505   0.652  0.00  0.00    -0.480 OA
ATOM     32  H   UNL     1      -8.047   4.400   0.209  0.00  0.00    +0.295 HD
ENDBRANCH  30  31
ENDBRANCH  28  30
ENDBRANCH  27  28
ENDBRANCH  26  27
ENDBRANCH  25  26
ENDBRANCH  24  25
ENDBRANCH  17  24
ENDBRANCH   3  19
TORSDOF 9
