REMARK  Name = 5289587
REMARK  7 active torsions:
REMARK  status: ('A' for Active; 'I' for Inactive)
REMARK    1  A    between atoms: C_2  and  O_7
REMARK    2  A    between atoms: C_3  and  O_9
REMARK    3  A    between atoms: C_4  and  O_11
REMARK    4  A    between atoms: C_5  and  C_26
REMARK    5  A    between atoms: C_6  and  O_13
REMARK    6  A    between atoms: O_13  and  C_17
REMARK    7  A    between atoms: C_26  and  O_27
REMARK                            x       y       z     vdW  Elec       q    Type
REMARK                         _______ _______ _______ _____ _____    ______ ____
ROOT
ATOM      1  O   UNL     1       1.790   1.228   0.424  0.00  0.00    -0.316 OA
ATOM      2  C   UNL     1       3.034  -1.102  -0.709  0.00  0.00    +0.173 C 
ATOM      3  C   UNL     1       3.126  -0.788   0.786  0.00  0.00    +0.169 C 
ATOM      4  C   UNL     1       2.811   0.176  -1.519  0.00  0.00    +0.210 C 
ATOM      5  C   UNL     1       1.917   0.050   1.224  0.00  0.00    +0.177 C 
ATOM      6  C   UNL     1       1.626   0.971  -0.975  0.00  0.00    +0.318 C 
ENDROOT
BRANCH   2   7
ATOM      7  O   UNL     1       4.231  -1.729  -1.159  0.00  0.00    -0.379 OA
ATOM      8  H   UNL     1       4.382  -2.541  -0.651  0.00  0.00    +0.211 HD
ENDBRANCH   2   7
BRANCH   3   9
ATOM      9  O   UNL     1       3.137  -2.004   1.529  0.00  0.00    -0.379 OA
ATOM     10  H   UNL     1       3.898  -2.542   1.259  0.00  0.00    +0.211 HD
ENDBRANCH   3   9
BRANCH   4  11
ATOM     11  O   UNL     1       3.967   1.012  -1.438  0.00  0.00    -0.377 OA
ATOM     12  H   UNL     1       4.738   0.531  -1.779  0.00  0.00    +0.211 HD
ENDBRANCH   4  11
BRANCH   6  13
ATOM     13  O   UNL     1       0.413   0.284  -1.262  0.00  0.00    -0.449 OA
BRANCH  13  17
ATOM     14 BR   UNL     1      -4.383  -3.092   0.233  0.00  0.00    -0.048 Br
ATOM     15 CL   UNL     1      -1.274  -2.292  -0.790  0.00  0.00    -0.082 Cl
ATOM     16  N   UNL     1      -2.151   2.476  -0.301  0.00  0.00    -0.309 N 
ATOM     17  C   UNL     1      -0.747   0.879  -0.843  0.00  0.00    +0.158 C 
ATOM     18  C   UNL     1      -1.949   0.260  -0.460  0.00  0.00    +0.060 C 
ATOM     19  C   UNL     1      -2.827   1.290  -0.119  0.00  0.00    +0.052 C 
ATOM     20  C   UNL     1      -0.879   2.230  -0.744  0.00  0.00    +0.099 C 
ATOM     21  C   UNL     1      -2.397  -1.073  -0.361  0.00  0.00    +0.068 C 
ATOM     22  C   UNL     1      -4.136   1.055   0.317  0.00  0.00    +0.015 C 
ATOM     23  C   UNL     1      -3.703  -1.324   0.073  0.00  0.00    +0.045 C 
ATOM     24  C   UNL     1      -4.558  -0.275   0.407  0.00  0.00    +0.009 C 
ATOM     25  H   UNL     1      -2.527   3.370  -0.137  0.00  0.00    +0.152 HD
ENDBRANCH  13  17
ENDBRANCH   6  13
BRANCH   5  26
ATOM     26  C   UNL     1       2.044   0.497   2.677  0.00  0.00    +0.169 C 
BRANCH  26  27
ATOM     27  O   UNL     1       0.907   1.271   3.010  0.00  0.00    -0.379 OA
ATOM     28  H   UNL     1       0.974   1.563   3.933  0.00  0.00    +0.211 HD
ENDBRANCH  26  27
ENDBRANCH   5  26
TORSDOF 7
