REMARK  Name = 4369553
REMARK  5 active torsions:
REMARK  status: ('A' for Active; 'I' for Inactive)
REMARK    1  A    between atoms: C_6  and  O_12
REMARK    2  A    between atoms: C_7  and  O_14
REMARK    3  A    between atoms: C_9  and  O_16
REMARK    4  A    between atoms: C_10  and  C_19
REMARK    5  A    between atoms: C_19  and  O_20
REMARK                            x       y       z     vdW  Elec       q    Type
REMARK                         _______ _______ _______ _____ _____    ______ ____
ROOT
ATOM      1  O   UNL     1       1.020  -0.673   0.912  0.00  0.00    -0.323 OA
ATOM      2  O   UNL     1      -1.716   1.464  -0.266  0.00  0.00    -0.326 OA
ATOM      3  O   UNL     1       1.856   1.550   0.546  0.00  0.00    -0.323 OA
ATOM      4  C   UNL     1      -0.185  -0.368   0.209  0.00  0.00    +0.177 C 
ATOM      5  C   UNL     1      -0.508   1.113   0.402  0.00  0.00    +0.177 C 
ATOM      6  C   UNL     1      -1.343  -1.212   0.745  0.00  0.00    +0.172 C 
ATOM      7  C   UNL     1      -2.664  -0.764   0.108  0.00  0.00    +0.196 C 
ATOM      8  C   UNL     1       0.658   1.930  -0.131  0.00  0.00    +0.177 C 
ATOM      9  C   UNL     1      -2.841   0.751   0.268  0.00  0.00    +0.262 C 
ATOM     10  C   UNL     1       2.114   0.147   0.500  0.00  0.00    +0.280 C 
ATOM     11  C   UNL     1       3.253  -0.120   1.480  0.00  0.00    +0.074 C 
ENDROOT
BRANCH   6  12
ATOM     12  O   UNL     1      -1.111  -2.591   0.475  0.00  0.00    -0.379 OA
ATOM     13  H   UNL     1      -0.274  -2.864   0.881  0.00  0.00    +0.211 HD
ENDBRANCH   6  12
BRANCH   7  14
ATOM     14  O   UNL     1      -2.622  -1.085  -1.287  0.00  0.00    -0.378 OA
ATOM     15  H   UNL     1      -2.510  -2.042  -1.395  0.00  0.00    +0.211 HD
ENDBRANCH   7  14
BRANCH   9  16
ATOM     16  O   UNL     1      -4.050   1.196  -0.338  0.00  0.00    -0.358 OA
ATOM     17  H   UNL     1      -4.136   2.156  -0.222  0.00  0.00    +0.213 HD
ENDBRANCH   9  16
BRANCH  10  19
ATOM     18  O   UNL     1       3.192   0.480  -1.648  0.00  0.00    -0.245 OA
ATOM     19  C   UNL     1       2.614  -0.258  -0.865  0.00  0.00    +0.366 C 
BRANCH  19  20
ATOM     20  O   UNL     1       2.332  -1.561  -1.110  0.00  0.00    -0.477 OA
ATOM     21  H   UNL     1       1.885  -2.073  -0.466  0.00  0.00    +0.295 HD
ENDBRANCH  19  20
ENDBRANCH  10  19
TORSDOF 5
