REMARK  Name = 657119
REMARK  13 active torsions:
REMARK  status: ('A' for Active; 'I' for Inactive)
REMARK    1  A    between atoms: C_1  and  O_2
REMARK    2  A    between atoms: C_1  and  C_4
REMARK    3  A    between atoms: C_1  and  C_13
REMARK    4  A    between atoms: C_4  and  O_5
REMARK    5  A    between atoms: O_5  and  C_7
REMARK    6  A    between atoms: C_7  and  C_8
REMARK    7  A    between atoms: C_8  and  C_9
REMARK    8  A    between atoms: C_9  and  C_10
REMARK    9  A    between atoms: C_10  and  C_11
REMARK   10  A    between atoms: C_13  and  O_14
REMARK   11  A    between atoms: O_14  and  P_15
REMARK   12  A    between atoms: P_15  and  O_17
REMARK   13  A    between atoms: P_15  and  O_19
REMARK                            x       y       z     vdW  Elec       q    Type
REMARK                         _______ _______ _______ _____ _____    ______ ____
ROOT
ATOM      1  C   UNL     1       1.564  -0.432  -0.118  0.00  0.00    +0.184 C 
ENDROOT
BRANCH   1   2
ATOM      2  O   UNL     1       1.512  -1.440   0.894  0.00  0.00    -0.378 OA
ATOM      3  H   UNL     1       0.663  -1.906   0.843  0.00  0.00    +0.211 HD
ENDBRANCH   1   2
BRANCH   1   4
ATOM      4  C   UNL     1       0.400   0.523   0.108  0.00  0.00    +0.240 C 
BRANCH   4   5
ATOM      5  O   UNL     1      -0.828  -0.202  -0.022  0.00  0.00    -0.446 OA
BRANCH   5   7
ATOM      6  O   UNL     1      -2.015   1.727   0.412  0.00  0.00    -0.250 OA
ATOM      7  C   UNL     1      -1.966   0.532   0.157  0.00  0.00    +0.317 C 
BRANCH   7   8
ATOM      8  C   UNL     1      -3.166  -0.366  -0.046  0.00  0.00    +0.110 C 
BRANCH   8   9
ATOM      9  C   UNL     1      -4.498   0.379   0.041  0.00  0.00    +0.012 C 
BRANCH   9  10
ATOM     10  C   UNL     1      -5.702  -0.547  -0.158  0.00  0.00    +0.001 C 
BRANCH  10  11
ATOM     11  C   UNL     1      -7.015   0.233  -0.099  0.00  0.00    +0.000 C 
ATOM     12  C   UNL     1      -8.212  -0.673  -0.341  0.00  0.00    +0.000 C 
ENDBRANCH  10  11
ENDBRANCH   9  10
ENDBRANCH   8   9
ENDBRANCH   7   8
ENDBRANCH   5   7
ENDBRANCH   4   5
ENDBRANCH   1   4
BRANCH   1  13
ATOM     13  C   UNL     1       2.904   0.289  -0.021  0.00  0.00    +0.187 C 
BRANCH  13  14
ATOM     14  O   UNL     1       3.966  -0.634  -0.233  0.00  0.00    -0.271 OA
BRANCH  14  15
ATOM     15  P   UNL     1       5.484  -0.082  -0.174  0.00  0.00    +0.473 P 
ATOM     16  O   UNL     1       6.547  -1.116  -0.406  0.00  0.00    -0.227 OA
BRANCH  15  17
ATOM     17  O   UNL     1       5.463   1.129  -1.245  0.00  0.00    -0.303 OA
ATOM     18  H   UNL     1       4.750   1.747  -1.020  0.00  0.00    +0.222 HD
ENDBRANCH  15  17
BRANCH  15  19
ATOM     19  O   UNL     1       5.561   0.681   1.250  0.00  0.00    -0.303 OA
ATOM     20  H   UNL     1       4.840   1.326   1.310  0.00  0.00    +0.222 HD
ENDBRANCH  15  19
ENDBRANCH  14  15
ENDBRANCH  13  14
ENDBRANCH   1  13
TORSDOF 13
