REMARK  Name = 4369496
REMARK  6 active torsions:
REMARK  status: ('A' for Active; 'I' for Inactive)
REMARK    1  A    between atoms: N_2  and  C_21
REMARK    2  A    between atoms: C_3  and  C_10
REMARK    3  A    between atoms: C_5  and  C_11
REMARK    4  A    between atoms: C_11  and  N_12
REMARK    5  A    between atoms: C_23  and  N_27
REMARK    6  A    between atoms: C_31  and  C_36
REMARK                            x       y       z     vdW  Elec       q    Type
REMARK                         _______ _______ _______ _____ _____    ______ ____
ROOT
ATOM      1  O   UNL     1      -0.954   0.060  -1.023  0.00  0.00    -0.270 OA
ATOM      2  N   UNL     1      -0.155  -1.970  -0.161  0.00  0.00    -0.280 N 
ATOM      3  C   UNL     1      -0.014  -0.681  -0.694  0.00  0.00    +0.249 C 
ATOM      4  H   UNL     1       0.684  -2.438   0.052  0.00  0.00    +0.155 HD
ENDROOT
BRANCH   3  10
ATOM      5  C   UNL     1       3.958   0.662  -1.249  0.00  0.00    -0.043 C 
ATOM      6  C   UNL     1       3.686  -0.698  -1.281  0.00  0.00    -0.006 C 
ATOM      7  C   UNL     1       2.947   1.589  -1.038  0.00  0.00    -0.006 C 
ATOM      8  C   UNL     1       2.376  -1.141  -1.099  0.00  0.00    +0.004 C 
ATOM      9  C   UNL     1       1.637   1.146  -0.856  0.00  0.00    +0.004 C 
ATOM     10  C   UNL     1       1.351  -0.219  -0.886  0.00  0.00    +0.054 C 
BRANCH   5  11
ATOM     11  C   UNL     1       5.372   1.141  -1.447  0.00  0.00    -0.050 C 
BRANCH  11  12
ATOM     12  N   UNL     1       6.327   0.354  -0.669  0.00  0.00    +0.387 N 
ATOM     13  N   UNL     1       8.405   0.056   1.319  0.00  0.00    +0.383 N 
ATOM     14  C   UNL     1       6.027   0.440   0.765  0.00  0.00    -0.100 C 
ATOM     15  C   UNL     1       7.702   0.795  -0.932  0.00  0.00    -0.100 C 
ATOM     16  C   UNL     1       7.029  -0.383   1.582  0.00  0.00    -0.101 C 
ATOM     17  C   UNL     1       8.705  -0.028  -0.116  0.00  0.00    -0.101 C 
ATOM     18  C   UNL     1       9.359  -0.732   2.096  0.00  0.00    -0.101 C 
ATOM     19  H   UNL     1       6.241  -0.620  -0.957  0.00  0.00    -0.079 HD
ATOM     20  H   UNL     1       8.492   1.031   1.609  0.00  0.00    -0.080 HD
ENDBRANCH  11  12
ENDBRANCH   5  11
ENDBRANCH   3  10
BRANCH   2  21
ATOM     21  C   UNL     1      -1.346  -2.687   0.111  0.00  0.00    +0.052 C 
ATOM     22  C   UNL     1      -2.568  -2.096  -0.161  0.00  0.00    +0.030 C 
ATOM     23  C   UNL     1      -3.741  -2.802   0.109  0.00  0.00    +0.059 C 
ATOM     24  C   UNL     1      -1.260  -3.962   0.643  0.00  0.00    +0.015 C 
ATOM     25  C   UNL     1      -3.673  -4.088   0.645  0.00  0.00    +0.015 C 
ATOM     26  C   UNL     1      -2.433  -4.668   0.912  0.00  0.00    +0.003 C 
BRANCH  23  27
ATOM     27  N   UNL     1      -4.995  -2.216  -0.163  0.00  0.00    -0.247 N 
ATOM     28  N   UNL     1      -4.533   0.064   0.145  0.00  0.00    -0.337 NA
ATOM     29  N   UNL     1      -6.739  -0.679  -0.478  0.00  0.00    -0.170 NA
ATOM     30  C   UNL     1      -5.443  -0.881  -0.165  0.00  0.00    +0.149 C 
ATOM     31  C   UNL     1      -4.997   1.331   0.133  0.00  0.00    +0.147 C 
ATOM     32  C   UNL     1      -6.300   1.667  -0.171  0.00  0.00    +0.055 C 
ATOM     33  C   UNL     1      -7.135   0.611  -0.471  0.00  0.00    +0.114 C 
ATOM     34  H   UNL     1      -5.694  -2.869  -0.396  0.00  0.00    +0.165 HD
BRANCH  31  36
ATOM     35  N   UNL     1      -3.232   4.613   0.202  0.00  0.00    -0.242 NA
ATOM     36  C   UNL     1      -4.023   2.343   0.464  0.00  0.00    +0.050 C 
ATOM     37  C   UNL     1      -2.967   2.068   1.327  0.00  0.00    +0.006 C 
ATOM     38  C   UNL     1      -4.109   3.620  -0.067  0.00  0.00    +0.101 C 
ATOM     39  C   UNL     1      -2.044   3.064   1.627  0.00  0.00    +0.021 C 
ATOM     40  C   UNL     1      -2.220   4.308   1.044  0.00  0.00    +0.099 C 
ENDBRANCH  31  36
ENDBRANCH  23  27
ENDBRANCH   2  21
TORSDOF 6
