REMARK  Name = 111509
REMARK  3 active torsions:
REMARK  status: ('A' for Active; 'I' for Inactive)
REMARK    1  A    between atoms: C_1  and  C_3
REMARK    2  A    between atoms: C_1  and  C_5
REMARK    3  A    between atoms: C_5  and  O_6
REMARK                            x       y       z     vdW  Elec       q    Type
REMARK                         _______ _______ _______ _____ _____    ______ ____
ROOT
ATOM      1  C   UNL     1      -0.194   1.002  -0.056  0.00  0.00    +0.096 C 
ENDROOT
BRANCH   1   3
ATOM      2  O   UNL     1       0.629  -1.258  -0.324  0.00  0.00    -0.296 OA
ATOM      3  C   UNL     1       0.871  -0.083  -0.054  0.00  0.00    +0.154 C 
ATOM      4  C   UNL     1       2.267   0.360   0.299  0.00  0.00    +0.072 C 
ENDBRANCH   1   3
BRANCH   1   5
ATOM      5  C   UNL     1      -1.578   0.476  -0.407  0.00  0.00    +0.145 C 
BRANCH   5   6
ATOM      6  O   UNL     1      -1.995  -0.498   0.541  0.00  0.00    -0.382 OA
ATOM      7  H   UNL     1      -2.877  -0.823   0.304  0.00  0.00    +0.210 HD
ENDBRANCH   5   6
ENDBRANCH   1   5
TORSDOF 3
