REMARK  Name = 806138
REMARK  3 active torsions:
REMARK  status: ('A' for Active; 'I' for Inactive)
REMARK    1  A    between atoms: C_8  and  O_14
REMARK    2  A    between atoms: C_9  and  C_16
REMARK    3  A    between atoms: C_16  and  O_17
REMARK                            x       y       z     vdW  Elec       q    Type
REMARK                         _______ _______ _______ _____ _____    ______ ____
ROOT
ATOM      1  O   UNL     1      -1.509  -0.640   1.127  0.00  0.00    -0.332 OA
ATOM      2  O   UNL     1      -0.123   1.252  -1.063  0.00  0.00    -0.437 OA
ATOM      3  O   UNL     1       4.248  -0.271  -0.813  0.00  0.00    -0.209 OA
ATOM      4  N   UNL     1       0.655   0.301   0.813  0.00  0.00    -0.204 N 
ATOM      5  N   UNL     1       2.096   0.525  -1.069  0.00  0.00    -0.281 NA
ATOM      6  C   UNL     1      -1.148   1.412  -0.056  0.00  0.00    +0.246 C 
ATOM      7  C   UNL     1      -0.720   0.557   1.135  0.00  0.00    +0.244 C 
ATOM      8  C   UNL     1      -2.455   0.801  -0.504  0.00  0.00    +0.185 C 
ATOM      9  C   UNL     1      -2.390  -0.638  -0.009  0.00  0.00    +0.177 C 
ATOM     10  C   UNL     1       0.962   0.679  -0.463  0.00  0.00    +0.359 C 
ATOM     11  C   UNL     1       1.617  -0.313   1.561  0.00  0.00    +0.086 C 
ATOM     12  C   UNL     1       2.839  -0.527   1.058  0.00  0.00    +0.123 C 
ATOM     13  C   UNL     1       3.125  -0.081  -0.353  0.00  0.00    +0.210 C 
ENDROOT
BRANCH   8  14
ATOM     14  O   UNL     1      -3.527   1.470   0.161  0.00  0.00    -0.378 OA
ATOM     15  H   UNL     1      -3.576   2.388  -0.148  0.00  0.00    +0.211 HD
ENDBRANCH   8  14
BRANCH   9  16
ATOM     16  C   UNL     1      -1.850  -1.614  -1.046  0.00  0.00    +0.169 C 
BRANCH  16  17
ATOM     17  O   UNL     1      -1.821  -2.915  -0.481  0.00  0.00    -0.379 OA
ATOM     18  H   UNL     1      -1.478  -3.544  -1.135  0.00  0.00    +0.211 HD
ENDBRANCH  16  17
ENDBRANCH   9  16
TORSDOF 3
