REMARK  Name = 444753
REMARK  1 active torsions:
REMARK  status: ('A' for Active; 'I' for Inactive)
REMARK    1  A    between atoms: C_4  and  C_12
REMARK                            x       y       z     vdW  Elec       q    Type
REMARK                         _______ _______ _______ _____ _____    ______ ____
ROOT
ATOM      1  S   UNL     1      -0.592  -1.528   0.000  0.00  0.00    -0.084 S 
ATOM      2  C   UNL     1       0.809   0.645   0.000  0.00  0.00    +0.007 C 
ATOM      3  C   UNL     1       0.945  -0.747   0.000  0.00  0.00    +0.030 C 
ATOM      4  C   UNL     1      -1.430  -0.044   0.000  0.00  0.00    +0.058 C 
ATOM      5  C   UNL     1      -0.574   1.031  -0.001  0.00  0.00    +0.010 C 
ATOM      6  C   UNL     1       1.985   1.433  -0.001  0.00  0.00    +0.001 C 
ATOM      7  C   UNL     1       2.212  -1.362   0.001  0.00  0.00    +0.006 C 
ATOM      8  C   UNL     1       3.244   0.825   0.000  0.00  0.00    +0.000 C 
ATOM      9  C   UNL     1       3.353  -0.558   0.000  0.00  0.00    +0.001 C 
ENDROOT
BRANCH   4  12
ATOM     10  N   UNL     1      -3.639  -1.035  -0.001  0.00  0.00    -0.386 N 
ATOM     11  N   UNL     1      -3.461   1.274   0.001  0.00  0.00    -0.344 N 
ATOM     12  C   UNL     1      -2.854   0.066   0.001  0.00  0.00    +0.102 C 
ATOM     13  H   UNL     1      -4.619  -0.941   0.000  0.00  0.00    +0.157 HD
ATOM     14  H   UNL     1      -3.232  -1.931  -0.003  0.00  0.00    +0.157 HD
ATOM     15  H   UNL     1      -4.444   1.331   0.002  0.00  0.00    +0.144 HD
ATOM     16  H   UNL     1      -2.921   2.097   0.001  0.00  0.00    +0.144 HD
ENDBRANCH   4  12
TORSDOF 1
