REMARK  Name = 447568
REMARK  8 active torsions:
REMARK  status: ('A' for Active; 'I' for Inactive)
REMARK    1  A    between atoms: C_2  and  O_6
REMARK    2  A    between atoms: C_3  and  C_12
REMARK    3  A    between atoms: C_4  and  O_8
REMARK    4  A    between atoms: C_5  and  O_10
REMARK    5  A    between atoms: C_12  and  O_13
REMARK    6  A    between atoms: O_13  and  P_14
REMARK    7  A    between atoms: P_14  and  O_16
REMARK    8  A    between atoms: P_14  and  O_18
REMARK                            x       y       z     vdW  Elec       q    Type
REMARK                         _______ _______ _______ _____ _____    ______ ____
ROOT
ATOM      1  O   UNL     1      -1.044  -0.541  -1.053  0.00  0.00    -0.326 OA
ATOM      2  C   UNL     1      -1.839   1.255   0.311  0.00  0.00    +0.172 C 
ATOM      3  C   UNL     1      -0.671   0.756  -0.544  0.00  0.00    +0.177 C 
ATOM      4  C   UNL     1      -2.605  -0.011   0.628  0.00  0.00    +0.196 C 
ATOM      5  C   UNL     1      -2.384  -0.831  -0.633  0.00  0.00    +0.262 C 
ENDROOT
BRANCH   2   6
ATOM      6  O   UNL     1      -2.674   2.101  -0.475  0.00  0.00    -0.379 OA
ATOM      7  H   UNL     1      -2.197   2.919  -0.688  0.00  0.00    +0.211 HD
ENDBRANCH   2   6
BRANCH   4   8
ATOM      8  O   UNL     1      -2.005  -0.643   1.753  0.00  0.00    -0.378 OA
ATOM      9  H   UNL     1      -2.157  -0.105   2.546  0.00  0.00    +0.211 HD
ENDBRANCH   4   8
BRANCH   5  10
ATOM     10  O   UNL     1      -2.596  -2.209  -0.389  0.00  0.00    -0.358 OA
ATOM     11  H   UNL     1      -2.450  -2.709  -1.207  0.00  0.00    +0.213 HD
ENDBRANCH   5  10
BRANCH   3  12
ATOM     12  C   UNL     1       0.622   0.594   0.241  0.00  0.00    +0.186 C 
BRANCH  12  13
ATOM     13  O   UNL     1       1.630   0.121  -0.636  0.00  0.00    -0.271 OA
BRANCH  13  14
ATOM     14  P   UNL     1       3.114  -0.136  -0.040  0.00  0.00    +0.473 P 
ATOM     15  O   UNL     1       4.119  -0.636  -1.036  0.00  0.00    -0.227 OA
BRANCH  14  16
ATOM     16  O   UNL     1       2.855  -1.105   1.228  0.00  0.00    -0.303 OA
ATOM     17  H   UNL     1       2.195  -0.702   1.814  0.00  0.00    +0.222 HD
ENDBRANCH  14  16
BRANCH  14  18
ATOM     18  O   UNL     1       3.478   1.283   0.644  0.00  0.00    -0.303 OA
ATOM     19  H   UNL     1       2.780   1.530   1.270  0.00  0.00    +0.222 HD
ENDBRANCH  14  18
ENDBRANCH  13  14
ENDBRANCH  12  13
ENDBRANCH   3  12
TORSDOF 8
