REMARK  Name = 89105
REMARK  4 active torsions:
REMARK  status: ('A' for Active; 'I' for Inactive)
REMARK    1  A    between atoms: C_1  and  N_18
REMARK    2  A    between atoms: C_2  and  N_14
REMARK    3  A    between atoms: C_4  and  C_9
REMARK    4  A    between atoms: C_6  and  N_17
REMARK                            x       y       z     vdW  Elec       q    Type
REMARK                         _______ _______ _______ _____ _____    ______ ____
ROOT
ATOM      1  C   UNL     1       1.294  -0.506  -0.031  0.00  0.00    +0.071 C 
ATOM      2  C   UNL     1       1.208   0.886  -0.010  0.00  0.00    +0.158 C 
ATOM      3  C   UNL     1       0.131  -1.276  -0.042  0.00  0.00    +0.022 C 
ATOM      4  C   UNL     1      -1.118  -0.654  -0.030  0.00  0.00    +0.077 C 
ATOM      5  C   UNL     1      -0.041   1.508   0.002  0.00  0.00    +0.050 C 
ATOM      6  C   UNL     1      -1.204   0.738  -0.008  0.00  0.00    +0.149 C 
ENDROOT
BRANCH   4   9
ATOM      7  O   UNL     1      -2.831  -1.860  -1.107  0.00  0.00    -0.270 OA
ATOM      8  N   UNL     1      -2.836  -1.881   1.186  0.00  0.00    -0.325 N 
ATOM      9  C   UNL     1      -2.311  -1.492  -0.041  0.00  0.00    +0.244 C 
ATOM     10  H   UNL     1      -3.641  -2.447   1.220  0.00  0.00    +0.145 HD
ATOM     11  H   UNL     1      -2.403  -1.591   2.021  0.00  0.00    +0.145 HD
ENDBRANCH   4   9
BRANCH   2  14
ATOM     12  O   UNL     1       2.252   2.942   0.020  0.00  0.00    -0.126 OA
ATOM     13  O   UNL     1       3.500   1.136  -0.009  0.00  0.00    -0.126 OA
ATOM     14  N   UNL     1       2.379   1.695   0.001  0.00  0.00    +0.059 N 
ENDBRANCH   2  14
BRANCH   6  17
ATOM     15  O   UNL     1      -2.494   2.649   0.024  0.00  0.00    -0.126 OA
ATOM     16  O   UNL     1      -3.509   0.703  -0.005  0.00  0.00    -0.126 OA
ATOM     17  N   UNL     1      -2.465   1.396   0.004  0.00  0.00    +0.058 N 
ENDBRANCH   6  17
BRANCH   1  18
ATOM     18  N   UNL     1       2.550  -1.162  -0.044  0.00  0.00    -0.303 N 
ATOM     19  C   UNL     1       2.710  -2.468  -0.695  0.00  0.00    +0.112 C 
ATOM     20  C   UNL     1       2.784  -2.352   0.784  0.00  0.00    +0.112 C 
ENDBRANCH   1  18
TORSDOF 4
