REMARK  Name = 909781
REMARK  4 active torsions:
REMARK  status: ('A' for Active; 'I' for Inactive)
REMARK    1  A    between atoms: C_2  and  C_17
REMARK    2  A    between atoms: C_3  and  C_23
REMARK    3  A    between atoms: C_14  and  C_19
REMARK    4  A    between atoms: C_23  and  O_24
REMARK                            x       y       z     vdW  Elec       q    Type
REMARK                         _______ _______ _______ _____ _____    ______ ____
ROOT
ATOM      1  N   UNL     1       1.364  -1.091  -0.049  0.00  0.00    -0.403 NA
ATOM      2  C   UNL     1       0.507  -0.048  -0.138  0.00  0.00    +0.168 C 
ATOM      3  C   UNL     1       0.898   1.276  -0.152  0.00  0.00    +0.108 C 
ATOM      4  C   UNL     1       2.682  -0.827   0.033  0.00  0.00    +0.113 C 
ATOM      5  C   UNL     1       3.178   0.493   0.026  0.00  0.00    +0.026 C 
ATOM      6  C   UNL     1       2.256   1.544  -0.068  0.00  0.00    +0.011 C 
ATOM      7  C   UNL     1       3.598  -1.871   0.127  0.00  0.00    +0.085 C 
ATOM      8  C   UNL     1       4.560   0.732   0.113  0.00  0.00    +0.002 C 
ATOM      9  C   UNL     1       4.972  -1.633   0.213  0.00  0.00    -0.019 C 
ATOM     10  C   UNL     1       5.454  -0.330   0.206  0.00  0.00    -0.004 C 
ENDROOT
BRANCH   2  17
ATOM     11  O   UNL     1      -3.233  -2.884  -0.310  0.00  0.00    -0.273 OA
ATOM     12  N   UNL     1      -1.885   0.402  -0.314  0.00  0.00    -0.249 NA
ATOM     13  N   UNL     1      -1.214  -1.739  -0.206  0.00  0.00    -0.266 N 
ATOM     14  C   UNL     1      -3.105  -0.445  -0.371  0.00  0.00    +0.154 C 
ATOM     15  C   UNL     1      -2.570  -1.860  -0.294  0.00  0.00    +0.247 C 
ATOM     16  C   UNL     1      -3.820  -0.203  -1.694  0.00  0.00    +0.034 C 
ATOM     17  C   UNL     1      -0.896  -0.425  -0.222  0.00  0.00    +0.160 C 
ATOM     18  H   UNL     1      -0.574  -2.484  -0.141  0.00  0.00    +0.156 HD
BRANCH  14  19
ATOM     19  C   UNL     1      -3.990  -0.130   0.828  0.00  0.00    +0.029 C 
ATOM     20  C   UNL     1      -3.213  -0.302   2.133  0.00  0.00    +0.002 C 
ATOM     21  C   UNL     1      -4.555   1.287   0.726  0.00  0.00    +0.002 C 
ENDBRANCH  14  19
ENDBRANCH   2  17
BRANCH   3  23
ATOM     22  O   UNL     1      -0.453   2.880  -1.303  0.00  0.00    -0.245 OA
ATOM     23  C   UNL     1      -0.054   2.372  -0.251  0.00  0.00    +0.341 C 
BRANCH  23  24
ATOM     24  O   UNL     1      -0.480   2.802   0.968  0.00  0.00    -0.477 OA
ATOM     25  H   UNL     1      -0.157   2.395   1.748  0.00  0.00    +0.295 HD
ENDBRANCH  23  24
ENDBRANCH   3  23
TORSDOF 4
