REMARK  Name = 4369579
REMARK  7 active torsions:
REMARK  status: ('A' for Active; 'I' for Inactive)
REMARK    1  A    between atoms: C_1  and  C_15
REMARK    2  A    between atoms: C_4  and  N_7
REMARK    3  A    between atoms: N_7  and  C_10
REMARK    4  A    between atoms: C_15  and  C_17
REMARK    5  A    between atoms: C_15  and  C_20
REMARK    6  A    between atoms: C_17  and  O_18
REMARK    7  A    between atoms: C_20  and  S_21
REMARK                            x       y       z     vdW  Elec       q    Type
REMARK                         _______ _______ _______ _____ _____    ______ ____
ROOT
ATOM      1  C   UNL     1       0.915   0.636   0.147  0.00  0.00    -0.010 C 
ATOM      2  C   UNL     1      -0.165  -0.100  -0.341  0.00  0.00    +0.015 C 
ATOM      3  C   UNL     1       0.749   1.979   0.483  0.00  0.00    -0.004 C 
ATOM      4  C   UNL     1      -1.411   0.508  -0.493  0.00  0.00    +0.084 C 
ATOM      5  C   UNL     1      -0.498   2.587   0.331  0.00  0.00    +0.001 C 
ATOM      6  C   UNL     1      -1.578   1.851  -0.157  0.00  0.00    +0.019 C 
ENDROOT
BRANCH   4   7
ATOM      7  N   UNL     1      -2.494  -0.230  -0.983  0.00  0.00    -0.214 NA
BRANCH   7  10
ATOM      8  N   UNL     1      -4.339  -1.602  -0.574  0.00  0.00    -0.370 N 
ATOM      9  N   UNL     1      -3.141  -0.905   1.239  0.00  0.00    -0.370 N 
ATOM     10  C   UNL     1      -3.265  -0.866  -0.133  0.00  0.00    +0.193 C 
ATOM     11  H   UNL     1      -4.538  -1.655  -1.537  0.00  0.00    +0.159 HD
ATOM     12  H   UNL     1      -4.910  -2.075   0.073  0.00  0.00    +0.159 HD
ATOM     13  H   UNL     1      -2.409  -0.417   1.681  0.00  0.00    +0.159 HD
ATOM     14  H   UNL     1      -3.784  -1.420   1.777  0.00  0.00    +0.159 HD
ENDBRANCH   7  10
ENDBRANCH   4   7
BRANCH   1  15
ATOM     15  C   UNL     1       2.248  -0.014   0.309  0.00  0.00    +0.132 C 
BRANCH  15  17
ATOM     16  O   UNL     1       2.205  -0.372  -2.108  0.00  0.00    -0.250 OA
ATOM     17  C   UNL     1       2.805  -0.481  -1.046  0.00  0.00    +0.318 C 
BRANCH  17  18
ATOM     18  O   UNL     1       4.043  -1.034  -0.961  0.00  0.00    -0.480 OA
ATOM     19  H   UNL     1       4.470  -1.100  -0.130  0.00  0.00    +0.295 HD
ENDBRANCH  17  18
ENDBRANCH  15  17
BRANCH  15  20
ATOM     20  C   UNL     1       2.237  -1.205   1.304  0.00  0.00    +0.069 C 
BRANCH  20  21
ATOM     21  S   UNL     1       1.690  -0.752   2.982  0.00  0.00    -0.167 S 
ATOM     22  H   UNL     1       1.713  -1.854   3.779  0.00  0.00    +0.102 HD
ENDBRANCH  20  21
ENDBRANCH  15  20
ENDBRANCH   1  15
TORSDOF 7
