REMARK  Name = 4495
REMARK  5 active torsions:
REMARK  status: ('A' for Active; 'I' for Inactive)
REMARK    1  A    between atoms: C_1  and  N_10
REMARK    2  A    between atoms: C_2  and  O_16
REMARK    3  A    between atoms: C_5  and  N_9
REMARK    4  A    between atoms: N_10  and  S_12
REMARK    5  A    between atoms: O_16  and  C_17
REMARK                            x       y       z     vdW  Elec       q    Type
REMARK                         _______ _______ _______ _____ _____    ______ ____
ROOT
ATOM      1  C   UNL     1      -1.309   0.139  -0.486  0.00  0.00    +0.099 C 
ATOM      2  C   UNL     1      -0.128  -0.026   0.237  0.00  0.00    +0.161 C 
ATOM      3  C   UNL     1      -1.997  -0.977  -0.962  0.00  0.00    +0.021 C 
ATOM      4  C   UNL     1       0.366  -1.307   0.483  0.00  0.00    +0.063 C 
ATOM      5  C   UNL     1      -0.321  -2.423   0.007  0.00  0.00    +0.146 C 
ATOM      6  C   UNL     1      -1.503  -2.258  -0.716  0.00  0.00    +0.026 C 
ENDROOT
BRANCH   5   9
ATOM      7  O   UNL     1      -0.450  -4.718  -0.183  0.00  0.00    -0.126 OA
ATOM      8  O   UNL     1       1.247  -3.853   0.908  0.00  0.00    -0.126 OA
ATOM      9  N   UNL     1       0.183  -3.727   0.256  0.00  0.00    +0.058 N 
ENDBRANCH   5   9
BRANCH   1  10
ATOM     10  N   UNL     1      -1.827   1.446  -0.748  0.00  0.00    -0.216 N 
ATOM     11  H   UNL     1      -1.376   2.052  -1.379  0.00  0.00    +0.173 HD
BRANCH  10  12
ATOM     12  S   UNL     1      -3.262   1.929   0.071  0.00  0.00    +0.056 S 
ATOM     13  O   UNL     1      -3.739   3.160  -0.530  0.00  0.00    -0.154 OA
ATOM     14  O   UNL     1      -4.157   0.804   0.258  0.00  0.00    -0.154 OA
ATOM     15  C   UNL     1      -2.587   2.359   1.660  0.00  0.00    +0.200 C 
ENDBRANCH  10  12
ENDBRANCH   1  10
BRANCH   2  16
ATOM     16  O   UNL     1       0.559   1.053   0.710  0.00  0.00    -0.452 OA
BRANCH  16  17
ATOM     17  C   UNL     1       1.860   1.227   0.273  0.00  0.00    +0.145 C 
ATOM     18  C   UNL     1       2.147   1.074  -1.072  0.00  0.00    +0.037 C 
ATOM     19  C   UNL     1       2.843   1.550   1.192  0.00  0.00    +0.037 C 
ATOM     20  C   UNL     1       3.459   1.249  -1.512  0.00  0.00    +0.003 C 
ATOM     21  C   UNL     1       4.155   1.725   0.752  0.00  0.00    +0.003 C 
ATOM     22  C   UNL     1       4.463   1.574  -0.600  0.00  0.00    +0.000 C 
ENDBRANCH  16  17
ENDBRANCH   2  16
TORSDOF 5
