REMARK  Name = 31315
REMARK  4 active torsions:
REMARK  status: ('A' for Active; 'I' for Inactive)
REMARK    1  A    between atoms: C_3  and  C_12
REMARK    2  A    between atoms: C_3  and  C_20
REMARK    3  A    between atoms: C_17  and  O_18
REMARK    4  A    between atoms: C_25  and  O_26
REMARK                            x       y       z     vdW  Elec       q    Type
REMARK                         _______ _______ _______ _____ _____    ______ ____
ROOT
ATOM      1  O   UNL     1      -0.101  -0.028  -2.885  0.00  0.00    -0.274 OA
ATOM      2  N   UNL     1      -0.105   2.111  -1.930  0.00  0.00    -0.283 N 
ATOM      3  C   UNL     1      -0.018   0.253  -0.407  0.00  0.00    +0.126 C 
ATOM      4  C   UNL     1      -0.029   1.612   0.294  0.00  0.00    +0.006 C 
ATOM      5  C   UNL     1      -0.081   0.715  -1.913  0.00  0.00    +0.237 C 
ATOM      6  C   UNL     1      -0.079   2.638  -0.648  0.00  0.00    +0.047 C 
ATOM      7  C   UNL     1      -0.012   1.919   1.648  0.00  0.00    -0.002 C 
ATOM      8  C   UNL     1      -0.105   3.975  -0.300  0.00  0.00    +0.014 C 
ATOM      9  C   UNL     1      -0.038   3.265   2.027  0.00  0.00    -0.000 C 
ATOM     10  C   UNL     1      -0.083   4.285   1.060  0.00  0.00    +0.001 C 
ATOM     11  H   UNL     1      -0.137   2.654  -2.751  0.00  0.00    +0.155 HD
ENDROOT
BRANCH   3  12
ATOM     12  C   UNL     1      -1.221  -0.568  -0.082  0.00  0.00    -0.007 C 
ATOM     13  C   UNL     1      -1.150  -1.544   0.911  0.00  0.00    -0.000 C 
ATOM     14  C   UNL     1      -2.415  -0.357  -0.770  0.00  0.00    -0.000 C 
ATOM     15  C   UNL     1      -2.275  -2.311   1.216  0.00  0.00    +0.036 C 
ATOM     16  C   UNL     1      -3.540  -1.124  -0.465  0.00  0.00    +0.036 C 
ATOM     17  C   UNL     1      -3.470  -2.101   0.528  0.00  0.00    +0.134 C 
BRANCH  17  18
ATOM     18  O   UNL     1      -4.566  -2.850   0.825  0.00  0.00    -0.506 OA
ATOM     19  H   UNL     1      -4.519  -3.506   1.492  0.00  0.00    +0.292 HD
ENDBRANCH  17  18
ENDBRANCH   3  12
BRANCH   3  20
ATOM     20  C   UNL     1       1.243  -0.505  -0.164  0.00  0.00    -0.007 C 
ATOM     21  C   UNL     1       1.486  -1.692  -0.853  0.00  0.00    -0.000 C 
ATOM     22  C   UNL     1       2.179  -0.026   0.753  0.00  0.00    -0.000 C 
ATOM     23  C   UNL     1       2.666  -2.401  -0.627  0.00  0.00    +0.036 C 
ATOM     24  C   UNL     1       3.359  -0.734   0.980  0.00  0.00    +0.036 C 
ATOM     25  C   UNL     1       3.602  -1.922   0.290  0.00  0.00    +0.134 C 
BRANCH  25  26
ATOM     26  O   UNL     1       4.753  -2.614   0.511  0.00  0.00    -0.506 OA
ATOM     27  H   UNL     1       4.917  -3.412   0.048  0.00  0.00    +0.292 HD
ENDBRANCH  25  26
ENDBRANCH   3  20
TORSDOF 4
