REMARK  Name = 3064778
REMARK  2 active torsions:
REMARK  status: ('A' for Active; 'I' for Inactive)
REMARK    1  A    between atoms: S_1  and  C_6
REMARK    2  A    between atoms: S_1  and  N_16
REMARK                            x       y       z     vdW  Elec       q    Type
REMARK                         _______ _______ _______ _____ _____    ______ ____
ROOT
ATOM      1  S   UNL     1       0.933  -1.099   1.511  0.00  0.00    +0.063 S 
ATOM      2  O   UNL     1       0.538  -0.317   2.663  0.00  0.00    -0.153 OA
ATOM      3  O   UNL     1       1.405  -2.459   1.659  0.00  0.00    -0.153 OA
ENDROOT
BRANCH   1   6
ATOM      4  O   UNL     1      -4.418   0.793  -1.401  0.00  0.00    -0.270 OA
ATOM      5  N   UNL     1      -3.349   1.857   0.342  0.00  0.00    -0.279 N 
ATOM      6  C   UNL     1      -0.422  -1.114   0.379  0.00  0.00    +0.122 C 
ATOM      7  C   UNL     1      -1.401  -0.123   0.364  0.00  0.00    +0.024 C 
ATOM      8  C   UNL     1      -0.470  -2.178  -0.516  0.00  0.00    +0.020 C 
ATOM      9  C   UNL     1      -2.445  -0.212  -0.572  0.00  0.00    +0.055 C 
ATOM     10  C   UNL     1      -1.359   0.999   1.301  0.00  0.00    +0.017 C 
ATOM     11  C   UNL     1      -1.510  -2.260  -1.443  0.00  0.00    +0.002 C 
ATOM     12  C   UNL     1      -2.500  -1.278  -1.475  0.00  0.00    +0.005 C 
ATOM     13  C   UNL     1      -3.495   0.842  -0.594  0.00  0.00    +0.250 C 
ATOM     14  C   UNL     1      -2.322   1.925   1.247  0.00  0.00    +0.064 C 
ATOM     15  H   UNL     1      -4.026   2.572   0.356  0.00  0.00    +0.155 HD
ENDBRANCH   1   6
BRANCH   1  16
ATOM     16  N   UNL     1       2.081  -0.207   0.594  0.00  0.00    -0.158 NA
ATOM     17  N   UNL     1       3.319   1.984  -1.284  0.00  0.00    +0.385 N 
ATOM     18  C   UNL     1       2.459  -0.817  -0.716  0.00  0.00    +0.094 C 
ATOM     19  C   UNL     1       1.831   1.261   0.537  0.00  0.00    +0.073 C 
ATOM     20  C   UNL     1       3.916  -0.493  -1.025  0.00  0.00    -0.004 C 
ATOM     21  C   UNL     1       3.083   2.046   0.153  0.00  0.00    -0.062 C 
ATOM     22  C   UNL     1       4.128   0.852  -1.726  0.00  0.00    -0.080 C 
ATOM     23  H   UNL     1       3.794   2.842  -1.564  0.00  0.00    -0.084 HD
ATOM     24  H   UNL     1       2.404   1.869  -1.719  0.00  0.00    -0.084 HD
ENDBRANCH   1  16
TORSDOF 2
