REMARK  Name = 49867580
REMARK  12 active torsions:
REMARK  status: ('A' for Active; 'I' for Inactive)
REMARK    1  A    between atoms: C_1  and  C_3
REMARK    2  A    between atoms: C_1  and  C_12
REMARK    3  A    between atoms: C_3  and  O_4
REMARK    4  A    between atoms: O_4  and  C_5
REMARK    5  A    between atoms: C_5  and  C_7
REMARK    6  A    between atoms: C_7  and  C_9
REMARK    7  A    between atoms: C_9  and  O_10
REMARK    8  A    between atoms: C_12  and  O_14
REMARK    9  A    between atoms: O_14  and  C_16
REMARK   10  A    between atoms: C_16  and  C_17
REMARK   11  A    between atoms: C_17  and  C_18
REMARK   12  A    between atoms: C_18  and  O_20
REMARK                            x       y       z     vdW  Elec       q    Type
REMARK                         _______ _______ _______ _____ _____    ______ ____
ROOT
ATOM      1  C   UNL     1       2.399   2.088  -0.028  0.00  0.00    +0.153 C 
ENDROOT
BRANCH   1   3
ATOM      2  O   UNL     1       3.737   0.155   0.612  0.00  0.00    -0.250 OA
ATOM      3  C   UNL     1       2.771   0.621   0.024  0.00  0.00    +0.321 C 
BRANCH   3   4
ATOM      4  O   UNL     1       1.853  -0.096  -0.696  0.00  0.00    -0.452 OA
BRANCH   4   5
ATOM      5  C   UNL     1       2.070  -1.505  -0.745  0.00  0.00    +0.180 C 
ATOM      6  C   UNL     1       2.969  -1.817  -1.933  0.00  0.00    +0.048 C 
BRANCH   5   7
ATOM      7  C   UNL     1       0.716  -2.202  -0.880  0.00  0.00    +0.153 C 
BRANCH   7   9
ATOM      8  O   UNL     1       0.043  -1.458   1.340  0.00  0.00    -0.250 OA
ATOM      9  C   UNL     1      -0.028  -2.280   0.437  0.00  0.00    +0.321 C 
BRANCH   9  10
ATOM     10  O   UNL     1      -0.786  -3.417   0.448  0.00  0.00    -0.444 OA
ATOM     11  C   UNL     1      -1.552  -3.635   1.638  0.00  0.00    +0.256 C 
ENDBRANCH   9  10
ENDBRANCH   7   9
ENDBRANCH   5   7
ENDBRANCH   4   5
ENDBRANCH   3   4
ENDBRANCH   1   3
BRANCH   1  12
ATOM     12  C   UNL     1       1.028   2.365   0.589  0.00  0.00    +0.180 C 
ATOM     13  C   UNL     1       0.864   3.841   0.925  0.00  0.00    +0.048 C 
BRANCH  12  14
ATOM     14  O   UNL     1       0.022   1.998  -0.354  0.00  0.00    -0.452 OA
BRANCH  14  16
ATOM     15  O   UNL     1      -1.420   1.487   1.373  0.00  0.00    -0.250 OA
ATOM     16  C   UNL     1      -1.165   1.573   0.179  0.00  0.00    +0.319 C 
BRANCH  16  17
ATOM     17  C   UNL     1      -2.116   1.229  -0.948  0.00  0.00    +0.139 C 
BRANCH  17  18
ATOM     18  C   UNL     1      -3.485   0.775  -0.438  0.00  0.00    +0.122 C 
ATOM     19  C   UNL     1      -4.535   0.857  -1.538  0.00  0.00    +0.032 C 
BRANCH  18  20
ATOM     20  O   UNL     1      -3.383  -0.580  -0.006  0.00  0.00    -0.384 OA
ATOM     21  H   UNL     1      -2.716  -0.647   0.695  0.00  0.00    +0.210 HD
ENDBRANCH  18  20
ENDBRANCH  17  18
ENDBRANCH  16  17
ENDBRANCH  14  16
ENDBRANCH  12  14
ENDBRANCH   1  12
TORSDOF 12
