REMARK  Name = 164509
REMARK  2 active torsions:
REMARK  status: ('A' for Active; 'I' for Inactive)
REMARK    1  A    between atoms: C_10  and  C_19
REMARK    2  A    between atoms: C_24  and  N_25
REMARK                            x       y       z     vdW  Elec       q    Type
REMARK                         _______ _______ _______ _____ _____    ______ ____
ROOT
ATOM      1  O   UNL     1      -3.663   3.010  -0.209  0.00  0.00    -0.435 OA
ATOM      2  O   UNL     1      -1.900   3.425   1.381  0.00  0.00    -0.435 OA
ATOM      3  O   UNL     1      -2.016  -4.010   1.228  0.00  0.00    -0.273 OA
ATOM      4  N   UNL     1      -0.731  -2.421   0.117  0.00  0.00    -0.182 N 
ATOM      5  N   UNL     1       0.517  -1.867   0.080  0.00  0.00    -0.176 NA
ATOM      6  C   UNL     1      -1.585  -2.398  -1.086  0.00  0.00    +0.104 C 
ATOM      7  C   UNL     1      -1.482  -1.110  -1.916  0.00  0.00    +0.048 C 
ATOM      8  C   UNL     1      -1.568   0.104  -1.033  0.00  0.00    -0.016 C 
ATOM      9  C   UNL     1      -0.535   0.361  -0.103  0.00  0.00    +0.018 C 
ATOM     10  C   UNL     1       0.623  -0.574  -0.032  0.00  0.00    +0.099 C 
ATOM     11  C   UNL     1      -1.288  -3.612  -1.972  0.00  0.00    +0.024 C 
ATOM     12  C   UNL     1      -2.660   0.978  -1.115  0.00  0.00    +0.036 C 
ATOM     13  C   UNL     1      -0.585   1.469   0.753  0.00  0.00    +0.041 C 
ATOM     14  C   UNL     1      -2.683   2.067  -0.266  0.00  0.00    +0.176 C 
ATOM     15  C   UNL     1      -1.677   2.304   0.642  0.00  0.00    +0.176 C 
ATOM     16  C   UNL     1      -1.042  -3.255   1.194  0.00  0.00    +0.245 C 
ATOM     17  C   UNL     1      -3.160   3.868   0.836  0.00  0.00    +0.429 C 
ATOM     18  C   UNL     1      -0.101  -3.179   2.374  0.00  0.00    +0.097 C 
ENDROOT
BRANCH  10  19
ATOM     19  C   UNL     1       2.000   0.002  -0.075  0.00  0.00    +0.019 C 
ATOM     20  C   UNL     1       2.230   1.184  -0.769  0.00  0.00    +0.003 C 
ATOM     21  C   UNL     1       3.038  -0.649   0.581  0.00  0.00    +0.003 C 
ATOM     22  C   UNL     1       3.517   1.722  -0.808  0.00  0.00    +0.014 C 
ATOM     23  C   UNL     1       4.324  -0.111   0.542  0.00  0.00    +0.014 C 
ATOM     24  C   UNL     1       4.564   1.074  -0.153  0.00  0.00    +0.042 C 
BRANCH  24  25
ATOM     25  N   UNL     1       5.864   1.619  -0.191  0.00  0.00    -0.357 N 
ATOM     26  H   UNL     1       6.033   2.456  -0.681  0.00  0.00    +0.142 HD
ATOM     27  H   UNL     1       6.603   1.163   0.273  0.00  0.00    +0.142 HD
ENDBRANCH  24  25
ENDBRANCH  10  19
TORSDOF 2
