REMARK  Name = 6951130
REMARK  4 active torsions:
REMARK  status: ('A' for Active; 'I' for Inactive)
REMARK    1  A    between atoms: C_1  and  N_3
REMARK    2  A    between atoms: C_1  and  C_9
REMARK    3  A    between atoms: C_1  and  C_10
REMARK    4  A    between atoms: C_10  and  C_11
REMARK                            x       y       z     vdW  Elec       q    Type
REMARK                         _______ _______ _______ _____ _____    ______ ____
ROOT
ATOM      1  C   UNL     1      -0.608   0.654  -0.195  0.00  0.00    +0.047 C 
ATOM      2  C   UNL     1      -1.752   1.235  -1.043  0.00  0.00    -0.011 C 
ENDROOT
BRANCH   1   3
ATOM      3  N   UNL     1      -0.424   1.593   0.964  0.00  0.00    +0.390 N 
ATOM      4  H   UNL     1      -0.062   2.484   0.625  0.00  0.00    -0.088 HD
ATOM      5  H   UNL     1       0.236   1.188   1.628  0.00  0.00    -0.088 HD
ATOM      6  H   UNL     1      -1.321   1.743   1.425  0.00  0.00    -0.088 HD
ENDBRANCH   1   3
BRANCH   1   9
ATOM      7  O   UNL     1      -1.825  -0.765   1.281  0.00  0.00    -0.248 OA
ATOM      8  O   UNL     1      -0.888  -1.684  -0.585  0.00  0.00    -0.248 OA
ATOM      9  C   UNL     1      -1.157  -0.737   0.207  0.00  0.00    +0.346 C 
ENDBRANCH   1   9
BRANCH   1  10
ATOM     10  C   UNL     1       0.694   0.633  -1.024  0.00  0.00    -0.009 C 
BRANCH  10  11
ATOM     11  C   UNL     1       1.929  -0.056  -0.397  0.00  0.00    -0.001 C 
ATOM     12  C   UNL     1       1.586  -1.514  -0.069  0.00  0.00    -0.000 C 
ATOM     13  C   UNL     1       2.445   0.640   0.861  0.00  0.00    -0.000 C 
ENDBRANCH  10  11
ENDBRANCH   1  10
TORSDOF 4
