REMARK  Name = 446492
REMARK  9 active torsions:
REMARK  status: ('A' for Active; 'I' for Inactive)
REMARK    1  A    between atoms: C_2  and  O_17
REMARK    2  A    between atoms: C_3  and  N_6
REMARK    3  A    between atoms: C_4  and  O_19
REMARK    4  A    between atoms: C_5  and  C_21
REMARK    5  A    between atoms: C_14  and  O_15
REMARK    6  A    between atoms: C_21  and  O_22
REMARK    7  A    between atoms: O_22  and  P_23
REMARK    8  A    between atoms: P_23  and  O_25
REMARK    9  A    between atoms: P_23  and  O_27
REMARK                            x       y       z     vdW  Elec       q    Type
REMARK                         _______ _______ _______ _____ _____    ______ ____
ROOT
ATOM      1  O   UNL     1       1.338   0.047   0.086  0.00  0.00    -0.333 OA
ATOM      2  C   UNL     1       0.420  -2.139  -0.166  0.00  0.00    +0.187 C 
ATOM      3  C   UNL     1       0.150  -0.648  -0.355  0.00  0.00    +0.224 C 
ATOM      4  C   UNL     1       1.904  -2.181  -0.475  0.00  0.00    +0.171 C 
ATOM      5  C   UNL     1       2.399  -0.919   0.220  0.00  0.00    +0.176 C 
ENDROOT
BRANCH   3   6
ATOM      6  N   UNL     1      -1.029  -0.128   0.326  0.00  0.00    -0.262 N 
ATOM      7  N   UNL     1      -2.276   0.740   1.958  0.00  0.00    -0.247 NA
ATOM      8  C   UNL     1      -2.295   0.004  -0.198  0.00  0.00    +0.065 C 
ATOM      9  C   UNL     1      -1.075   0.328   1.619  0.00  0.00    +0.222 C 
ATOM     10  C   UNL     1      -3.050   0.545   0.838  0.00  0.00    +0.094 C 
ATOM     11  C   UNL     1      -2.822  -0.299  -1.454  0.00  0.00    -0.002 C 
ATOM     12  C   UNL     1      -4.415   0.808   0.625  0.00  0.00    +0.053 C 
ATOM     13  C   UNL     1      -4.181  -0.031  -1.648  0.00  0.00    +0.091 C 
ATOM     14  C   UNL     1      -4.965   0.512  -0.628  0.00  0.00    +0.122 C 
BRANCH  14  15
ATOM     15  O   UNL     1      -6.287   0.759  -0.854  0.00  0.00    -0.475 OA
ATOM     16  C   UNL     1      -7.035   1.315   0.226  0.00  0.00    +0.252 C 
ENDBRANCH  14  15
ENDBRANCH   3   6
BRANCH   2  17
ATOM     17  O   UNL     1       0.195  -2.525   1.186  0.00  0.00    -0.378 OA
ATOM     18  H   UNL     1      -0.756  -2.496   1.377  0.00  0.00    +0.211 HD
ENDBRANCH   2  17
BRANCH   4  19
ATOM     19  O   UNL     1       2.545  -3.340   0.012  0.00  0.00    -0.379 OA
ATOM     20  H   UNL     1       2.203  -4.119  -0.454  0.00  0.00    +0.211 HD
ENDBRANCH   4  19
BRANCH   5  21
ATOM     21  C   UNL     1       3.676  -0.363  -0.383  0.00  0.00    +0.186 C 
BRANCH  21  22
ATOM     22  O   UNL     1       4.044   0.809   0.325  0.00  0.00    -0.271 OA
BRANCH  22  23
ATOM     23  P   UNL     1       5.382   1.597  -0.130  0.00  0.00    +0.473 P 
ATOM     24  O   UNL     1       5.698   2.826   0.671  0.00  0.00    -0.227 OA
BRANCH  23  25
ATOM     25  O   UNL     1       5.165   1.841  -1.714  0.00  0.00    -0.303 OA
ATOM     26  H   UNL     1       4.967   0.996  -2.147  0.00  0.00    +0.222 HD
ENDBRANCH  23  25
BRANCH  23  27
ATOM     27  O   UNL     1       6.513   0.442  -0.084  0.00  0.00    -0.303 OA
ATOM     28  H   UNL     1       6.229  -0.311  -0.625  0.00  0.00    +0.222 HD
ENDBRANCH  23  27
ENDBRANCH  22  23
ENDBRANCH  21  22
ENDBRANCH   5  21
TORSDOF 9
