REMARK  Name = 798
REMARK  0 active torsions:
REMARK  status: ('A' for Active; 'I' for Inactive)
REMARK                            x       y       z     vdW  Elec       q    Type
REMARK                         _______ _______ _______ _____ _____    ______ ____
ROOT
ATOM      1  N   UNL     1       1.561   1.112   0.000  0.00  0.00    -0.312 N 
ATOM      2  C   UNL     1       0.254   0.681   0.000  0.00  0.00    +0.048 C 
ATOM      3  C   UNL     1       0.281  -0.716   0.000  0.00  0.00    +0.015 C 
ATOM      4  C   UNL     1       1.650  -1.106   0.000  0.00  0.00    +0.017 C 
ATOM      5  C   UNL     1      -0.939   1.412   0.000  0.00  0.00    +0.015 C 
ATOM      6  C   UNL     1      -0.940  -1.418   0.000  0.00  0.00    +0.001 C 
ATOM      7  C   UNL     1       2.412   0.040   0.000  0.00  0.00    +0.062 C 
ATOM      8  C   UNL     1      -2.138   0.694   0.000  0.00  0.00    +0.001 C 
ATOM      9  C   UNL     1      -2.141  -0.700   0.000  0.00  0.00    +0.000 C 
ATOM     10  H   UNL     1       1.843   2.056   0.000  0.00  0.00    +0.152 HD
ENDROOT
TORSDOF 0
