REMARK  Name = 5365247
REMARK  4 active torsions:
REMARK  status: ('A' for Active; 'I' for Inactive)
REMARK    1  A    between atoms: C_1  and  C_4
REMARK    2  A    between atoms: C_1  and  C_11
REMARK    3  A    between atoms: C_2  and  C_16
REMARK    4  A    between atoms: C_16  and  N_17
REMARK                            x       y       z     vdW  Elec       q    Type
REMARK                         _______ _______ _______ _____ _____    ______ ____
ROOT
ATOM      1  C   UNL     1       0.112   0.230   0.321  0.00  0.00    -0.005 C 
ATOM      2  C   UNL     1       0.711   1.381   0.701  0.00  0.00    -0.049 C 
ENDROOT
BRANCH   1   4
ATOM      3 BR   UNL     1      -5.987   0.279  -0.330  0.00  0.00    -0.049 Br
ATOM      4  C   UNL     1      -1.366   0.242   0.164  0.00  0.00    -0.000 C 
ATOM      5  C   UNL     1      -2.154  -0.073   1.251  0.00  0.00    +0.000 C 
ATOM      6  C   UNL     1      -1.901   0.568  -1.065  0.00  0.00    +0.000 C 
ATOM      7  C   UNL     1      -3.541  -0.061   1.103  0.00  0.00    +0.007 C 
ATOM      8  C   UNL     1      -3.288   0.579  -1.213  0.00  0.00    +0.007 C 
ATOM      9  C   UNL     1      -4.108   0.264  -0.129  0.00  0.00    +0.035 C 
ENDBRANCH   1   4
BRANCH   1  11
ATOM     10  N   UNL     1       1.896  -2.993   0.937  0.00  0.00    -0.242 NA
ATOM     11  C   UNL     1       0.918  -0.986   0.073  0.00  0.00    +0.019 C 
ATOM     12  C   UNL     1       1.417  -1.237  -1.185  0.00  0.00    +0.003 C 
ATOM     13  C   UNL     1       1.168  -1.865   1.096  0.00  0.00    +0.099 C 
ATOM     14  C   UNL     1       2.171  -2.387  -1.387  0.00  0.00    +0.021 C 
ATOM     15  C   UNL     1       2.380  -3.225  -0.304  0.00  0.00    +0.099 C 
ENDBRANCH   1  11
BRANCH   2  16
ATOM     16  C   UNL     1       2.173   1.624   0.957  0.00  0.00    -0.050 C 
BRANCH  16  17
ATOM     17  N   UNL     1       2.715   2.616   0.030  0.00  0.00    +0.387 N 
ATOM     18  C   UNL     1       2.566   2.160  -1.351  0.00  0.00    -0.100 C 
ATOM     19  C   UNL     1       4.121   2.884   0.332  0.00  0.00    -0.100 C 
ATOM     20  H   UNL     1       2.190   3.484   0.143  0.00  0.00    -0.079 HD
ENDBRANCH  16  17
ENDBRANCH   2  16
TORSDOF 4
