REMARK  Name = 4619
REMARK  13 active torsions:
REMARK  status: ('A' for Active; 'I' for Inactive)
REMARK    1  A    between atoms: C_2  and  O_3
REMARK    2  A    between atoms: C_2  and  C_15
REMARK    3  A    between atoms: O_3  and  C_4
REMARK    4  A    between atoms: C_4  and  C_5
REMARK    5  A    between atoms: C_5  and  O_6
REMARK    6  A    between atoms: O_6  and  C_7
REMARK    7  A    between atoms: C_7  and  C_8
REMARK    8  A    between atoms: C_8  and  N_9
REMARK    9  A    between atoms: N_9  and  C_11
REMARK   10  A    between atoms: N_9  and  C_13
REMARK   11  A    between atoms: C_15  and  C_16
REMARK   12  A    between atoms: C_15  and  C_22
REMARK   13  A    between atoms: C_15  and  C_24
REMARK                            x       y       z     vdW  Elec       q    Type
REMARK                         _______ _______ _______ _____ _____    ______ ____
ROOT
ATOM      1  O   UNL     1      -3.020   1.893  -1.299  0.00  0.00    -0.250 OA
ATOM      2  C   UNL     1      -2.295   1.304  -0.507  0.00  0.00    +0.320 C 
ENDROOT
BRANCH   2   3
ATOM      3  O   UNL     1      -1.041   1.711  -0.138  0.00  0.00    -0.446 OA
BRANCH   3   4
ATOM      4  C   UNL     1      -0.579   2.921  -0.747  0.00  0.00    +0.240 C 
BRANCH   4   5
ATOM      5  C   UNL     1       0.816   3.230  -0.237  0.00  0.00    +0.189 C 
BRANCH   5   6
ATOM      6  O   UNL     1       1.679   2.146  -0.558  0.00  0.00    -0.352 OA
BRANCH   6   7
ATOM      7  C   UNL     1       3.008   2.391  -0.122  0.00  0.00    +0.120 C 
BRANCH   7   8
ATOM      8  C   UNL     1       3.873   1.198  -0.495  0.00  0.00    -0.045 C 
BRANCH   8   9
ATOM      9  N   UNL     1       3.388  -0.011   0.151  0.00  0.00    +0.389 N 
ATOM     10  H   UNL     1       2.368  -0.002   0.114  0.00  0.00    -0.080 HD
BRANCH   9  11
ATOM     11  C   UNL     1       3.802  -0.050   1.556  0.00  0.00    -0.077 C 
ATOM     12  C   UNL     1       3.243  -1.275   2.260  0.00  0.00    -0.025 C 
ENDBRANCH   9  11
BRANCH   9  13
ATOM     13  C   UNL     1       3.869  -1.204  -0.551  0.00  0.00    -0.077 C 
ATOM     14  C   UNL     1       5.385  -1.293  -0.505  0.00  0.00    -0.025 C 
ENDBRANCH   9  13
ENDBRANCH   8   9
ENDBRANCH   7   8
ENDBRANCH   6   7
ENDBRANCH   5   6
ENDBRANCH   4   5
ENDBRANCH   3   4
ENDBRANCH   2   3
BRANCH   2  15
ATOM     15  C   UNL     1      -2.676  -0.003   0.228  0.00  0.00    +0.108 C 
BRANCH  15  16
ATOM     16  C   UNL     1      -1.653  -1.096  -0.160  0.00  0.00    -0.013 C 
ATOM     17  C   UNL     1      -0.877  -1.707   0.826  0.00  0.00    -0.004 C 
ATOM     18  C   UNL     1      -1.504  -1.471  -1.495  0.00  0.00    -0.004 C 
ATOM     19  C   UNL     1       0.046  -2.692   0.476  0.00  0.00    -0.000 C 
ATOM     20  C   UNL     1      -0.581  -2.456  -1.845  0.00  0.00    -0.000 C 
ATOM     21  C   UNL     1       0.194  -3.067  -0.859  0.00  0.00    -0.000 C 
ENDBRANCH  15  16
BRANCH  15  22
ATOM     22  C   UNL     1      -4.096  -0.446  -0.256  0.00  0.00    +0.015 C 
ATOM     23  C   UNL     1      -4.607  -1.758   0.332  0.00  0.00    +0.001 C 
ENDBRANCH  15  22
BRANCH  15  24
ATOM     24  C   UNL     1      -2.689   0.330   1.756  0.00  0.00    +0.015 C 
ATOM     25  C   UNL     1      -3.684   1.404   2.189  0.00  0.00    +0.001 C 
ENDBRANCH  15  24
ENDBRANCH   2  15
TORSDOF 13
