REMARK  Name = 5289296
REMARK  7 active torsions:
REMARK  status: ('A' for Active; 'I' for Inactive)
REMARK    1  A    between atoms: N_1  and  C_14
REMARK    2  A    between atoms: N_2  and  C_23
REMARK    3  A    between atoms: N_3  and  CA_17
REMARK    4  A    between atoms: CA_17  and  C_18
REMARK    5  A    between atoms: CA_17  and  C_20
REMARK    6  A    between atoms: C_20  and  O_21
REMARK    7  A    between atoms: C_23  and  C_24
REMARK                            x       y       z     vdW  Elec       q    Type
REMARK                         _______ _______ _______ _____ _____    ______ ____
ROOT
ATOM      1  N   UNL     1       1.365   2.655  -0.532  0.00  0.00    -0.262 N 
ATOM      2  N   UNL     1      -2.052   0.426   1.625  0.00  0.00    -0.276 N 
ATOM      3  N   UNL     1       1.915  -1.934   0.567  0.00  0.00    -0.258 N 
ATOM      4  N   UNL     1       1.836   0.320  -0.056  0.00  0.00    -0.311 NA
ATOM      5  N   UNL     1      -0.687   2.813   0.326  0.00  0.00    -0.240 NA
ATOM      6  N   UNL     1      -0.039  -0.749   1.083  0.00  0.00    -0.311 NA
ATOM      7  C   UNL     1       1.065   1.417  -0.038  0.00  0.00    +0.220 C 
ATOM      8  C   UNL     1      -0.211   1.536   0.489  0.00  0.00    +0.168 C 
ATOM      9  C   UNL     1      -0.762   0.396   1.066  0.00  0.00    +0.219 C 
ATOM     10  C   UNL     1       1.214  -0.744   0.530  0.00  0.00    +0.202 C 
ATOM     11  C   UNL     1       0.282   3.458  -0.289  0.00  0.00    +0.222 C 
ATOM     12  C   UNL     1      -2.578   1.649   2.205  0.00  0.00    +0.115 C 
ATOM     13  H   UNL     1       1.486  -2.715   0.986  0.00  0.00    +0.160 HD
ENDROOT
BRANCH   1  14
ATOM     14  C   UNL     1       2.588   3.051  -1.186  0.00  0.00    +0.077 C 
ATOM     15  C   UNL     1       3.797   2.940  -0.255  0.00  0.00    +0.022 C 
ATOM     16  C   UNL     1       2.811   2.289  -2.494  0.00  0.00    +0.022 C 
ENDBRANCH   1  14
BRANCH   3  17
ATOM     17  CA  UNL     1       3.249  -2.094   0.021  0.00  0.00    +0.109 C 
BRANCH  17  18
ATOM     18  C   UNL     1       3.534  -3.580  -0.230  0.00  0.00    +0.023 C 
ATOM     19  C   UNL     1       2.538  -4.215  -1.192  0.00  0.00    +0.002 C 
ENDBRANCH  17  18
BRANCH  17  20
ATOM     20  C   UNL     1       4.258  -1.506   1.009  0.00  0.00    +0.157 C 
BRANCH  20  21
ATOM     21  O   UNL     1       5.571  -1.640   0.478  0.00  0.00    -0.380 OA
ATOM     22  H   UNL     1       6.212  -1.268   1.104  0.00  0.00    +0.211 HD
ENDBRANCH  20  21
ENDBRANCH  17  20
ENDBRANCH   3  17
BRANCH   2  23
ATOM     23  C   UNL     1      -2.887  -0.762   1.619  0.00  0.00    +0.120 C 
BRANCH  23  24
ATOM     24  C   UNL     1      -3.711  -0.862   0.363  0.00  0.00    -0.002 C 
ATOM     25  C   UNL     1      -4.973  -0.286   0.326  0.00  0.00    -0.003 C 
ATOM     26  C   UNL     1      -3.197  -1.530  -0.740  0.00  0.00    -0.003 C 
ATOM     27  C   UNL     1      -5.736  -0.379  -0.838  0.00  0.00    -0.000 C 
ATOM     28  C   UNL     1      -3.960  -1.623  -1.904  0.00  0.00    -0.000 C 
ATOM     29  C   UNL     1      -5.230  -1.047  -1.953  0.00  0.00    -0.000 C 
ENDBRANCH  23  24
ENDBRANCH   2  23
TORSDOF 7
