REMARK  Name = 47953
REMARK  1 active torsions:
REMARK  status: ('A' for Active; 'I' for Inactive)
REMARK    1  A    between atoms: C_2  and  C_9
REMARK                            x       y       z     vdW  Elec       q    Type
REMARK                         _______ _______ _______ _____ _____    ______ ____
ROOT
ATOM      1  N   UNL     1      -3.348  -0.312  -0.950  0.00  0.00    +0.384 N 
ATOM      2  C   UNL     1      -1.286   0.348  -0.035  0.00  0.00    -0.003 C 
ATOM      3  C   UNL     1      -2.117  -0.223   1.050  0.00  0.00    -0.019 C 
ATOM      4  C   UNL     1      -1.877   1.264   1.005  0.00  0.00    +0.000 C 
ATOM      5  C   UNL     1      -1.977   0.061  -1.329  0.00  0.00    -0.078 C 
ATOM      6  C   UNL     1      -3.313  -0.856   0.416  0.00  0.00    -0.081 C 
ATOM      7  H   UNL     1      -3.704  -1.018  -1.594  0.00  0.00    -0.085 HD
ATOM      8  H   UNL     1      -3.959   0.504  -0.990  0.00  0.00    -0.085 HD
ENDROOT
BRANCH   2   9
ATOM      9  C   UNL     1       0.190   0.173  -0.029  0.00  0.00    -0.025 C 
ATOM     10  C   UNL     1       1.028   1.275  -0.213  0.00  0.00    -0.005 C 
ATOM     11  C   UNL     1       0.746  -1.095   0.160  0.00  0.00    -0.005 C 
ATOM     12  C   UNL     1       2.413   1.111  -0.208  0.00  0.00    -0.005 C 
ATOM     13  C   UNL     1       2.131  -1.259   0.165  0.00  0.00    -0.005 C 
ATOM     14  C   UNL     1       2.964  -0.156  -0.019  0.00  0.00    -0.022 C 
ATOM     15  C   UNL     1       4.446  -0.331  -0.011  0.00  0.00    +0.031 C 
ENDBRANCH   2   9
TORSDOF 1
