REMARK  Name = 5601
REMARK  4 active torsions:
REMARK  status: ('A' for Active; 'I' for Inactive)
REMARK    1  A    between atoms: C_1  and  C_3
REMARK    2  A    between atoms: C_1  and  C_10
REMARK    3  A    between atoms: C_3  and  C_5
REMARK    4  A    between atoms: C_10  and  C_14
REMARK                            x       y       z     vdW  Elec       q    Type
REMARK                         _______ _______ _______ _____ _____    ______ ____
ROOT
ATOM      1  C   UNL     1       0.463   0.217  -0.020  0.00  0.00    +0.143 C 
ENDROOT
BRANCH   1   3
ATOM      2  O   UNL     1      -0.606  -1.922   0.037  0.00  0.00    -0.290 OA
ATOM      3  C   UNL     1      -0.753  -0.700   0.001  0.00  0.00    +0.187 C 
BRANCH   3   5
ATOM      4  S   UNL     1      -3.435  -1.093   0.022  0.00  0.00    -0.084 S 
ATOM      5  C   UNL     1      -2.087  -0.073  -0.001  0.00  0.00    +0.065 C 
ATOM      6  C   UNL     1      -2.372   1.245  -0.019  0.00  0.00    +0.010 C 
ATOM      7  C   UNL     1      -3.782   1.452  -0.014  0.00  0.00    +0.008 C 
ATOM      8  C   UNL     1      -4.479   0.264   0.007  0.00  0.00    +0.036 C 
ENDBRANCH   3   5
ENDBRANCH   1   3
BRANCH   1  10
ATOM      9  O   UNL     1       1.963  -1.678  -0.069  0.00  0.00    -0.287 OA
ATOM     10  C   UNL     1       1.821  -0.458  -0.013  0.00  0.00    +0.252 C 
BRANCH  10  14
ATOM     11  F   UNL     1       2.650   1.761   0.021  0.00  0.00    -0.163 F 
ATOM     12  F   UNL     1       3.816   0.279  -1.071  0.00  0.00    -0.163 F 
ATOM     13  F   UNL     1       3.786   0.250   1.108  0.00  0.00    -0.163 F 
ATOM     14  C   UNL     1       3.015   0.455   0.011  0.00  0.00    +0.452 C 
ENDBRANCH  10  14
ENDBRANCH   1  10
TORSDOF 4
