REMARK  Name = 2230
REMARK  2 active torsions:
REMARK  status: ('A' for Active; 'I' for Inactive)
REMARK    1  A    between atoms: C_5  and  C_10
REMARK    2  A    between atoms: C_10  and  O_11
REMARK                            x       y       z     vdW  Elec       q    Type
REMARK                         _______ _______ _______ _____ _____    ______ ____
ROOT
ATOM      1  N   UNL     1      -1.992  -0.667  -0.380  0.00  0.00    +0.389 N 
ATOM      2  C   UNL     1      -2.526   0.388   0.492  0.00  0.00    -0.072 C 
ATOM      3  C   UNL     1      -0.564  -0.904  -0.099  0.00  0.00    -0.044 C 
ATOM      4  C   UNL     1      -1.808   1.721   0.228  0.00  0.00    +0.003 C 
ATOM      5  C   UNL     1       0.241   0.362  -0.037  0.00  0.00    +0.028 C 
ATOM      6  C   UNL     1      -0.321   1.571   0.097  0.00  0.00    -0.028 C 
ATOM      7  C   UNL     1      -2.758  -1.903  -0.235  0.00  0.00    -0.100 C 
ATOM      8  H   UNL     1      -2.082  -0.351  -1.346  0.00  0.00    -0.079 HD
ENDROOT
BRANCH   5  10
ATOM      9  O   UNL     1       2.388   1.165  -0.640  0.00  0.00    -0.245 OA
ATOM     10  C   UNL     1       1.699   0.285  -0.148  0.00  0.00    +0.335 C 
BRANCH  10  11
ATOM     11  O   UNL     1       2.114  -0.896   0.378  0.00  0.00    -0.442 OA
ATOM     12  C   UNL     1       3.527  -1.121   0.344  0.00  0.00    +0.256 C 
ENDBRANCH  10  11
ENDBRANCH   5  10
TORSDOF 2
