REMARK  Name = 1511
REMARK  3 active torsions:
REMARK  status: ('A' for Active; 'I' for Inactive)
REMARK    1  A    between atoms: C_5  and  C_12
REMARK    2  A    between atoms: C_6  and  C_22
REMARK    3  A    between atoms: C_15  and  O_18
REMARK                            x       y       z     vdW  Elec       q    Type
REMARK                         _______ _______ _______ _____ _____    ______ ____
ROOT
ATOM      1  N   UNL     1      -0.479   1.786  -0.180  0.00  0.00    -0.315 N 
ATOM      2  N   UNL     1      -0.591  -0.409   0.149  0.00  0.00    -0.314 N 
ATOM      3  C   UNL     1      -1.815   1.479  -0.211  0.00  0.00    +0.059 C 
ATOM      4  C   UNL     1      -1.859   0.103  -0.004  0.00  0.00    +0.064 C 
ATOM      5  C   UNL     1       0.211   0.626   0.037  0.00  0.00    +0.168 C 
ATOM      6  C   UNL     1      -3.105  -0.545   0.023  0.00  0.00    +0.067 C 
ATOM      7  C   UNL     1      -2.954   2.263  -0.397  0.00  0.00    +0.016 C 
ATOM      8  C   UNL     1      -4.262   0.222  -0.162  0.00  0.00    +0.006 C 
ATOM      9  C   UNL     1      -4.186   1.601  -0.368  0.00  0.00    +0.001 C 
ATOM     10  H   UNL     1      -0.086   2.682  -0.294  0.00  0.00    +0.149 HD
ATOM     11  H   UNL     1      -0.339  -1.348   0.306  0.00  0.00    +0.149 HD
ENDROOT
BRANCH   5  12
ATOM     12  C   UNL     1       1.651   0.598   0.125  0.00  0.00    +0.017 C 
ATOM     13  C   UNL     1       2.351  -0.541  -0.273  0.00  0.00    +0.036 C 
ATOM     14  C   UNL     1       2.342   1.709   0.607  0.00  0.00    -0.001 C 
ATOM     15  C   UNL     1       3.744  -0.568  -0.189  0.00  0.00    +0.139 C 
ATOM     16  C   UNL     1       3.734   1.682   0.692  0.00  0.00    +0.003 C 
ATOM     17  C   UNL     1       4.435   0.543   0.294  0.00  0.00    +0.037 C 
BRANCH  15  18
ATOM     18  O   UNL     1       4.428  -1.679  -0.576  0.00  0.00    -0.471 OA
ATOM     19  C   UNL     1       5.849  -1.639  -0.463  0.00  0.00    +0.252 C 
ENDBRANCH  15  18
ENDBRANCH   5  12
BRANCH   6  22
ATOM     20  O   UNL     1      -4.292  -2.568   0.246  0.00  0.00    -0.270 OA
ATOM     21  N   UNL     1      -2.008  -2.685   0.414  0.00  0.00    -0.325 N 
ATOM     22  C   UNL     1      -3.195  -1.979   0.236  0.00  0.00    +0.244 C 
ATOM     23  H   UNL     1      -2.031  -3.659   0.561  0.00  0.00    +0.145 HD
ATOM     24  H   UNL     1      -1.145  -2.212   0.392  0.00  0.00    +0.145 HD
ENDBRANCH   6  22
TORSDOF 3
