REMARK  Name = 5494411
REMARK  11 active torsions:
REMARK  status: ('A' for Active; 'I' for Inactive)
REMARK    1  A    between atoms: N_1  and  C_4
REMARK    2  A    between atoms: N_1  and  C_13
REMARK    3  A    between atoms: C_4  and  C_5
REMARK    4  A    between atoms: C_5  and  C_6
REMARK    5  A    between atoms: C_6  and  N_7
REMARK    6  A    between atoms: N_7  and  C_10
REMARK    7  A    between atoms: C_10  and  C_11
REMARK    8  A    between atoms: C_13  and  C_14
REMARK    9  A    between atoms: C_14  and  C_15
REMARK   10  A    between atoms: C_15  and  N_16
REMARK   11  A    between atoms: N_16  and  C_19
REMARK                            x       y       z     vdW  Elec       q    Type
REMARK                         _______ _______ _______ _____ _____    ______ ____
ROOT
ATOM      1  N   UNL     1       0.620  -0.357   0.017  0.00  0.00    +0.384 N 
ATOM      2  H   UNL     1       0.623  -0.951  -0.812  0.00  0.00    -0.085 HD
ATOM      3  H   UNL     1       0.624  -0.927   0.863  0.00  0.00    -0.085 HD
ENDROOT
BRANCH   1   4
ATOM      4  C   UNL     1      -0.585   0.461   0.013  0.00  0.00    -0.084 C 
BRANCH   4   5
ATOM      5  C   UNL     1      -1.856  -0.392   0.009  0.00  0.00    -0.047 C 
BRANCH   5   6
ATOM      6  C   UNL     1      -3.136   0.445  -0.014  0.00  0.00    -0.084 C 
BRANCH   6   7
ATOM      7  N   UNL     1      -4.306  -0.425   0.000  0.00  0.00    +0.384 N 
ATOM      8  H   UNL     1      -4.285  -1.000   0.842  0.00  0.00    -0.085 HD
ATOM      9  H   UNL     1      -4.286  -1.012  -0.833  0.00  0.00    -0.085 HD
BRANCH   7  10
ATOM     10  C   UNL     1      -5.534   0.357  -0.011  0.00  0.00    -0.082 C 
BRANCH  10  11
ATOM     11  C   UNL     1      -6.750  -0.565   0.012  0.00  0.00    -0.023 C 
ATOM     12  C   UNL     1      -8.048   0.228  -0.021  0.00  0.00    -0.002 C 
ENDBRANCH  10  11
ENDBRANCH   7  10
ENDBRANCH   6   7
ENDBRANCH   5   6
ENDBRANCH   4   5
ENDBRANCH   1   4
BRANCH   1  13
ATOM     13  C   UNL     1       1.815   0.477   0.012  0.00  0.00    -0.084 C 
BRANCH  13  14
ATOM     14  C   UNL     1       3.097  -0.358   0.005  0.00  0.00    -0.047 C 
BRANCH  14  15
ATOM     15  C   UNL     1       4.367   0.495   0.018  0.00  0.00    -0.084 C 
BRANCH  15  16
ATOM     16  N   UNL     1       5.548  -0.360  -0.006  0.00  0.00    +0.384 N 
ATOM     17  H   UNL     1       5.527  -0.936  -0.847  0.00  0.00    -0.085 HD
ATOM     18  H   UNL     1       5.543  -0.947   0.828  0.00  0.00    -0.085 HD
BRANCH  16  19
ATOM     19  C   UNL     1       6.766   0.439  -0.004  0.00  0.00    -0.082 C 
ATOM     20  C   UNL     1       8.002  -0.445  -0.029  0.00  0.00    -0.026 C 
ENDBRANCH  16  19
ENDBRANCH  15  16
ENDBRANCH  14  15
ENDBRANCH  13  14
ENDBRANCH   1  13
TORSDOF 11
