REMARK  Name = 5289159
REMARK  5 active torsions:
REMARK  status: ('A' for Active; 'I' for Inactive)
REMARK    1  A    between atoms: C_1  and  C_13
REMARK    2  A    between atoms: C_4  and  S_7
REMARK    3  A    between atoms: S_7  and  N_10
REMARK    4  A    between atoms: C_13  and  C_14
REMARK    5  A    between atoms: C_14  and  N_15
REMARK                            x       y       z     vdW  Elec       q    Type
REMARK                         _______ _______ _______ _____ _____    ______ ____
ROOT
ATOM      1  C   UNL     1      -1.028   0.019   0.422  0.00  0.00    -0.020 C 
ATOM      2  C   UNL     1      -1.725   1.222   0.315  0.00  0.00    -0.003 C 
ATOM      3  C   UNL     1      -1.711  -1.194   0.333  0.00  0.00    -0.003 C 
ATOM      4  C   UNL     1      -3.789   0.000   0.029  0.00  0.00    +0.122 C 
ATOM      5  C   UNL     1      -3.106   1.212   0.119  0.00  0.00    +0.020 C 
ATOM      6  C   UNL     1      -3.092  -1.203   0.136  0.00  0.00    +0.020 C 
ENDROOT
BRANCH   4   7
ATOM      7  S   UNL     1      -5.518  -0.013  -0.217  0.00  0.00    +0.057 S 
ATOM      8  O   UNL     1      -5.901   1.240  -0.853  0.00  0.00    -0.153 OA
ATOM      9  O   UNL     1      -5.889  -1.279  -0.833  0.00  0.00    -0.153 OA
BRANCH   7  10
ATOM     10  N   UNL     1      -6.077  -0.004   1.398  0.00  0.00    -0.203 NA
ATOM     11  H   UNL     1      -7.097  -0.011   1.405  0.00  0.00    +0.144 HD
ATOM     12  H   UNL     1      -5.739   0.834   1.870  0.00  0.00    +0.144 HD
ENDBRANCH   7  10
ENDBRANCH   4   7
BRANCH   1  13
ATOM     13  C   UNL     1       0.448   0.029   0.634  0.00  0.00    +0.048 C 
BRANCH  13  14
ATOM     14  C   UNL     1       1.266   0.024  -0.664  0.00  0.00    +0.095 C 
BRANCH  14  15
ATOM     15  N   UNL     1       2.717   0.008  -0.363  0.00  0.00    -0.308 N 
ATOM     16  C   UNL     1       3.322  -1.173  -0.237  0.00  0.00    +0.095 C 
ATOM     17  C   UNL     1       3.346   1.175  -0.230  0.00  0.00    +0.025 C 
ATOM     18  C   UNL     1       4.679  -1.218   0.047  0.00  0.00    -0.011 C 
ATOM     19  C   UNL     1       4.704   1.191   0.055  0.00  0.00    +0.006 C 
ATOM     20  C   UNL     1       5.374  -0.021   0.194  0.00  0.00    -0.024 C 
ATOM     21  C   UNL     1       2.548  -2.437  -0.399  0.00  0.00    +0.026 C 
ATOM     22  C   UNL     1       2.599   2.456  -0.385  0.00  0.00    +0.047 C 
ATOM     23  C   UNL     1       6.833  -0.036   0.499  0.00  0.00    +0.031 C 
ENDBRANCH  14  15
ENDBRANCH  13  14
ENDBRANCH   1  13
TORSDOF 5
