REMARK  Name = 5288464
REMARK  7 active torsions:
REMARK  status: ('A' for Active; 'I' for Inactive)
REMARK    1  A    between atoms: N_1  and  C_4
REMARK    2  A    between atoms: N_1  and  C_11
REMARK    3  A    between atoms: C_4  and  P_5
REMARK    4  A    between atoms: P_5  and  O_7
REMARK    5  A    between atoms: P_5  and  O_9
REMARK    6  A    between atoms: C_11  and  C_13
REMARK    7  A    between atoms: C_13  and  O_14
REMARK                            x       y       z     vdW  Elec       q    Type
REMARK                         _______ _______ _______ _____ _____    ______ ____
ROOT
ATOM      1  N   UNL     1      -0.385  -0.025  -0.056  0.00  0.00    +0.399 N 
ATOM      2  H   UNL     1      -0.376   0.550  -0.898  0.00  0.00    -0.083 HD
ATOM      3  H   UNL     1      -0.375   0.524   0.804  0.00  0.00    -0.083 HD
ENDROOT
BRANCH   1   4
ATOM      4  C   UNL     1       0.862  -0.857  -0.044  0.00  0.00    +0.038 C 
BRANCH   4   5
ATOM      5  P   UNL     1       2.456  -0.041   0.011  0.00  0.00    +0.316 P 
ATOM      6  O   UNL     1       3.630  -0.973   0.019  0.00  0.00    -0.260 OA
BRANCH   5   7
ATOM      7  O   UNL     1       2.396   0.982  -1.239  0.00  0.00    -0.325 OA
ATOM      8  H   UNL     1       3.229   1.477  -1.292  0.00  0.00    +0.220 HD
ENDBRANCH   5   7
BRANCH   5   9
ATOM      9  O   UNL     1       2.337   0.929   1.298  0.00  0.00    -0.325 OA
ATOM     10  H   UNL     1       3.165   1.420   1.411  0.00  0.00    +0.220 HD
ENDBRANCH   5   9
ENDBRANCH   4   5
ENDBRANCH   1   4
BRANCH   1  11
ATOM     11  C   UNL     1      -1.650  -0.806  -0.042  0.00  0.00    +0.031 C 
BRANCH  11  13
ATOM     12  O   UNL     1      -2.819   1.323  -0.006  0.00  0.00    -0.253 OA
ATOM     13  C   UNL     1      -2.843   0.101   0.003  0.00  0.00    +0.292 C 
BRANCH  13  14
ATOM     14  O   UNL     1      -3.983  -0.633   0.056  0.00  0.00    -0.482 OA
ATOM     15  H   UNL     1      -3.939  -1.569   0.060  0.00  0.00    +0.295 HD
ENDBRANCH  13  14
ENDBRANCH  11  13
ENDBRANCH   1  11
TORSDOF 7
