REMARK  Name = 46936889
REMARK  9 active torsions:
REMARK  status: ('A' for Active; 'I' for Inactive)
REMARK    1  A    between atoms: N_2  and  C_8
REMARK    2  A    between atoms: N_3  and  N_7
REMARK    3  A    between atoms: N_3  and  C_18
REMARK    4  A    between atoms: C_8  and  P_10
REMARK    5  A    between atoms: P_10  and  O_12
REMARK    6  A    between atoms: P_10  and  O_15
REMARK    7  A    between atoms: O_12  and  C_13
REMARK    8  A    between atoms: O_15  and  C_16
REMARK    9  A    between atoms: C_18  and  C_20
REMARK                            x       y       z     vdW  Elec       q    Type
REMARK                         _______ _______ _______ _____ _____    ______ ____
ROOT
ATOM      1  O   UNL     1       1.767   1.923   0.007  0.00  0.00    -0.251 OA
ATOM      2  N   UNL     1       0.374   0.094   0.105  0.00  0.00    -0.279 N 
ATOM      3  N   UNL     1       2.675  -0.178  -0.353  0.00  0.00    -0.163 N 
ATOM      4  C   UNL     1       1.616   0.699  -0.073  0.00  0.00    +0.321 C 
ATOM      5  H   UNL     1       0.313  -0.886   0.030  0.00  0.00    +0.152 HD
ENDROOT
BRANCH   3   7
ATOM      6  O   UNL     1       3.467  -2.296  -0.693  0.00  0.00    -0.078 OA
ATOM      7  N   UNL     1       2.445  -1.649  -0.440  0.00  0.00    +0.054 NA
ENDBRANCH   3   7
BRANCH   2   8
ATOM      8  C   UNL     1      -0.839   0.844   0.398  0.00  0.00    +0.178 C 
ATOM      9  C   UNL     1      -1.005   1.048   1.896  0.00  0.00    +0.035 C 
BRANCH   8  10
ATOM     10  P   UNL     1      -2.195  -0.019  -0.400  0.00  0.00    +0.361 P 
ATOM     11  O   UNL     1      -2.024  -0.217  -1.879  0.00  0.00    -0.256 OA
BRANCH  10  12
ATOM     12  O   UNL     1      -2.344  -1.397   0.440  0.00  0.00    -0.293 OA
BRANCH  12  13
ATOM     13  C   UNL     1      -3.342  -2.332   0.068  0.00  0.00    +0.151 C 
ATOM     14  C   UNL     1      -3.275  -3.523   1.000  0.00  0.00    +0.035 C 
ENDBRANCH  12  13
ENDBRANCH  10  12
BRANCH  10  15
ATOM     15  O   UNL     1      -3.541   0.774   0.023  0.00  0.00    -0.293 OA
BRANCH  15  16
ATOM     16  C   UNL     1      -3.906   1.971  -0.638  0.00  0.00    +0.151 C 
ATOM     17  C   UNL     1      -5.197   2.490  -0.041  0.00  0.00    +0.035 C 
ENDBRANCH  15  16
ENDBRANCH  10  15
ENDBRANCH   8  10
ENDBRANCH   2   8
BRANCH   3  18
ATOM     18  C   UNL     1       4.026   0.327  -0.566  0.00  0.00    +0.134 C 
BRANCH  18  20
ATOM     19 CL   UNL     1       6.469   1.033   0.425  0.00  0.00    -0.112 Cl
ATOM     20  C   UNL     1       4.828   0.407   0.722  0.00  0.00    +0.118 C 
ENDBRANCH  18  20
ENDBRANCH   3  18
TORSDOF 9
