REMARK  Name = 446622
REMARK  4 active torsions:
REMARK  status: ('A' for Active; 'I' for Inactive)
REMARK    1  A    between atoms: C_6  and  C_19
REMARK    2  A    between atoms: C_10  and  N_16
REMARK    3  A    between atoms: C_19  and  S_20
REMARK    4  A    between atoms: S_20  and  C_23
REMARK                            x       y       z     vdW  Elec       q    Type
REMARK                         _______ _______ _______ _____ _____    ______ ____
ROOT
ATOM      1  O   UNL     1       4.701  -0.614  -0.405  0.00  0.00    -0.209 OA
ATOM      2  N   UNL     1       0.847  -1.485   0.258  0.00  0.00    -0.275 N 
ATOM      3  N   UNL     1       3.083  -2.211  -0.120  0.00  0.00    -0.302 NA
ATOM      4  N   UNL     1       1.323  -3.728   0.187  0.00  0.00    -0.320 N 
ATOM      5  C   UNL     1       1.201  -0.136   0.192  0.00  0.00    +0.060 C 
ATOM      6  C   UNL     1       0.256   0.881   0.349  0.00  0.00    +0.004 C 
ATOM      7  C   UNL     1       2.540   0.202  -0.039  0.00  0.00    +0.109 C 
ATOM      8  C   UNL     1       0.647   2.219   0.275  0.00  0.00    +0.012 C 
ATOM      9  C   UNL     1       2.936   1.540  -0.113  0.00  0.00    +0.028 C 
ATOM     10  C   UNL     1       1.984   2.547   0.045  0.00  0.00    +0.042 C 
ATOM     11  C   UNL     1       3.526  -0.903  -0.202  0.00  0.00    +0.208 C 
ATOM     12  C   UNL     1       1.816  -2.450   0.098  0.00  0.00    +0.248 C 
ATOM     13  H   UNL     1      -0.089  -1.744   0.419  0.00  0.00    +0.156 HD
ATOM     14  H   UNL     1       0.363  -3.875   0.352  0.00  0.00    +0.146 HD
ATOM     15  H   UNL     1       1.929  -4.497   0.087  0.00  0.00    +0.146 HD
ENDROOT
BRANCH  10  16
ATOM     16  N   UNL     1       2.373   3.901  -0.028  0.00  0.00    -0.357 N 
ATOM     17  H   UNL     1       1.702   4.613   0.083  0.00  0.00    +0.142 HD
ATOM     18  H   UNL     1       3.316   4.134  -0.191  0.00  0.00    +0.142 HD
ENDBRANCH  10  16
BRANCH   6  19
ATOM     19  C   UNL     1      -1.186   0.574   0.597  0.00  0.00    +0.088 C 
BRANCH  19  20
ATOM     20  S   UNL     1      -2.138   0.423  -0.944  0.00  0.00    -0.096 S 
BRANCH  20  23
ATOM     21  N   UNL     1      -4.763  -0.112  -1.192  0.00  0.00    -0.308 N 
ATOM     22  N   UNL     1      -4.080  -0.036   0.919  0.00  0.00    -0.308 N 
ATOM     23  C   UNL     1      -3.774   0.065  -0.314  0.00  0.00    +0.196 C 
ATOM     24  C   UNL     1      -5.870  -0.364  -0.432  0.00  0.00    +0.076 C 
ATOM     25  C   UNL     1      -5.423  -0.313   0.868  0.00  0.00    +0.076 C 
ATOM     26  H   UNL     1      -4.707  -0.070  -2.174  0.00  0.00    +0.149 HD
ATOM     27  H   UNL     1      -3.499   0.059   1.709  0.00  0.00    +0.149 HD
ENDBRANCH  20  23
ENDBRANCH  19  20
ENDBRANCH   6  19
TORSDOF 4
