REMARK  Name = 24360
REMARK  2 active torsions:
REMARK  status: ('A' for Active; 'I' for Inactive)
REMARK    1  A    between atoms: C_6  and  O_24
REMARK    2  A    between atoms: C_6  and  C_26
REMARK                            x       y       z     vdW  Elec       q    Type
REMARK                         _______ _______ _______ _____ _____    ______ ____
ROOT
ATOM      1  O   UNL     1      -4.825  -0.732   0.410  0.00  0.00    -0.442 OA
ATOM      2  O   UNL     1      -1.605  -3.412  -0.193  0.00  0.00    -0.270 OA
ATOM      3  O   UNL     1      -5.377   1.295   1.202  0.00  0.00    -0.247 OA
ATOM      4  N   UNL     1      -0.073  -1.683  -0.075  0.00  0.00    -0.249 N 
ATOM      5  N   UNL     1       2.295   1.021   0.061  0.00  0.00    -0.405 NA
ATOM      6  C   UNL     1      -3.278   1.137   0.018  0.00  0.00    +0.196 C 
ATOM      7  C   UNL     1      -2.166   0.124   0.009  0.00  0.00    +0.017 C 
ATOM      8  C   UNL     1       0.195  -0.326  -0.007  0.00  0.00    +0.084 C 
ATOM      9  C   UNL     1      -2.454  -1.187  -0.071  0.00  0.00    +0.074 C 
ATOM     10  C   UNL     1       1.177  -2.470  -0.110  0.00  0.00    +0.128 C 
ATOM     11  C   UNL     1      -0.785   0.580   0.030  0.00  0.00    +0.016 C 
ATOM     12  C   UNL     1       2.221  -1.405  -0.057  0.00  0.00    +0.029 C 
ATOM     13  C   UNL     1       1.640  -0.146   0.003  0.00  0.00    +0.142 C 
ATOM     14  C   UNL     1      -1.351  -2.212  -0.118  0.00  0.00    +0.252 C 
ATOM     15  C   UNL     1      -3.864  -1.666  -0.131  0.00  0.00    +0.239 C 
ATOM     16  C   UNL     1      -4.569   0.582   0.608  0.00  0.00    +0.346 C 
ATOM     17  C   UNL     1       3.593  -1.492  -0.059  0.00  0.00    +0.002 C 
ATOM     18  C   UNL     1       4.335  -0.301   0.000  0.00  0.00    +0.026 C 
ATOM     19  C   UNL     1       3.642   0.941   0.059  0.00  0.00    +0.113 C 
ATOM     20  C   UNL     1       5.739  -0.325   0.001  0.00  0.00    +0.002 C 
ATOM     21  C   UNL     1       4.397   2.108   0.116  0.00  0.00    +0.085 C 
ATOM     22  C   UNL     1       6.465   0.862   0.059  0.00  0.00    -0.004 C 
ATOM     23  C   UNL     1       5.794   2.077   0.117  0.00  0.00    -0.019 C 
ENDROOT
BRANCH   6  24
ATOM     24  O   UNL     1      -2.932   2.227   0.876  0.00  0.00    -0.373 OA
ATOM     25  H   UNL     1      -2.111   2.637   0.562  0.00  0.00    +0.211 HD
ENDBRANCH   6  24
BRANCH   6  26
ATOM     26  C   UNL     1      -3.558   1.680  -1.386  0.00  0.00    +0.042 C 
ATOM     27  C   UNL     1      -4.657   2.723  -1.363  0.00  0.00    +0.003 C 
ENDBRANCH   6  26
TORSDOF 2
