REMARK  Name = 8186
REMARK  9 active torsions:
REMARK  status: ('A' for Active; 'I' for Inactive)
REMARK    1  A    between atoms: C_1  and  C_2
REMARK    2  A    between atoms: C_1  and  C_7
REMARK    3  A    between atoms: C_2  and  C_3
REMARK    4  A    between atoms: C_3  and  C_4
REMARK    5  A    between atoms: C_4  and  C_5
REMARK    6  A    between atoms: C_7  and  C_8
REMARK    7  A    between atoms: C_8  and  C_9
REMARK    8  A    between atoms: C_9  and  C_10
REMARK    9  A    between atoms: C_10  and  C_12
REMARK                            x       y       z     vdW  Elec       q    Type
REMARK                         _______ _______ _______ _____ _____    ______ ____
ROOT
ATOM      1  C   UNL     1      -0.543   0.582  -0.003  0.00  0.00    +0.000 C 
ENDROOT
BRANCH   1   2
ATOM      2  C   UNL     1      -1.772  -0.330  -0.020  0.00  0.00    +0.000 C 
BRANCH   2   3
ATOM      3  C   UNL     1      -3.097   0.439  -0.049  0.00  0.00    +0.000 C 
BRANCH   3   4
ATOM      4  C   UNL     1      -4.328  -0.468   0.009  0.00  0.00    +0.000 C 
BRANCH   4   5
ATOM      5  C   UNL     1      -5.620   0.348  -0.036  0.00  0.00    +0.000 C 
ATOM      6  C   UNL     1      -6.847  -0.545   0.060  0.00  0.00    +0.000 C 
ENDBRANCH   4   5
ENDBRANCH   3   4
ENDBRANCH   2   3
ENDBRANCH   1   2
BRANCH   1   7
ATOM      7  C   UNL     1       0.782  -0.188   0.014  0.00  0.00    +0.000 C 
BRANCH   7   8
ATOM      8  C   UNL     1       2.013   0.722   0.005  0.00  0.00    +0.000 C 
BRANCH   8   9
ATOM      9  C   UNL     1       3.305  -0.096   0.009  0.00  0.00    +0.008 C 
BRANCH   9  10
ATOM     10  C   UNL     1       4.533   0.807   0.038  0.00  0.00    +0.072 C 
BRANCH  10  12
ATOM     11  O   UNL     1       5.785  -1.249  -0.029  0.00  0.00    -0.288 OA
ATOM     12  C   UNL     1       5.789  -0.022   0.000  0.00  0.00    +0.207 C 
ENDBRANCH  10  12
ENDBRANCH   9  10
ENDBRANCH   8   9
ENDBRANCH   7   8
ENDBRANCH   1   7
TORSDOF 9
