REMARK  Name = 7027
REMARK  5 active torsions:
REMARK  status: ('A' for Active; 'I' for Inactive)
REMARK    1  A    between atoms: C_3  and  O_8
REMARK    2  A    between atoms: C_4  and  O_10
REMARK    3  A    between atoms: C_5  and  C_14
REMARK    4  A    between atoms: C_6  and  O_12
REMARK    5  A    between atoms: C_14  and  O_15
REMARK                            x       y       z     vdW  Elec       q    Type
REMARK                         _______ _______ _______ _____ _____    ______ ____
ROOT
ATOM      1  O   UNL     1      -0.329   1.438  -0.123  0.00  0.00    -0.445 OA
ATOM      2  O   UNL     1       1.766   2.271  -0.192  0.00  0.00    -0.247 OA
ATOM      3  C   UNL     1      -0.755  -0.990   0.023  0.00  0.00    +0.183 C 
ATOM      4  C   UNL     1       0.735  -1.218  -0.186  0.00  0.00    +0.179 C 
ATOM      5  C   UNL     1      -1.148   0.347  -0.597  0.00  0.00    +0.227 C 
ATOM      6  C   UNL     1       1.519  -0.053   0.388  0.00  0.00    +0.239 C 
ATOM      7  C   UNL     1       1.019   1.308  -0.042  0.00  0.00    +0.347 C 
ENDROOT
BRANCH   3   8
ATOM      8  O   UNL     1      -1.464  -2.054  -0.606  0.00  0.00    -0.378 OA
ATOM      9  H   UNL     1      -1.205  -2.898  -0.202  0.00  0.00    +0.211 HD
ENDBRANCH   3   8
BRANCH   4  10
ATOM     10  O   UNL     1       1.128  -2.403   0.508  0.00  0.00    -0.379 OA
ATOM     11  H   UNL     1       0.637  -3.162   0.155  0.00  0.00    +0.211 HD
ENDBRANCH   4  10
BRANCH   6  12
ATOM     12  O   UNL     1       2.887  -0.163   0.017  0.00  0.00    -0.373 OA
ATOM     13  H   UNL     1       3.225  -1.032   0.285  0.00  0.00    +0.211 HD
ENDBRANCH   6  12
BRANCH   5  14
ATOM     14  C   UNL     1      -2.597   0.719  -0.297  0.00  0.00    +0.184 C 
BRANCH  14  15
ATOM     15  O   UNL     1      -2.761   0.798   1.107  0.00  0.00    -0.378 OA
ATOM     16  H   UNL     1      -3.679   1.034   1.313  0.00  0.00    +0.211 HD
ENDBRANCH  14  15
ENDBRANCH   5  14
TORSDOF 5
