REMARK  Name = 16757
REMARK  6 active torsions:
REMARK  status: ('A' for Active; 'I' for Inactive)
REMARK    1  A    between atoms: C_1  and  C_2
REMARK    2  A    between atoms: C_1  and  C_9
REMARK    3  A    between atoms: C_2  and  C_3
REMARK    4  A    between atoms: C_9  and  C_10
REMARK    5  A    between atoms: C_10  and  C_12
REMARK    6  A    between atoms: C_12  and  O_13
REMARK                            x       y       z     vdW  Elec       q    Type
REMARK                         _______ _______ _______ _____ _____    ______ ____
ROOT
ATOM      1  C   UNL     1       0.532  -0.030   0.131  0.00  0.00    +0.005 C 
ENDROOT
BRANCH   1   2
ATOM      2  C   UNL     1      -0.546   0.228  -0.928  0.00  0.00    +0.026 C 
BRANCH   2   3
ATOM      3  C   UNL     1      -1.956   0.097  -0.410  0.00  0.00    -0.022 C 
ATOM      4  C   UNL     1      -2.591  -1.135  -0.464  0.00  0.00    -0.004 C 
ATOM      5  C   UNL     1      -2.596   1.211   0.112  0.00  0.00    -0.004 C 
ATOM      6  C   UNL     1      -3.895  -1.256   0.015  0.00  0.00    -0.000 C 
ATOM      7  C   UNL     1      -3.901   1.090   0.591  0.00  0.00    -0.000 C 
ATOM      8  C   UNL     1      -4.550  -0.143   0.543  0.00  0.00    -0.000 C 
ENDBRANCH   2   3
ENDBRANCH   1   2
BRANCH   1   9
ATOM      9  C   UNL     1       1.956   0.178  -0.401  0.00  0.00    +0.012 C 
BRANCH   9  10
ATOM     10  C   UNL     1       3.022  -0.156   0.644  0.00  0.00    +0.109 C 
BRANCH  10  12
ATOM     11  O   UNL     1       4.745   0.351  -1.003  0.00  0.00    -0.250 OA
ATOM     12  C   UNL     1       4.434  -0.026   0.119  0.00  0.00    +0.314 C 
BRANCH  12  13
ATOM     13  O   UNL     1       5.347  -0.408   1.050  0.00  0.00    -0.480 OA
ATOM     14  H   UNL     1       5.062  -0.690   1.897  0.00  0.00    +0.295 HD
ENDBRANCH  12  13
ENDBRANCH  10  12
ENDBRANCH   9  10
ENDBRANCH   1   9
TORSDOF 6
