REMARK  Name = 5289081
REMARK  6 active torsions:
REMARK  status: ('A' for Active; 'I' for Inactive)
REMARK    1  A    between atoms: C_5  and  C_18
REMARK    2  A    between atoms: C_15  and  O_32
REMARK    3  A    between atoms: C_19  and  C_25
REMARK    4  A    between atoms: C_23  and  C_29
REMARK    5  A    between atoms: C_25  and  O_26
REMARK    6  A    between atoms: C_29  and  O_30
REMARK                            x       y       z     vdW  Elec       q    Type
REMARK                         _______ _______ _______ _____ _____    ______ ____
ROOT
ATOM      1  F   UNL     1      -1.435  -4.742   0.221  0.00  0.00    -0.201 F 
ATOM      2  F   UNL     1       0.153   4.838   0.268  0.00  0.00    -0.201 F 
ATOM      3  O   UNL     1      -3.260   0.430   0.175  0.00  0.00    -0.474 OA
ATOM      4  O   UNL     1      -2.551   5.086   0.194  0.00  0.00    -0.288 OA
ATOM      5  C   UNL     1      -0.420   0.050   0.248  0.00  0.00    +0.003 C 
ATOM      6  C   UNL     1      -1.374  -1.088   0.223  0.00  0.00    +0.024 C 
ATOM      7  C   UNL     1      -0.938   1.308   0.236  0.00  0.00    +0.032 C 
ATOM      8  C   UNL     1      -2.746  -0.838   0.188  0.00  0.00    +0.213 C 
ATOM      9  C   UNL     1      -2.397   1.518   0.198  0.00  0.00    +0.125 C 
ATOM     10  C   UNL     1      -0.947  -2.427   0.234  0.00  0.00    +0.032 C 
ATOM     11  C   UNL     1      -0.086   2.506   0.259  0.00  0.00    +0.035 C 
ATOM     12  C   UNL     1      -3.674  -1.883   0.163  0.00  0.00    +0.060 C 
ATOM     13  C   UNL     1      -2.930   2.749   0.185  0.00  0.00    +0.135 C 
ATOM     14  C   UNL     1      -1.871  -3.475   0.210  0.00  0.00    +0.173 C 
ATOM     15  C   UNL     1      -3.235  -3.204   0.174  0.00  0.00    +0.161 C 
ATOM     16  C   UNL     1      -0.615   3.732   0.246  0.00  0.00    +0.175 C 
ATOM     17  C   UNL     1      -2.072   3.959   0.208  0.00  0.00    +0.208 C 
ENDROOT
BRANCH   5  18
ATOM     18  C   UNL     1       1.035  -0.135   0.287  0.00  0.00    +0.006 C 
ATOM     19  C   UNL     1       1.780  -0.227  -0.882  0.00  0.00    +0.076 C 
ATOM     20  C   UNL     1       1.653  -0.218   1.531  0.00  0.00    +0.000 C 
ATOM     21  C   UNL     1       3.162  -0.403  -0.808  0.00  0.00    +0.013 C 
ATOM     22  C   UNL     1       3.034  -0.394   1.604  0.00  0.00    +0.006 C 
ATOM     23  C   UNL     1       3.789  -0.487   0.435  0.00  0.00    +0.076 C 
BRANCH  19  25
ATOM     24  O   UNL     1       0.016  -0.506  -2.473  0.00  0.00    -0.245 OA
ATOM     25  C   UNL     1       1.163  -0.146  -2.201  0.00  0.00    +0.338 C 
BRANCH  25  26
ATOM     26  O   UNL     1       2.000   0.385  -3.131  0.00  0.00    -0.477 OA
ATOM     27  H   UNL     1       2.866   0.647  -2.887  0.00  0.00    +0.295 HD
ENDBRANCH  25  26
ENDBRANCH  19  25
BRANCH  23  29
ATOM     28  O   UNL     1       5.993  -0.765  -0.454  0.00  0.00    -0.245 OA
ATOM     29  C   UNL     1       5.230  -0.670   0.513  0.00  0.00    +0.338 C 
BRANCH  29  30
ATOM     30  O   UNL     1       5.678  -0.730   1.797  0.00  0.00    -0.477 OA
ATOM     31  H   UNL     1       5.074  -0.655   2.508  0.00  0.00    +0.295 HD
ENDBRANCH  29  30
ENDBRANCH  23  29
ENDBRANCH   5  18
BRANCH  15  32
ATOM     32  O   UNL     1      -4.136  -4.222   0.151  0.00  0.00    -0.504 OA
ATOM     33  H   UNL     1      -5.054  -4.036   0.127  0.00  0.00    +0.292 HD
ENDBRANCH  15  32
TORSDOF 6
