REMARK  Name = 121976
REMARK  10 active torsions:
REMARK  status: ('A' for Active; 'I' for Inactive)
REMARK    1  A    between atoms: C_2  and  O_16
REMARK    2  A    between atoms: C_3  and  C_23
REMARK    3  A    between atoms: C_5  and  N_8
REMARK    4  A    between atoms: O_16  and  P_17
REMARK    5  A    between atoms: P_17  and  O_19
REMARK    6  A    between atoms: P_17  and  O_21
REMARK    7  A    between atoms: C_23  and  O_24
REMARK    8  A    between atoms: O_24  and  P_25
REMARK    9  A    between atoms: P_25  and  O_27
REMARK   10  A    between atoms: P_25  and  O_29
REMARK                            x       y       z     vdW  Elec       q    Type
REMARK                         _______ _______ _______ _____ _____    ______ ____
ROOT
ATOM      1  O   UNL     1       0.427  -0.329   0.950  0.00  0.00    -0.335 OA
ATOM      2  C   UNL     1       1.901  -0.904  -0.815  0.00  0.00    +0.160 C 
ATOM      3  C   UNL     1       1.555   0.170   0.206  0.00  0.00    +0.175 C 
ATOM      4  C   UNL     1       0.570  -1.570  -1.077  0.00  0.00    +0.084 C 
ATOM      5  C   UNL     1      -0.118  -1.472   0.275  0.00  0.00    +0.202 C 
ENDROOT
BRANCH   5   8
ATOM      6  O   UNL     1      -2.000  -3.608   0.338  0.00  0.00    -0.252 OA
ATOM      7  O   UNL     1      -5.545  -0.721  -0.157  0.00  0.00    -0.270 OA
ATOM      8  N   UNL     1      -1.540  -1.325   0.166  0.00  0.00    -0.219 N 
ATOM      9  N   UNL     1      -3.759  -2.157   0.090  0.00  0.00    -0.236 N 
ATOM     10  C   UNL     1      -2.064  -0.048   0.017  0.00  0.00    +0.071 C 
ATOM     11  C   UNL     1      -2.395  -2.447   0.208  0.00  0.00    +0.315 C 
ATOM     12  C   UNL     1      -3.370   0.227  -0.095  0.00  0.00    +0.047 C 
ATOM     13  C   UNL     1      -4.335  -0.904  -0.059  0.00  0.00    +0.250 C 
ATOM     14  C   UNL     1      -3.913   1.610  -0.255  0.00  0.00    +0.037 C 
ATOM     15  H   UNL     1      -4.376  -2.924   0.117  0.00  0.00    +0.159 HD
ENDBRANCH   5   8
BRANCH   2  16
ATOM     16  O   UNL     1       2.805  -1.846  -0.240  0.00  0.00    -0.273 OA
BRANCH  16  17
ATOM     17  P   UNL     1       4.306  -1.357   0.129  0.00  0.00    +0.473 P 
ATOM     18  O   UNL     1       4.378  -0.234   1.123  0.00  0.00    -0.227 OA
BRANCH  17  19
ATOM     19  O   UNL     1       4.973  -1.048  -1.312  0.00  0.00    -0.303 OA
ATOM     20  H   UNL     1       4.879  -1.826  -1.884  0.00  0.00    +0.222 HD
ENDBRANCH  17  19
BRANCH  17  21
ATOM     21  O   UNL     1       5.033  -2.725   0.590  0.00  0.00    -0.303 OA
ATOM     22  H   UNL     1       4.938  -3.393  -0.107  0.00  0.00    +0.222 HD
ENDBRANCH  17  21
ENDBRANCH  16  17
ENDBRANCH   2  16
BRANCH   3  23
ATOM     23  C   UNL     1       1.144   1.488  -0.438  0.00  0.00    +0.186 C 
BRANCH  23  24
ATOM     24  O   UNL     1       0.831   2.420   0.585  0.00  0.00    -0.271 OA
BRANCH  24  25
ATOM     25  P   UNL     1       0.362   3.908   0.155  0.00  0.00    +0.473 P 
ATOM     26  O   UNL     1       0.050   4.830   1.298  0.00  0.00    -0.227 OA
BRANCH  25  27
ATOM     27  O   UNL     1      -0.858   3.645  -0.873  0.00  0.00    -0.303 OA
ATOM     28  H   UNL     1      -0.565   3.041  -1.574  0.00  0.00    +0.222 HD
ENDBRANCH  25  27
BRANCH  25  29
ATOM     29  O   UNL     1       1.563   4.399  -0.810  0.00  0.00    -0.303 OA
ATOM     30  H   UNL     1       1.696   3.749  -1.517  0.00  0.00    +0.222 HD
ENDBRANCH  25  29
ENDBRANCH  24  25
ENDBRANCH  23  24
ENDBRANCH   3  23
TORSDOF 10
