REMARK  Name = 446049
REMARK  6 active torsions:
REMARK  status: ('A' for Active; 'I' for Inactive)
REMARK    1  A    between atoms: CA_1  and  N_3
REMARK    2  A    between atoms: CA_1  and  C_11
REMARK    3  A    between atoms: CA_1  and  CB_14
REMARK    4  A    between atoms: N_4  and  O_8
REMARK    5  A    between atoms: C_11  and  O_12
REMARK    6  A    between atoms: CB_14  and  CG_15
REMARK                            x       y       z     vdW  Elec       q    Type
REMARK                         _______ _______ _______ _____ _____    ______ ____
ROOT
ATOM      1  CA  UNL     1       0.660   0.952   0.007  0.00  0.00    +0.177 C 
ENDROOT
BRANCH   1   3
ATOM      2  O   UNL     1       2.272  -0.918   1.457  0.00  0.00    -0.251 OA
ATOM      3  N   UNL     1       1.281  -0.236  -0.524  0.00  0.00    -0.279 N 
ATOM      4  N   UNL     1       2.525  -2.160  -0.473  0.00  0.00    -0.181 N 
ATOM      5  C   ACE A   0       2.052  -1.091   0.259  0.00  0.00    +0.323 C 
ATOM      6  H   UNL     1       1.156  -0.450  -1.476  0.00  0.00    +0.151 HD
ATOM      7  H   UNL     1       2.328  -2.266  -1.431  0.00  0.00    +0.184 HD
BRANCH   4   8
ATOM      8  O   UNL     1       3.304  -3.086   0.234  0.00  0.00    -0.294 OA
ATOM      9  H   UNL     1       3.587  -3.795  -0.364  0.00  0.00    +0.241 HD
ENDBRANCH   4   8
ENDBRANCH   1   3
BRANCH   1  11
ATOM     10  OXT UNL     1       1.350   3.226   0.458  0.00  0.00    -0.248 OA
ATOM     11  C   UNL     1       1.623   2.130  -0.019  0.00  0.00    +0.332 C 
BRANCH  11  12
ATOM     12  O   UNL     1       2.816   1.876  -0.608  0.00  0.00    -0.479 OA
ATOM     13  H   UNL     1       2.992   1.027  -0.963  0.00  0.00    +0.295 HD
ENDBRANCH  11  12
ENDBRANCH   1  11
BRANCH   1  14
ATOM     14  CB  UNL     1      -0.620   1.304  -0.762  0.00  0.00    +0.057 C 
BRANCH  14  15
ATOM     15  CG  UNL     1      -1.800   0.449  -0.367  0.00  0.00    -0.020 C 
ATOM     16  CD1 UNL     1      -2.036  -0.737  -1.044  0.00  0.00    -0.004 C 
ATOM     17  CD2 UNL     1      -2.624   0.865   0.667  0.00  0.00    -0.004 C 
ATOM     18  CE1 UNL     1      -3.126  -1.527  -0.678  0.00  0.00    -0.000 C 
ATOM     19  CE2 UNL     1      -3.713   0.074   1.033  0.00  0.00    -0.000 C 
ATOM     20  CZ  UNL     1      -3.964  -1.122   0.360  0.00  0.00    -0.000 C 
ENDBRANCH  14  15
ENDBRANCH   1  14
TORSDOF 6
