REMARK  Name = 449146
REMARK  3 active torsions:
REMARK  status: ('A' for Active; 'I' for Inactive)
REMARK    1  A    between atoms: C_1  and  C_9
REMARK    2  A    between atoms: C_2  and  O_12
REMARK    3  A    between atoms: C_3  and  O_14
REMARK                            x       y       z     vdW  Elec       q    Type
REMARK                         _______ _______ _______ _____ _____    ______ ____
ROOT
ATOM      1  C   UNL     1       0.585   0.304   0.026  0.00  0.00    +0.090 C 
ATOM      2  C   UNL     1      -0.367  -0.716   0.012  0.00  0.00    +0.172 C 
ATOM      3  C   UNL     1      -1.726  -0.402  -0.008  0.00  0.00    +0.168 C 
ATOM      4  C   UNL     1       0.177   1.638   0.020  0.00  0.00    +0.008 C 
ATOM      5  C   UNL     1      -2.133   0.932  -0.013  0.00  0.00    +0.040 C 
ATOM      6  C   UNL     1      -1.181   1.952   0.001  0.00  0.00    +0.003 C 
ENDROOT
BRANCH   1   9
ATOM      7  O   UNL     1       2.639  -0.162   1.100  0.00  0.00    -0.270 OA
ATOM      8  N   UNL     1       2.640  -0.132  -1.179  0.00  0.00    -0.325 N 
ATOM      9  C   UNL     1       2.009  -0.002   0.048  0.00  0.00    +0.246 C 
ATOM     10  H   UNL     1       3.602  -0.338  -1.219  0.00  0.00    +0.145 HD
ATOM     11  H   UNL     1       2.126  -0.019  -2.011  0.00  0.00    +0.145 HD
ENDBRANCH   1   9
BRANCH   2  12
ATOM     12  O   UNL     1       0.024  -2.023   0.016  0.00  0.00    -0.503 OA
ATOM     13  H   UNL     1       0.936  -2.239   0.029  0.00  0.00    +0.292 HD
ENDBRANCH   2  12
BRANCH   3  14
ATOM     14  O   UNL     1      -2.666  -1.388  -0.022  0.00  0.00    -0.503 OA
ATOM     15  H   UNL     1      -2.402  -2.287  -0.018  0.00  0.00    +0.292 HD
ENDBRANCH   3  14
TORSDOF 3
