REMARK  Name = 122077
REMARK  5 active torsions:
REMARK  status: ('A' for Active; 'I' for Inactive)
REMARK    1  A    between atoms: C_5  and  C_13
REMARK    2  A    between atoms: C_7  and  C_25
REMARK    3  A    between atoms: N_10  and  C_19
REMARK    4  A    between atoms: C_19  and  C_21
REMARK    5  A    between atoms: C_21  and  O_22
REMARK                            x       y       z     vdW  Elec       q    Type
REMARK                         _______ _______ _______ _____ _____    ______ ____
ROOT
ATOM      1  S   UNL     1       2.047  -3.053  -0.276  0.00  0.00    -0.059 S 
ATOM      2  O   UNL     1      -0.234   0.911   0.258  0.00  0.00    -0.268 OA
ATOM      3  N   UNL     1       0.040  -1.380  -0.069  0.00  0.00    -0.250 N 
ATOM      4  N   UNL     1       2.279  -0.506   0.101  0.00  0.00    -0.384 NA
ATOM      5  C   UNL     1      -0.748  -0.217   0.085  0.00  0.00    +0.265 C 
ATOM      6  C   UNL     1       1.436  -1.479  -0.056  0.00  0.00    +0.213 C 
ATOM      7  C   UNL     1       3.553  -1.038   0.046  0.00  0.00    +0.123 C 
ATOM      8  C   UNL     1       3.628  -2.401  -0.152  0.00  0.00    +0.125 C 
ATOM      9  H   UNL     1      -0.453  -2.222  -0.200  0.00  0.00    +0.158 HD
ENDROOT
BRANCH   5  13
ATOM     10  N   UNL     1      -3.079   0.494  -0.371  0.00  0.00    -0.273 N 
ATOM     11  C   UNL     1      -4.354  -0.010  -0.248  0.00  0.00    +0.052 C 
ATOM     12  C   UNL     1      -4.239  -1.292   0.293  0.00  0.00    +0.015 C 
ATOM     13  C   UNL     1      -2.164  -0.422   0.073  0.00  0.00    +0.107 C 
ATOM     14  C   UNL     1      -2.851  -1.538   0.491  0.00  0.00    +0.021 C 
ATOM     15  C   UNL     1      -5.589   0.565  -0.572  0.00  0.00    +0.015 C 
ATOM     16  C   UNL     1      -5.411  -2.039   0.524  0.00  0.00    +0.001 C 
ATOM     17  C   UNL     1      -6.738  -0.195  -0.334  0.00  0.00    +0.001 C 
ATOM     18  C   UNL     1      -6.653  -1.477   0.205  0.00  0.00    +0.000 C 
BRANCH  10  19
ATOM     19  C   UNL     1      -2.753   1.805  -0.894  0.00  0.00    +0.206 C 
BRANCH  19  21
ATOM     20  O   UNL     1      -2.921   2.683   1.372  0.00  0.00    -0.248 OA
ATOM     21  C   UNL     1      -2.712   2.856   0.181  0.00  0.00    +0.335 C 
BRANCH  21  22
ATOM     22  O   UNL     1      -2.406   4.062  -0.363  0.00  0.00    -0.479 OA
ATOM     23  H   UNL     1      -2.256   4.136  -1.285  0.00  0.00    +0.295 HD
ENDBRANCH  21  22
ENDBRANCH  19  21
ENDBRANCH  10  19
ENDBRANCH   5  13
BRANCH   7  25
ATOM     24 CL   UNL     1       4.750   0.171  -2.522  0.00  0.00    -0.082 Cl
ATOM     25  C   UNL     1       4.718  -0.214   0.188  0.00  0.00    +0.037 C 
ATOM     26  C   UNL     1       5.342   0.384  -0.911  0.00  0.00    +0.060 C 
ATOM     27  C   UNL     1       5.234  -0.010   1.471  0.00  0.00    +0.003 C 
ATOM     28  C   UNL     1       6.474   1.178  -0.728  0.00  0.00    +0.011 C 
ATOM     29  C   UNL     1       6.366   0.784   1.653  0.00  0.00    +0.000 C 
ATOM     30  C   UNL     1       6.986   1.378   0.554  0.00  0.00    +0.001 C 
ENDBRANCH   7  25
TORSDOF 5
