REMARK  Name = 1865
REMARK  4 active torsions:
REMARK  status: ('A' for Active; 'I' for Inactive)
REMARK    1  A    between atoms: C_5  and  C_12
REMARK    2  A    between atoms: C_12  and  C_13
REMARK    3  A    between atoms: C_13  and  C_14
REMARK    4  A    between atoms: C_14  and  O_15
REMARK                            x       y       z     vdW  Elec       q    Type
REMARK                         _______ _______ _______ _____ _____    ______ ____
ROOT
ATOM      1  O   UNL     1      -2.752   1.934  -0.464  0.00  0.00    -0.267 OA
ATOM      2  O   UNL     1      -2.304  -2.633  -0.159  0.00  0.00    -0.247 OA
ATOM      3  N   UNL     1      -0.510  -1.290   0.340  0.00  0.00    -0.311 N 
ATOM      4  N   UNL     1      -2.538  -0.350  -0.323  0.00  0.00    -0.275 N 
ATOM      5  C   UNL     1       0.070  -0.045   0.463  0.00  0.00    +0.038 A 
ATOM      6  C   UNL     1      -0.626   1.077   0.195  0.00  0.00    +0.046 A 
ATOM      7  C   UNL     1      -2.060   0.947  -0.226  0.00  0.00    +0.258 A 
ATOM      8  C   UNL     1      -0.102   2.483   0.253  0.00  0.00    +0.037 C 
ATOM      9  C   UNL     1      -1.816  -1.507  -0.055  0.00  0.00    +0.327 A 
ATOM     10  H   UNL     1       0.044  -2.077   0.548  0.00  0.00    +0.170 HD
ATOM     11  H   UNL     1      -3.473  -0.461  -0.608  0.00  0.00    +0.173 HD
ENDROOT
BRANCH   5  12
ATOM     12  C   UNL     1       1.501  -0.088   0.924  0.00  0.00    +0.046 C 
BRANCH  12  13
ATOM     13  C   UNL     1       2.463  -0.157  -0.253  0.00  0.00    +0.038 C 
BRANCH  13  14
ATOM     14  C   UNL     1       3.910  -0.160   0.220  0.00  0.00    +0.138 C 
BRANCH  14  15
ATOM     15  O   UNL     1       4.764  -0.210  -0.915  0.00  0.00    -0.382 OA
ATOM     16  H   UNL     1       5.690  -0.213  -0.624  0.00  0.00    +0.210 HD
ENDBRANCH  14  15
ENDBRANCH  13  14
ENDBRANCH  12  13
ENDBRANCH   5  12
TORSDOF 4
